MODEL 1
REMARK VINA RESULT:      -1.0      0.000      0.000
REMARK  Name = 153999
REMARK  2 active torsions:
REMARK  status: ('A' for Active; 'I' for Inactive)
REMARK    1  A    between atoms: C_7  and  C_33
REMARK    2  A    between atoms: C_33  and  N_34
REMARK                            x       y       z     vdW  Elec       q    Type
REMARK                         _______ _______ _______ _____ _____    ______ ____
ROOT
ATOM      1  O   UNL     1      31.499 -12.699 -21.872  0.00  0.00    -0.356 OA
ATOM      2  O   UNL     1      36.158 -10.272 -26.801  0.00  0.00    -0.270 OA
ATOM      3  O   UNL     1      34.320  -6.712 -24.580  0.00  0.00    -0.270 OA
ATOM      4  N   UNL     1      33.889 -13.489 -23.921  0.00  0.00    -0.286 N 
ATOM      5  N   UNL     1      31.253  -9.812 -22.188  0.00  0.00    -0.283 N 
ATOM      6  N   UNL     1      35.473  -8.245 -25.890  0.00  0.00    -0.248 N 
ATOM      7  C   UNL     1      31.931 -13.916 -21.253  0.00  0.00    +0.096 C 
ATOM      8  C   UNL     1      32.496 -14.864 -22.331  0.00  0.00    +0.049 C 
ATOM      9  C   UNL     1      33.878 -14.530 -22.908  0.00  0.00    +0.098 C 
ATOM     10  C   UNL     1      34.233 -11.518 -24.896  0.00  0.00    +0.021 C 
ATOM     11  C   UNL     1      33.568 -13.662 -25.254  0.00  0.00    +0.052 C 
ATOM     12  C   UNL     1      33.773 -12.431 -25.890  0.00  0.00    +0.015 C 
ATOM     13  C   UNL     1      34.515 -10.132 -25.050  0.00  0.00    +0.059 C 
ATOM     14  C   UNL     1      33.014  -9.112 -23.347  0.00  0.00    +0.021 C 
ATOM     15  C   UNL     1      34.315 -12.205 -23.703  0.00  0.00    +0.066 C 
ATOM     16  C   UNL     1      33.994  -9.088 -24.376  0.00  0.00    +0.059 C 
ATOM     17  C   UNL     1      30.153 -10.686 -21.810  0.00  0.00    +0.128 C 
ATOM     18  C   UNL     1      33.029  -8.460 -22.077  0.00  0.00    +0.015 C 
ATOM     19  C   UNL     1      31.899  -8.906 -21.374  0.00  0.00    +0.052 C 
ATOM     20  C   UNL     1      30.643 -11.910 -21.038  0.00  0.00    +0.164 C 
ATOM     21  C   UNL     1      31.866  -9.871 -23.411  0.00  0.00    +0.066 C 
ATOM     22  C   UNL     1      35.487  -9.602 -26.035  0.00  0.00    +0.252 C 
ATOM     23  C   UNL     1      33.110 -14.791 -25.952  0.00  0.00    +0.015 C 
ATOM     24  C   UNL     1      34.595  -7.849 -24.924  0.00  0.00    +0.252 C 
ATOM     25  C   UNL     1      33.486 -12.325 -27.269  0.00  0.00    +0.001 C 
ATOM     26  C   UNL     1      33.913  -7.568 -21.431  0.00  0.00    +0.001 C 
ATOM     27  C   UNL     1      31.614  -8.475 -20.070  0.00  0.00    +0.015 C 
ATOM     28  C   UNL     1      32.847 -14.662 -27.318  0.00  0.00    +0.001 C 
ATOM     29  C   UNL     1      33.029 -13.447 -27.969  0.00  0.00    +0.000 C 
ATOM     30  C   UNL     1      33.629  -7.128 -20.133  0.00  0.00    +0.000 C 
ATOM     31  C   UNL     1      32.494  -7.574 -19.465  0.00  0.00    +0.001 C 
ATOM     32  H   UNL     1      36.029  -7.628 -26.419  0.00  0.00    +0.158 HD
ENDROOT
BRANCH   7  33
ATOM     33  C   UNL     1      32.929 -13.651 -20.128  0.00  0.00    -0.047 C 
BRANCH  33  34
ATOM     34  N   UNL     1      33.392 -14.899 -19.541  0.00  0.00    +0.386 N 
ATOM     35  C   UNL     1      34.715 -15.257 -20.061  0.00  0.00    -0.101 C 
ATOM     36  C   UNL     1      32.438 -15.980 -19.799  0.00  0.00    -0.101 C 
ATOM     37  H   UNL     1      33.466 -14.764 -18.532  0.00  0.00    -0.080 HD
ENDBRANCH  33  34
ENDBRANCH   7  33
TORSDOF 2
ENDMDL
MODEL 2
REMARK VINA RESULT:      -1.0      2.777      6.605
REMARK  Name = 153999
REMARK  2 active torsions:
REMARK  status: ('A' for Active; 'I' for Inactive)
REMARK    1  A    between atoms: C_7  and  C_33
REMARK    2  A    between atoms: C_33  and  N_34
REMARK                            x       y       z     vdW  Elec       q    Type
REMARK                         _______ _______ _______ _____ _____    ______ ____
ROOT
ATOM      1  O   UNL     1      34.318  -9.892 -24.214  0.00  0.00    -0.356 OA
ATOM      2  O   UNL     1      29.290  -5.922 -20.920  0.00  0.00    -0.270 OA
ATOM      3  O   UNL     1      31.916  -3.194 -23.497  0.00  0.00    -0.270 OA
ATOM      4  N   UNL     1      31.547  -9.938 -22.526  0.00  0.00    -0.286 N 
ATOM      5  N   UNL     1      34.890  -7.049 -24.514  0.00  0.00    -0.283 N 
ATOM      6  N   UNL     1      30.376  -4.250 -22.117  0.00  0.00    -0.248 N 
ATOM      7  C   UNL     1      33.834 -11.178 -24.614  0.00  0.00    +0.096 C 
ATOM      8  C   UNL     1      32.983 -11.779 -23.476  0.00  0.00    +0.049 C 
ATOM      9  C   UNL     1      31.582 -11.191 -23.258  0.00  0.00    +0.098 C 
ATOM     10  C   UNL     1      31.315  -7.765 -22.100  0.00  0.00    +0.021 C 
ATOM     11  C   UNL     1      31.624  -9.807 -21.153  0.00  0.00    +0.052 C 
ATOM     12  C   UNL     1      31.484  -8.445 -20.859  0.00  0.00    +0.015 C 
ATOM     13  C   UNL     1      31.197  -6.363 -22.317  0.00  0.00    +0.059 C 
ATOM     14  C   UNL     1      33.075  -5.931 -23.893  0.00  0.00    +0.021 C 
ATOM     15  C   UNL     1      31.335  -8.713 -23.103  0.00  0.00    +0.066 C 
ATOM     16  C   UNL     1      31.953  -5.567 -23.098  0.00  0.00    +0.059 C 
ATOM     17  C   UNL     1      35.911  -8.085 -24.474  0.00  0.00    +0.128 C 
ATOM     18  C   UNL     1      33.350  -5.610 -25.256  0.00  0.00    +0.015 C 
ATOM     19  C   UNL     1      34.509  -6.315 -25.617  0.00  0.00    +0.052 C 
ATOM     20  C   UNL     1      35.394  -9.411 -25.028  0.00  0.00    +0.164 C 
ATOM     21  C   UNL     1      34.087  -6.752 -23.447  0.00  0.00    +0.066 C 
ATOM     22  C   UNL     1      30.159  -5.523 -21.677  0.00  0.00    +0.252 C 
ATOM     23  C   UNL     1      31.809 -10.768 -20.145  0.00  0.00    +0.015 C 
ATOM     24  C   UNL     1      31.442  -4.183 -22.965  0.00  0.00    +0.252 C 
ATOM     25  C   UNL     1      31.557  -8.032 -19.510  0.00  0.00    +0.001 C 
ATOM     26  C   UNL     1      32.708  -4.827 -26.241  0.00  0.00    +0.001 C 
ATOM     27  C   UNL     1      35.055  -6.243 -26.907  0.00  0.00    +0.015 C 
ATOM     28  C   UNL     1      31.865 -10.334 -18.818  0.00  0.00    +0.001 C 
ATOM     29  C   UNL     1      31.743  -8.986 -18.503  0.00  0.00    +0.000 C 
ATOM     30  C   UNL     1      33.252  -4.745 -27.527  0.00  0.00    +0.000 C 
ATOM     31  C   UNL     1      34.411  -5.441 -27.853  0.00  0.00    +0.001 C 
ATOM     32  H   UNL     1      29.829  -3.474 -21.854  0.00  0.00    +0.158 HD
ENDROOT
BRANCH   7  33
ATOM     33  C   UNL     1      33.073 -11.108 -25.937  0.00  0.00    -0.047 C 
BRANCH  33  34
ATOM     34  N   UNL     1      33.450 -12.207 -26.811  0.00  0.00    +0.386 N 
ATOM     35  C   UNL     1      33.230 -13.495 -26.149  0.00  0.00    -0.101 C 
ATOM     36  C   UNL     1      34.851 -12.085 -27.225  0.00  0.00    -0.101 C 
ATOM     37  H   UNL     1      32.861 -12.164 -27.643  0.00  0.00    -0.080 HD
ENDBRANCH  33  34
ENDBRANCH   7  33
TORSDOF 2
ENDMDL
MODEL 3
REMARK VINA RESULT:       0.6      1.217      1.651
REMARK  Name = 153999
REMARK  2 active torsions:
REMARK  status: ('A' for Active; 'I' for Inactive)
REMARK    1  A    between atoms: C_7  and  C_33
REMARK    2  A    between atoms: C_33  and  N_34
REMARK                            x       y       z     vdW  Elec       q    Type
REMARK                         _______ _______ _______ _____ _____    ______ ____
ROOT
ATOM      1  O   UNL     1      31.151 -11.978 -21.802  0.00  0.00    -0.356 OA
ATOM      2  O   UNL     1      36.482 -10.668 -26.466  0.00  0.00    -0.270 OA
ATOM      3  O   UNL     1      34.474  -6.714 -25.319  0.00  0.00    -0.270 OA
ATOM      4  N   UNL     1      33.763 -13.191 -23.297  0.00  0.00    -0.286 N 
ATOM      5  N   UNL     1      31.032  -9.226 -22.755  0.00  0.00    -0.283 N 
ATOM      6  N   UNL     1      35.743  -8.493 -26.107  0.00  0.00    -0.248 N 
ATOM      7  C   UNL     1      31.462 -13.034 -20.887  0.00  0.00    +0.096 C 
ATOM      8  C   UNL     1      32.135 -14.192 -21.653  0.00  0.00    +0.049 C 
ATOM      9  C   UNL     1      33.591 -13.991 -22.097  0.00  0.00    +0.098 C 
ATOM     10  C   UNL     1      34.289 -11.475 -24.614  0.00  0.00    +0.021 C 
ATOM     11  C   UNL     1      33.614 -13.646 -24.594  0.00  0.00    +0.052 C 
ATOM     12  C   UNL     1      33.936 -12.580 -25.444  0.00  0.00    +0.015 C 
ATOM     13  C   UNL     1      34.630 -10.154 -25.020  0.00  0.00    +0.059 C 
ATOM     14  C   UNL     1      32.949  -8.793 -23.790  0.00  0.00    +0.021 C 
ATOM     15  C   UNL     1      34.195 -11.890 -23.302  0.00  0.00    +0.066 C 
ATOM     16  C   UNL     1      34.056  -8.990 -24.660  0.00  0.00    +0.059 C 
ATOM     17  C   UNL     1      29.867  -9.998 -22.350  0.00  0.00    +0.128 C 
ATOM     18  C   UNL     1      32.817  -7.883 -22.698  0.00  0.00    +0.015 C 
ATOM     19  C   UNL     1      31.593  -8.167 -22.074  0.00  0.00    +0.052 C 
ATOM     20  C   UNL     1      30.217 -11.028 -21.278  0.00  0.00    +0.164 C 
ATOM     21  C   UNL     1      31.797  -9.547 -23.844  0.00  0.00    +0.066 C 
ATOM     22  C   UNL     1      35.736  -9.849 -25.956  0.00  0.00    +0.252 C 
ATOM     23  C   UNL     1      33.219 -14.899 -25.091  0.00  0.00    +0.015 C 
ATOM     24  C   UNL     1      34.758  -7.898 -25.374  0.00  0.00    +0.252 C 
ATOM     25  C   UNL     1      33.835 -12.773 -26.840  0.00  0.00    +0.001 C 
ATOM     26  C   UNL     1      33.634  -6.874 -22.143  0.00  0.00    +0.001 C 
ATOM     27  C   UNL     1      31.152  -7.466 -20.941  0.00  0.00    +0.015 C 
ATOM     28  C   UNL     1      33.140 -15.065 -26.476  0.00  0.00    +0.001 C 
ATOM     29  C   UNL     1      33.441 -14.019 -27.339  0.00  0.00    +0.000 C 
ATOM     30  C   UNL     1      33.197  -6.165 -21.019  0.00  0.00    +0.000 C 
ATOM     31  C   UNL     1      31.971  -6.456 -20.430  0.00  0.00    +0.001 C 
ATOM     32  H   UNL     1      36.381  -8.003 -26.676  0.00  0.00    +0.158 HD
ENDROOT
BRANCH   7  33
ATOM     33  C   UNL     1      32.313 -12.535 -19.720  0.00  0.00    -0.047 C 
BRANCH  33  34
ATOM     34  N   UNL     1      31.748 -11.322 -19.149  0.00  0.00    +0.386 N 
ATOM     35  C   UNL     1      32.688 -10.204 -19.273  0.00  0.00    -0.101 C 
ATOM     36  C   UNL     1      31.391 -11.527 -17.743  0.00  0.00    -0.101 C 
ATOM     37  H   UNL     1      30.902 -11.093 -19.669  0.00  0.00    -0.080 HD
ENDBRANCH  33  34
ENDBRANCH   7  33
TORSDOF 2
ENDMDL
MODEL 4
REMARK VINA RESULT:       1.2      1.988      5.713
REMARK  Name = 153999
REMARK  2 active torsions:
REMARK  status: ('A' for Active; 'I' for Inactive)
REMARK    1  A    between atoms: C_7  and  C_33
REMARK    2  A    between atoms: C_33  and  N_34
REMARK                            x       y       z     vdW  Elec       q    Type
REMARK                         _______ _______ _______ _____ _____    ______ ____
ROOT
ATOM      1  O   UNL     1      34.398 -11.597 -24.963  0.00  0.00    -0.356 OA
ATOM      2  O   UNL     1      30.128 -10.868 -19.208  0.00  0.00    -0.270 OA
ATOM      3  O   UNL     1      31.989  -6.809 -20.230  0.00  0.00    -0.270 OA
ATOM      4  N   UNL     1      32.096 -12.979 -23.141  0.00  0.00    -0.286 N 
ATOM      5  N   UNL     1      34.784  -8.990 -23.718  0.00  0.00    -0.283 N 
ATOM      6  N   UNL     1      30.847  -8.669 -19.433  0.00  0.00    -0.248 N 
ATOM      7  C   UNL     1      33.882 -12.526 -25.922  0.00  0.00    +0.096 C 
ATOM      8  C   UNL     1      33.338 -13.769 -25.188  0.00  0.00    +0.049 C 
ATOM      9  C   UNL     1      32.005 -13.619 -24.442  0.00  0.00    +0.098 C 
ATOM     10  C   UNL     1      31.890 -11.442 -21.543  0.00  0.00    +0.021 C 
ATOM     11  C   UNL     1      32.482 -13.596 -21.967  0.00  0.00    +0.052 C 
ATOM     12  C   UNL     1      32.365 -12.646 -20.944  0.00  0.00    +0.015 C 
ATOM     13  C   UNL     1      31.675 -10.183 -20.917  0.00  0.00    +0.059 C 
ATOM     14  C   UNL     1      33.122  -8.683 -22.277  0.00  0.00    +0.021 C 
ATOM     15  C   UNL     1      31.712 -11.687 -22.889  0.00  0.00    +0.066 C 
ATOM     16  C   UNL     1      32.202  -8.985 -21.236  0.00  0.00    +0.059 C 
ATOM     17  C   UNL     1      35.823  -9.709 -24.439  0.00  0.00    +0.128 C 
ATOM     18  C   UNL     1      33.064  -7.642 -23.252  0.00  0.00    +0.015 C 
ATOM     19  C   UNL     1      34.132  -7.850 -24.138  0.00  0.00    +0.052 C 
ATOM     20  C   UNL     1      35.239 -10.592 -25.540  0.00  0.00    +0.164 C 
ATOM     21  C   UNL     1      34.238  -9.443 -22.548  0.00  0.00    +0.066 C 
ATOM     22  C   UNL     1      30.784  -9.995 -19.749  0.00  0.00    +0.252 C 
ATOM     23  C   UNL     1      32.930 -14.904 -21.718  0.00  0.00    +0.015 C 
ATOM     24  C   UNL     1      31.686  -7.990 -20.267  0.00  0.00    +0.252 C 
ATOM     25  C   UNL     1      32.733 -13.016 -19.631  0.00  0.00    +0.001 C 
ATOM     26  C   UNL     1      32.184  -6.566 -23.504  0.00  0.00    +0.001 C 
ATOM     27  C   UNL     1      34.363  -7.012 -25.239  0.00  0.00    +0.015 C 
ATOM     28  C   UNL     1      33.274 -15.246 -20.408  0.00  0.00    +0.001 C 
ATOM     29  C   UNL     1      33.180 -14.318 -19.379  0.00  0.00    +0.000 C 
ATOM     30  C   UNL     1      32.413  -5.722 -24.596  0.00  0.00    +0.000 C 
ATOM     31  C   UNL     1      33.490  -5.941 -25.448  0.00  0.00    +0.001 C 
ATOM     32  H   UNL     1      30.348  -8.253 -18.693  0.00  0.00    +0.158 HD
ENDROOT
BRANCH   7  33
ATOM     33  C   UNL     1      32.834 -11.877 -26.826  0.00  0.00    -0.047 C 
BRANCH  33  34
ATOM     34  N   UNL     1      32.416 -12.793 -27.875  0.00  0.00    +0.386 N 
ATOM     35  C   UNL     1      31.075 -13.318 -27.601  0.00  0.00    -0.101 C 
ATOM     36  C   UNL     1      33.371 -13.895 -28.015  0.00  0.00    -0.101 C 
ATOM     37  H   UNL     1      32.388 -12.274 -28.753  0.00  0.00    -0.080 HD
ENDBRANCH  33  34
ENDBRANCH   7  33
TORSDOF 2
ENDMDL
