MODEL 1
REMARK VINA RESULT:      -3.9      0.000      0.000
REMARK  Name = 439196
REMARK  7 active torsions:
REMARK  status: ('A' for Active; 'I' for Inactive)
REMARK    1  A    between atoms: C_1  and  O_2
REMARK    2  A    between atoms: C_1  and  C_4
REMARK    3  A    between atoms: C_1  and  C_10
REMARK    4  A    between atoms: C_4  and  O_5
REMARK    5  A    between atoms: C_4  and  C_7
REMARK    6  A    between atoms: C_7  and  S_8
REMARK    7  A    between atoms: C_10  and  S_11
REMARK                            x       y       z     vdW  Elec       q    Type
REMARK                         _______ _______ _______ _____ _____    ______ ____
ROOT
ATOM      1  C   UNL     1      37.225 -25.645 -13.531  0.00  0.00    +0.148 C 
ENDROOT
BRANCH   1   2
ATOM      2  O   UNL     1      36.815 -26.939 -13.090  0.00  0.00    -0.381 OA
ATOM      3  H   UNL     1      37.371 -27.614 -13.509  0.00  0.00    +0.210 HD
ENDBRANCH   1   2
BRANCH   1   4
ATOM      4  C   UNL     1      36.844 -25.437 -15.011  0.00  0.00    +0.148 C 
BRANCH   4   5
ATOM      5  O   UNL     1      35.998 -26.515 -15.407  0.00  0.00    -0.381 OA
ATOM      6  H   UNL     1      35.674 -26.978 -14.619  0.00  0.00    +0.210 HD
ENDBRANCH   4   5
BRANCH   4   7
ATOM      7  C   UNL     1      36.104 -24.109 -15.226  0.00  0.00    +0.085 C 
BRANCH   7   8
ATOM      8  S   UNL     1      37.242 -22.796 -15.774  0.00  0.00    -0.165 S 
ATOM      9  H   UNL     1      38.451 -22.963 -15.173  0.00  0.00    +0.102 HD
ENDBRANCH   7   8
ENDBRANCH   4   7
ENDBRANCH   1   4
BRANCH   1  10
ATOM     10  C   UNL     1      38.718 -25.477 -13.208  0.00  0.00    +0.085 C 
BRANCH  10  11
ATOM     11  S   UNL     1      39.815 -25.587 -14.659  0.00  0.00    -0.165 S 
ATOM     12  H   UNL     1      39.708 -26.824 -15.215  0.00  0.00    +0.102 HD
ENDBRANCH  10  11
ENDBRANCH   1  10
TORSDOF 7
ENDMDL
MODEL 2
REMARK VINA RESULT:      -3.9      2.330      2.815
REMARK  Name = 439196
REMARK  7 active torsions:
REMARK  status: ('A' for Active; 'I' for Inactive)
REMARK    1  A    between atoms: C_1  and  O_2
REMARK    2  A    between atoms: C_1  and  C_4
REMARK    3  A    between atoms: C_1  and  C_10
REMARK    4  A    between atoms: C_4  and  O_5
REMARK    5  A    between atoms: C_4  and  C_7
REMARK    6  A    between atoms: C_7  and  S_8
REMARK    7  A    between atoms: C_10  and  S_11
REMARK                            x       y       z     vdW  Elec       q    Type
REMARK                         _______ _______ _______ _____ _____    ______ ____
ROOT
ATOM      1  C   UNL     1      38.037 -25.520 -12.369  0.00  0.00    +0.148 C 
ENDROOT
BRANCH   1   2
ATOM      2  O   UNL     1      37.076 -26.481 -11.934  0.00  0.00    -0.381 OA
ATOM      3  H   UNL     1      37.279 -27.342 -12.330  0.00  0.00    +0.210 HD
ENDBRANCH   1   2
BRANCH   1   4
ATOM      4  C   UNL     1      37.547 -24.091 -12.055  0.00  0.00    +0.148 C 
BRANCH   4   5
ATOM      5  O   UNL     1      38.679 -23.306 -11.684  0.00  0.00    -0.381 OA
ATOM      6  H   UNL     1      38.404 -22.618 -11.058  0.00  0.00    +0.210 HD
ENDBRANCH   4   5
BRANCH   4   7
ATOM      7  C   UNL     1      36.860 -23.446 -13.266  0.00  0.00    +0.085 C 
BRANCH   7   8
ATOM      8  S   UNL     1      35.102 -23.915 -13.360  0.00  0.00    -0.165 S 
ATOM      9  H   UNL     1      34.757 -24.610 -12.243  0.00  0.00    +0.102 HD
ENDBRANCH   7   8
ENDBRANCH   4   7
ENDBRANCH   1   4
BRANCH   1  10
ATOM     10  C   UNL     1      38.356 -25.793 -13.847  0.00  0.00    +0.085 C 
BRANCH  10  11
ATOM     11  S   UNL     1      40.111 -25.575 -14.287  0.00  0.00    -0.165 S 
ATOM     12  H   UNL     1      40.873 -26.417 -13.539  0.00  0.00    +0.102 HD
ENDBRANCH  10  11
ENDBRANCH   1  10
TORSDOF 7
ENDMDL
MODEL 3
REMARK VINA RESULT:      -3.9      2.397      3.697
REMARK  Name = 439196
REMARK  7 active torsions:
REMARK  status: ('A' for Active; 'I' for Inactive)
REMARK    1  A    between atoms: C_1  and  O_2
REMARK    2  A    between atoms: C_1  and  C_4
REMARK    3  A    between atoms: C_1  and  C_10
REMARK    4  A    between atoms: C_4  and  O_5
REMARK    5  A    between atoms: C_4  and  C_7
REMARK    6  A    between atoms: C_7  and  S_8
REMARK    7  A    between atoms: C_10  and  S_11
REMARK                            x       y       z     vdW  Elec       q    Type
REMARK                         _______ _______ _______ _____ _____    ______ ____
ROOT
ATOM      1  C   UNL     1      37.555 -24.097 -12.023  0.00  0.00    +0.148 C 
ENDROOT
BRANCH   1   2
ATOM      2  O   UNL     1      38.636 -23.225 -11.694  0.00  0.00    -0.381 OA
ATOM      3  H   UNL     1      39.175 -23.065 -12.484  0.00  0.00    +0.210 HD
ENDBRANCH   1   2
BRANCH   1   4
ATOM      4  C   UNL     1      38.086 -25.502 -12.371  0.00  0.00    +0.148 C 
BRANCH   4   5
ATOM      5  O   UNL     1      37.124 -26.460 -11.935  0.00  0.00    -0.381 OA
ATOM      6  H   UNL     1      37.245 -26.634 -10.988  0.00  0.00    +0.210 HD
ENDBRANCH   4   5
BRANCH   4   7
ATOM      7  C   UNL     1      38.315 -25.667 -13.879  0.00  0.00    +0.085 C 
BRANCH   7   8
ATOM      8  S   UNL     1      40.086 -25.577 -14.296  0.00  0.00    -0.165 S 
ATOM      9  H   UNL     1      40.289 -24.585 -15.204  0.00  0.00    +0.102 HD
ENDBRANCH   7   8
ENDBRANCH   4   7
ENDBRANCH   1   4
BRANCH   1  10
ATOM     10  C   UNL     1      36.711 -23.425 -13.117  0.00  0.00    +0.085 C 
BRANCH  10  11
ATOM     11  S   UNL     1      34.974 -23.972 -13.164  0.00  0.00    -0.165 S 
ATOM     12  H   UNL     1      34.928 -25.322 -13.318  0.00  0.00    +0.102 HD
ENDBRANCH  10  11
ENDBRANCH   1  10
TORSDOF 7
ENDMDL
MODEL 4
REMARK VINA RESULT:      -3.9      2.193      3.497
REMARK  Name = 439196
REMARK  7 active torsions:
REMARK  status: ('A' for Active; 'I' for Inactive)
REMARK    1  A    between atoms: C_1  and  O_2
REMARK    2  A    between atoms: C_1  and  C_4
REMARK    3  A    between atoms: C_1  and  C_10
REMARK    4  A    between atoms: C_4  and  O_5
REMARK    5  A    between atoms: C_4  and  C_7
REMARK    6  A    between atoms: C_7  and  S_8
REMARK    7  A    between atoms: C_10  and  S_11
REMARK                            x       y       z     vdW  Elec       q    Type
REMARK                         _______ _______ _______ _____ _____    ______ ____
ROOT
ATOM      1  C   UNL     1      37.687 -24.055 -14.927  0.00  0.00    +0.148 C 
ENDROOT
BRANCH   1   2
ATOM      2  O   UNL     1      38.884 -23.822 -15.667  0.00  0.00    -0.381 OA
ATOM      3  H   UNL     1      39.642 -24.177 -15.177  0.00  0.00    +0.210 HD
ENDBRANCH   1   2
BRANCH   1   4
ATOM      4  C   UNL     1      37.441 -25.569 -14.767  0.00  0.00    +0.148 C 
BRANCH   4   5
ATOM      5  O   UNL     1      38.491 -26.262 -15.439  0.00  0.00    -0.381 OA
ATOM      6  H   UNL     1      38.263 -26.366 -16.376  0.00  0.00    +0.210 HD
ENDBRANCH   4   5
BRANCH   4   7
ATOM      7  C   UNL     1      37.422 -25.990 -13.291  0.00  0.00    +0.085 C 
BRANCH   7   8
ATOM      8  S   UNL     1      37.899 -24.611 -12.201  0.00  0.00    -0.165 S 
ATOM      9  H   UNL     1      37.356 -23.455 -12.667  0.00  0.00    +0.102 HD
ENDBRANCH   7   8
ENDBRANCH   4   7
ENDBRANCH   1   4
BRANCH   1  10
ATOM     10  C   UNL     1      36.547 -23.272 -15.596  0.00  0.00    +0.085 C 
BRANCH  10  11
ATOM     11  S   UNL     1      37.101 -21.877 -16.628  0.00  0.00    -0.165 S 
ATOM     12  H   UNL     1      36.374 -20.770 -16.321  0.00  0.00    +0.102 HD
ENDBRANCH  10  11
ENDBRANCH   1  10
TORSDOF 7
ENDMDL
MODEL 5
REMARK VINA RESULT:      -3.9      0.111      3.035
REMARK  Name = 439196
REMARK  7 active torsions:
REMARK  status: ('A' for Active; 'I' for Inactive)
REMARK    1  A    between atoms: C_1  and  O_2
REMARK    2  A    between atoms: C_1  and  C_4
REMARK    3  A    between atoms: C_1  and  C_10
REMARK    4  A    between atoms: C_4  and  O_5
REMARK    5  A    between atoms: C_4  and  C_7
REMARK    6  A    between atoms: C_7  and  S_8
REMARK    7  A    between atoms: C_10  and  S_11
REMARK                            x       y       z     vdW  Elec       q    Type
REMARK                         _______ _______ _______ _____ _____    ______ ____
ROOT
ATOM      1  C   UNL     1      36.794 -25.420 -14.941  0.00  0.00    +0.148 C 
ENDROOT
BRANCH   1   2
ATOM      2  O   UNL     1      36.001 -26.504 -15.421  0.00  0.00    -0.381 OA
ATOM      3  H   UNL     1      35.678 -27.026 -14.671  0.00  0.00    +0.210 HD
ENDBRANCH   1   2
BRANCH   1   4
ATOM      4  C   UNL     1      37.125 -25.618 -13.447  0.00  0.00    +0.148 C 
BRANCH   4   5
ATOM      5  O   UNL     1      36.803 -26.963 -13.096  0.00  0.00    -0.381 OA
ATOM      6  H   UNL     1      37.219 -27.570 -13.728  0.00  0.00    +0.210 HD
ENDBRANCH   4   5
BRANCH   4   7
ATOM      7  C   UNL     1      38.610 -25.361 -13.154  0.00  0.00    +0.085 C 
BRANCH   7   8
ATOM      8  S   UNL     1      39.633 -25.610 -14.640  0.00  0.00    -0.165 S 
ATOM      9  H   UNL     1      40.662 -24.721 -14.637  0.00  0.00    +0.102 HD
ENDBRANCH   7   8
ENDBRANCH   4   7
ENDBRANCH   1   4
BRANCH   1  10
ATOM     10  C   UNL     1      36.075 -24.106 -15.285  0.00  0.00    +0.085 C 
BRANCH  10  11
ATOM     11  S   UNL     1      37.188 -22.748 -15.769  0.00  0.00    -0.165 S 
ATOM     12  H   UNL     1      38.454 -23.227 -15.908  0.00  0.00    +0.102 HD
ENDBRANCH  10  11
ENDBRANCH   1  10
TORSDOF 7
ENDMDL
MODEL 6
REMARK VINA RESULT:      -3.8      3.161      4.266
REMARK  Name = 439196
REMARK  7 active torsions:
REMARK  status: ('A' for Active; 'I' for Inactive)
REMARK    1  A    between atoms: C_1  and  O_2
REMARK    2  A    between atoms: C_1  and  C_4
REMARK    3  A    between atoms: C_1  and  C_10
REMARK    4  A    between atoms: C_4  and  O_5
REMARK    5  A    between atoms: C_4  and  C_7
REMARK    6  A    between atoms: C_7  and  S_8
REMARK    7  A    between atoms: C_10  and  S_11
REMARK                            x       y       z     vdW  Elec       q    Type
REMARK                         _______ _______ _______ _____ _____    ______ ____
ROOT
ATOM      1  C   UNL     1      35.858 -24.606 -11.889  0.00  0.00    +0.148 C 
ENDROOT
BRANCH   1   2
ATOM      2  O   UNL     1      35.386 -24.989 -10.598  0.00  0.00    -0.381 OA
ATOM      3  H   UNL     1      35.495 -24.249  -9.981  0.00  0.00    +0.210 HD
ENDBRANCH   1   2
BRANCH   1   4
ATOM      4  C   UNL     1      36.953 -23.528 -11.761  0.00  0.00    +0.148 C 
BRANCH   4   5
ATOM      5  O   UNL     1      36.955 -23.054 -10.416  0.00  0.00    -0.381 OA
ATOM      6  H   UNL     1      37.019 -23.807  -9.808  0.00  0.00    +0.210 HD
ENDBRANCH   4   5
BRANCH   4   7
ATOM      7  C   UNL     1      38.343 -24.085 -12.102  0.00  0.00    +0.085 C 
BRANCH   7   8
ATOM      8  S   UNL     1      38.224 -25.685 -12.964  0.00  0.00    -0.165 S 
ATOM      9  H   UNL     1      37.472 -26.544 -12.225  0.00  0.00    +0.102 HD
ENDBRANCH   7   8
ENDBRANCH   4   7
ENDBRANCH   1   4
BRANCH   1  10
ATOM     10  C   UNL     1      34.646 -24.212 -12.747  0.00  0.00    +0.085 C 
BRANCH  10  11
ATOM     11  S   UNL     1      35.017 -24.016 -14.521  0.00  0.00    -0.165 S 
ATOM     12  H   UNL     1      33.858 -24.049 -15.232  0.00  0.00    +0.102 HD
ENDBRANCH  10  11
ENDBRANCH   1  10
TORSDOF 7
ENDMDL
MODEL 7
REMARK VINA RESULT:      -3.8      3.128      3.343
REMARK  Name = 439196
REMARK  7 active torsions:
REMARK  status: ('A' for Active; 'I' for Inactive)
REMARK    1  A    between atoms: C_1  and  O_2
REMARK    2  A    between atoms: C_1  and  C_4
REMARK    3  A    between atoms: C_1  and  C_10
REMARK    4  A    between atoms: C_4  and  O_5
REMARK    5  A    between atoms: C_4  and  C_7
REMARK    6  A    between atoms: C_7  and  S_8
REMARK    7  A    between atoms: C_10  and  S_11
REMARK                            x       y       z     vdW  Elec       q    Type
REMARK                         _______ _______ _______ _____ _____    ______ ____
ROOT
ATOM      1  C   UNL     1      36.965 -23.661 -11.835  0.00  0.00    +0.148 C 
ENDROOT
BRANCH   1   2
ATOM      2  O   UNL     1      36.991 -23.090 -10.529  0.00  0.00    -0.381 OA
ATOM      3  H   UNL     1      36.166 -23.302 -10.066  0.00  0.00    +0.210 HD
ENDBRANCH   1   2
BRANCH   1   4
ATOM      4  C   UNL     1      35.828 -24.698 -11.945  0.00  0.00    +0.148 C 
BRANCH   4   5
ATOM      5  O   UNL     1      35.381 -25.006 -10.626  0.00  0.00    -0.381 OA
ATOM      6  H   UNL     1      34.625 -25.612 -10.674  0.00  0.00    +0.210 HD
ENDBRANCH   4   5
BRANCH   4   7
ATOM      7  C   UNL     1      34.647 -24.163 -12.767  0.00  0.00    +0.085 C 
BRANCH   7   8
ATOM      8  S   UNL     1      34.916 -24.407 -14.552  0.00  0.00    -0.165 S 
ATOM      9  H   UNL     1      35.136 -23.204 -15.147  0.00  0.00    +0.102 HD
ENDBRANCH   7   8
ENDBRANCH   4   7
ENDBRANCH   1   4
BRANCH   1  10
ATOM     10  C   UNL     1      38.371 -24.193 -12.157  0.00  0.00    +0.085 C 
BRANCH  10  11
ATOM     11  S   UNL     1      38.387 -25.661 -13.237  0.00  0.00    -0.165 S 
ATOM     12  H   UNL     1      37.189 -26.298 -13.153  0.00  0.00    +0.102 HD
ENDBRANCH  10  11
ENDBRANCH   1  10
TORSDOF 7
ENDMDL
MODEL 8
REMARK VINA RESULT:      -3.8      2.074      2.318
REMARK  Name = 439196
REMARK  7 active torsions:
REMARK  status: ('A' for Active; 'I' for Inactive)
REMARK    1  A    between atoms: C_1  and  O_2
REMARK    2  A    between atoms: C_1  and  C_4
REMARK    3  A    between atoms: C_1  and  C_10
REMARK    4  A    between atoms: C_4  and  O_5
REMARK    5  A    between atoms: C_4  and  C_7
REMARK    6  A    between atoms: C_7  and  S_8
REMARK    7  A    between atoms: C_10  and  S_11
REMARK                            x       y       z     vdW  Elec       q    Type
REMARK                         _______ _______ _______ _____ _____    ______ ____
ROOT
ATOM      1  C   UNL     1      37.122 -25.351 -14.709  0.00  0.00    +0.148 C 
ENDROOT
BRANCH   1   2
ATOM      2  O   UNL     1      37.737 -26.190 -15.685  0.00  0.00    -0.381 OA
ATOM      3  H   UNL     1      37.068 -26.768 -16.082  0.00  0.00    +0.210 HD
ENDBRANCH   1   2
BRANCH   1   4
ATOM      4  C   UNL     1      37.488 -23.874 -14.962  0.00  0.00    +0.148 C 
BRANCH   4   5
ATOM      5  O   UNL     1      38.709 -23.841 -15.698  0.00  0.00    -0.381 OA
ATOM      6  H   UNL     1      38.818 -22.967 -16.106  0.00  0.00    +0.210 HD
ENDBRANCH   4   5
BRANCH   4   7
ATOM      7  C   UNL     1      36.397 -23.147 -15.761  0.00  0.00    +0.085 C 
BRANCH   7   8
ATOM      8  S   UNL     1      37.098 -21.796 -16.762  0.00  0.00    -0.165 S 
ATOM      9  H   UNL     1      38.455 -21.871 -16.741  0.00  0.00    +0.102 HD
ENDBRANCH   7   8
ENDBRANCH   4   7
ENDBRANCH   1   4
BRANCH   1  10
ATOM     10  C   UNL     1      37.485 -25.887 -13.315  0.00  0.00    +0.085 C 
BRANCH  10  11
ATOM     11  S   UNL     1      37.950 -24.597 -12.115  0.00  0.00    -0.165 S 
ATOM     12  H   UNL     1      39.047 -23.932 -12.566  0.00  0.00    +0.102 HD
ENDBRANCH  10  11
ENDBRANCH   1  10
TORSDOF 7
ENDMDL
MODEL 9
REMARK VINA RESULT:      -3.8     11.015     12.327
REMARK  Name = 439196
REMARK  7 active torsions:
REMARK  status: ('A' for Active; 'I' for Inactive)
REMARK    1  A    between atoms: C_1  and  O_2
REMARK    2  A    between atoms: C_1  and  C_4
REMARK    3  A    between atoms: C_1  and  C_10
REMARK    4  A    between atoms: C_4  and  O_5
REMARK    5  A    between atoms: C_4  and  C_7
REMARK    6  A    between atoms: C_7  and  S_8
REMARK    7  A    between atoms: C_10  and  S_11
REMARK                            x       y       z     vdW  Elec       q    Type
REMARK                         _______ _______ _______ _____ _____    ______ ____
ROOT
ATOM      1  C   UNL     1      35.383 -18.370 -23.444  0.00  0.00    +0.148 C 
ENDROOT
BRANCH   1   2
ATOM      2  O   UNL     1      36.633 -18.147 -22.794  0.00  0.00    -0.381 OA
ATOM      3  H   UNL     1      36.986 -17.284 -23.059  0.00  0.00    +0.210 HD
ENDBRANCH   1   2
BRANCH   1   4
ATOM      4  C   UNL     1      34.719 -17.025 -23.805  0.00  0.00    +0.148 C 
BRANCH   4   5
ATOM      5  O   UNL     1      35.648 -15.981 -23.520  0.00  0.00    -0.381 OA
ATOM      6  H   UNL     1      35.232 -15.122 -23.692  0.00  0.00    +0.210 HD
ENDBRANCH   4   5
BRANCH   4   7
ATOM      7  C   UNL     1      34.328 -16.963 -25.288  0.00  0.00    +0.085 C 
BRANCH   7   8
ATOM      8  S   UNL     1      33.466 -15.408 -25.683  0.00  0.00    -0.165 S 
ATOM      9  H   UNL     1      32.743 -15.003 -24.604  0.00  0.00    +0.102 HD
ENDBRANCH   7   8
ENDBRANCH   4   7
ENDBRANCH   1   4
BRANCH   1  10
ATOM     10  C   UNL     1      34.539 -19.302 -22.561  0.00  0.00    +0.085 C 
BRANCH  10  11
ATOM     11  S   UNL     1      35.309 -19.718 -20.963  0.00  0.00    -0.165 S 
ATOM     12  H   UNL     1      35.670 -21.029 -20.963  0.00  0.00    +0.102 HD
ENDBRANCH  10  11
ENDBRANCH   1  10
TORSDOF 7
ENDMDL
