MODEL 1
REMARK VINA RESULT:      -8.6      0.000      0.000
REMARK  Name = 2725
REMARK  5 active torsions:
REMARK  status: ('A' for Active; 'I' for Inactive)
REMARK    1  A    between atoms: C_1  and  C_3
REMARK    2  A    between atoms: C_1  and  C_10
REMARK    3  A    between atoms: C_1  and  C_15
REMARK    4  A    between atoms: C_15  and  C_16
REMARK    5  A    between atoms: C_16  and  N_17
REMARK                            x       y       z     vdW  Elec       q    Type
REMARK                         _______ _______ _______ _____ _____    ______ ____
ROOT
ATOM      1  C   UNL     1      35.342 -17.751 -21.514  0.00  0.00    +0.060 C 
ENDROOT
BRANCH   1   3
ATOM      2 CL   UNL     1      33.814 -22.951 -18.937  0.00  0.00    -0.082 Cl
ATOM      3  C   UNL     1      34.953 -19.073 -20.859  0.00  0.00    -0.017 C 
ATOM      4  C   UNL     1      33.616 -19.377 -20.720  0.00  0.00    -0.003 C 
ATOM      5  C   UNL     1      35.952 -19.918 -20.429  0.00  0.00    -0.003 C 
ATOM      6  C   UNL     1      33.261 -20.586 -20.123  0.00  0.00    +0.011 C 
ATOM      7  C   UNL     1      35.598 -21.127 -19.831  0.00  0.00    +0.011 C 
ATOM      8  C   UNL     1      34.252 -21.462 -19.677  0.00  0.00    +0.058 C 
ENDBRANCH   1   3
BRANCH   1  10
ATOM      9  N   UNL     1      35.130 -16.572 -23.620  0.00  0.00    -0.248 NA
ATOM     10  C   UNL     1      35.015 -17.755 -23.002  0.00  0.00    +0.063 C 
ATOM     11  C   UNL     1      34.636 -18.939 -23.579  0.00  0.00    +0.015 C 
ATOM     12  C   UNL     1      34.344 -18.909 -24.938  0.00  0.00    +0.003 C 
ATOM     13  C   UNL     1      34.838 -16.581 -24.939  0.00  0.00    +0.098 C 
ATOM     14  C   UNL     1      34.444 -17.711 -25.639  0.00  0.00    +0.021 C 
ENDBRANCH   1  10
BRANCH   1  15
ATOM     15  C   UNL     1      34.792 -16.512 -20.759  0.00  0.00    -0.012 C 
BRANCH  15  16
ATOM     16  C   UNL     1      33.415 -16.075 -21.271  0.00  0.00    -0.077 C 
BRANCH  16  17
ATOM     17  N   UNL     1      33.402 -14.637 -21.515  0.00  0.00    +0.384 N 
ATOM     18  C   UNL     1      32.732 -13.935 -20.420  0.00  0.00    -0.101 C 
ATOM     19  C   UNL     1      32.744 -14.337 -22.789  0.00  0.00    -0.101 C 
ATOM     20  H   UNL     1      34.367 -14.313 -21.566  0.00  0.00    -0.080 HD
ENDBRANCH  16  17
ENDBRANCH  15  16
ENDBRANCH   1  15
TORSDOF 5
ENDMDL
MODEL 2
REMARK VINA RESULT:      -8.6      6.562      9.822
REMARK  Name = 2725
REMARK  5 active torsions:
REMARK  status: ('A' for Active; 'I' for Inactive)
REMARK    1  A    between atoms: C_1  and  C_3
REMARK    2  A    between atoms: C_1  and  C_10
REMARK    3  A    between atoms: C_1  and  C_15
REMARK    4  A    between atoms: C_15  and  C_16
REMARK    5  A    between atoms: C_16  and  N_17
REMARK                            x       y       z     vdW  Elec       q    Type
REMARK                         _______ _______ _______ _____ _____    ______ ____
ROOT
ATOM      1  C   UNL     1      34.169 -23.977 -15.573  0.00  0.00    +0.060 C 
ENDROOT
BRANCH   1   3
ATOM      2 CL   UNL     1      36.534 -20.688 -20.002  0.00  0.00    -0.082 Cl
ATOM      3  C   UNL     1      34.771 -23.141 -16.699  0.00  0.00    -0.017 C 
ATOM      4  C   UNL     1      36.036 -22.620 -16.536  0.00  0.00    -0.003 C 
ATOM      5  C   UNL     1      34.028 -22.936 -17.841  0.00  0.00    -0.003 C 
ATOM      6  C   UNL     1      36.586 -21.856 -17.565  0.00  0.00    +0.011 C 
ATOM      7  C   UNL     1      34.578 -22.172 -18.871  0.00  0.00    +0.011 C 
ATOM      8  C   UNL     1      35.857 -21.632 -18.733  0.00  0.00    +0.058 C 
ENDBRANCH   1   3
BRANCH   1  10
ATOM      9  N   UNL     1      35.874 -25.696 -15.498  0.00  0.00    -0.248 NA
ATOM     10  C   UNL     1      35.249 -24.732 -14.809  0.00  0.00    +0.063 C 
ATOM     11  C   UNL     1      35.490 -24.376 -13.507  0.00  0.00    +0.015 C 
ATOM     12  C   UNL     1      36.481 -25.085 -12.838  0.00  0.00    +0.003 C 
ATOM     13  C   UNL     1      36.831 -26.363 -14.814  0.00  0.00    +0.098 C 
ATOM     14  C   UNL     1      37.169 -26.099 -13.496  0.00  0.00    +0.021 C 
ENDBRANCH   1  10
BRANCH   1  15
ATOM     15  C   UNL     1      33.210 -23.169 -14.661  0.00  0.00    -0.012 C 
BRANCH  15  16
ATOM     16  C   UNL     1      31.943 -23.954 -14.301  0.00  0.00    -0.077 C 
BRANCH  16  17
ATOM     17  N   UNL     1      31.160 -24.224 -15.502  0.00  0.00    +0.384 N 
ATOM     18  C   UNL     1      30.626 -22.981 -16.058  0.00  0.00    -0.101 C 
ATOM     19  C   UNL     1      30.071 -25.158 -15.207  0.00  0.00    -0.101 C 
ATOM     20  H   UNL     1      31.774 -24.652 -16.194  0.00  0.00    -0.080 HD
ENDBRANCH  16  17
ENDBRANCH  15  16
ENDBRANCH   1  15
TORSDOF 5
ENDMDL
MODEL 3
REMARK VINA RESULT:      -8.4      3.072      5.018
REMARK  Name = 2725
REMARK  5 active torsions:
REMARK  status: ('A' for Active; 'I' for Inactive)
REMARK    1  A    between atoms: C_1  and  C_3
REMARK    2  A    between atoms: C_1  and  C_10
REMARK    3  A    between atoms: C_1  and  C_15
REMARK    4  A    between atoms: C_15  and  C_16
REMARK    5  A    between atoms: C_16  and  N_17
REMARK                            x       y       z     vdW  Elec       q    Type
REMARK                         _______ _______ _______ _____ _____    ______ ____
ROOT
ATOM      1  C   UNL     1      33.506 -13.298 -22.891  0.00  0.00    +0.060 C 
ENDROOT
BRANCH   1   3
ATOM      2 CL   UNL     1      35.896 -18.490 -21.059  0.00  0.00    -0.082 Cl
ATOM      3  C   UNL     1      34.114 -14.618 -22.426  0.00  0.00    -0.017 C 
ATOM      4  C   UNL     1      34.715 -15.437 -23.357  0.00  0.00    -0.003 C 
ATOM      5  C   UNL     1      34.042 -14.946 -21.090  0.00  0.00    -0.003 C 
ATOM      6  C   UNL     1      35.271 -16.643 -22.931  0.00  0.00    +0.011 C 
ATOM      7  C   UNL     1      34.598 -16.152 -20.663  0.00  0.00    +0.011 C 
ATOM      8  C   UNL     1      35.213 -17.001 -21.584  0.00  0.00    +0.058 C 
ENDBRANCH   1   3
BRANCH   1  10
ATOM      9  N   UNL     1      32.797 -14.274 -24.992  0.00  0.00    -0.248 NA
ATOM     10  C   UNL     1      33.415 -13.238 -24.411  0.00  0.00    +0.063 C 
ATOM     11  C   UNL     1      33.961 -12.155 -25.050  0.00  0.00    +0.015 C 
ATOM     12  C   UNL     1      33.862 -12.131 -26.437  0.00  0.00    +0.003 C 
ATOM     13  C   UNL     1      32.720 -14.215 -26.340  0.00  0.00    +0.098 C 
ATOM     14  C   UNL     1      33.231 -13.176 -27.102  0.00  0.00    +0.021 C 
ENDBRANCH   1  10
BRANCH   1  15
ATOM     15  C   UNL     1      32.174 -12.955 -22.173  0.00  0.00    -0.012 C 
BRANCH  15  16
ATOM     16  C   UNL     1      31.788 -11.479 -22.329  0.00  0.00    -0.077 C 
BRANCH  16  17
ATOM     17  N   UNL     1      31.314 -10.946 -21.057  0.00  0.00    +0.384 N 
ATOM     18  C   UNL     1      31.827  -9.593 -20.842  0.00  0.00    -0.101 C 
ATOM     19  C   UNL     1      31.711 -11.822 -19.952  0.00  0.00    -0.101 C 
ATOM     20  H   UNL     1      30.295 -10.906 -21.087  0.00  0.00    -0.080 HD
ENDBRANCH  16  17
ENDBRANCH  15  16
ENDBRANCH   1  15
TORSDOF 5
ENDMDL
MODEL 4
REMARK VINA RESULT:      -8.2      6.859     10.316
REMARK  Name = 2725
REMARK  5 active torsions:
REMARK  status: ('A' for Active; 'I' for Inactive)
REMARK    1  A    between atoms: C_1  and  C_3
REMARK    2  A    between atoms: C_1  and  C_10
REMARK    3  A    between atoms: C_1  and  C_15
REMARK    4  A    between atoms: C_15  and  C_16
REMARK    5  A    between atoms: C_16  and  N_17
REMARK                            x       y       z     vdW  Elec       q    Type
REMARK                         _______ _______ _______ _____ _____    ______ ____
ROOT
ATOM      1  C   UNL     1      34.415 -23.685 -14.894  0.00  0.00    +0.060 C 
ENDROOT
BRANCH   1   3
ATOM      2 CL   UNL     1      35.702 -21.273 -20.237  0.00  0.00    -0.082 Cl
ATOM      3  C   UNL     1      34.742 -23.072 -16.253  0.00  0.00    -0.017 C 
ATOM      4  C   UNL     1      33.805 -23.153 -17.260  0.00  0.00    -0.003 C 
ATOM      5  C   UNL     1      35.963 -22.457 -16.426  0.00  0.00    -0.003 C 
ATOM      6  C   UNL     1      34.104 -22.592 -18.502  0.00  0.00    +0.011 C 
ATOM      7  C   UNL     1      36.262 -21.895 -17.667  0.00  0.00    +0.011 C 
ATOM      8  C   UNL     1      35.332 -21.963 -18.706  0.00  0.00    +0.058 C 
ENDBRANCH   1   3
BRANCH   1  10
ATOM      9  N   UNL     1      32.470 -24.995 -14.289  0.00  0.00    -0.248 NA
ATOM     10  C   UNL     1      32.910 -23.794 -14.686  0.00  0.00    +0.063 C 
ATOM     11  C   UNL     1      32.142 -22.682 -14.915  0.00  0.00    +0.015 C 
ATOM     12  C   UNL     1      30.772 -22.815 -14.716  0.00  0.00    +0.003 C 
ATOM     13  C   UNL     1      31.134 -25.086 -14.106  0.00  0.00    +0.098 C 
ATOM     14  C   UNL     1      30.250 -24.037 -14.304  0.00  0.00    +0.021 C 
ENDBRANCH   1  10
BRANCH   1  15
ATOM     15  C   UNL     1      35.179 -25.008 -14.623  0.00  0.00    -0.012 C 
BRANCH  15  16
ATOM     16  C   UNL     1      36.040 -24.939 -13.356  0.00  0.00    -0.077 C 
BRANCH  16  17
ATOM     17  N   UNL     1      36.888 -26.123 -13.259  0.00  0.00    +0.384 N 
ATOM     18  C   UNL     1      38.172 -25.787 -12.644  0.00  0.00    -0.101 C 
ATOM     19  C   UNL     1      37.097 -26.715 -14.582  0.00  0.00    -0.101 C 
ATOM     20  H   UNL     1      36.415 -26.807 -12.670  0.00  0.00    -0.080 HD
ENDBRANCH  16  17
ENDBRANCH  15  16
ENDBRANCH   1  15
TORSDOF 5
ENDMDL
MODEL 5
REMARK VINA RESULT:      -8.2      6.260      9.234
REMARK  Name = 2725
REMARK  5 active torsions:
REMARK  status: ('A' for Active; 'I' for Inactive)
REMARK    1  A    between atoms: C_1  and  C_3
REMARK    2  A    between atoms: C_1  and  C_10
REMARK    3  A    between atoms: C_1  and  C_15
REMARK    4  A    between atoms: C_15  and  C_16
REMARK    5  A    between atoms: C_16  and  N_17
REMARK                            x       y       z     vdW  Elec       q    Type
REMARK                         _______ _______ _______ _____ _____    ______ ____
ROOT
ATOM      1  C   UNL     1      34.627 -23.691 -15.865  0.00  0.00    +0.060 C 
ENDROOT
BRANCH   1   3
ATOM      2 CL   UNL     1      28.807 -22.407 -15.152  0.00  0.00    -0.082 Cl
ATOM      3  C   UNL     1      33.147 -23.364 -15.683  0.00  0.00    -0.017 C 
ATOM      4  C   UNL     1      32.649 -23.231 -14.405  0.00  0.00    -0.003 C 
ATOM      5  C   UNL     1      32.360 -23.213 -16.804  0.00  0.00    -0.003 C 
ATOM      6  C   UNL     1      31.297 -22.932 -14.239  0.00  0.00    +0.011 C 
ATOM      7  C   UNL     1      31.008 -22.913 -16.639  0.00  0.00    +0.011 C 
ATOM      8  C   UNL     1      30.476 -22.773 -15.356  0.00  0.00    +0.058 C 
ENDBRANCH   1   3
BRANCH   1  10
ATOM      9  N   UNL     1      34.617 -22.883 -18.148  0.00  0.00    -0.248 NA
ATOM     10  C   UNL     1      35.248 -22.843 -16.968  0.00  0.00    +0.063 C 
ATOM     11  C   UNL     1      36.377 -22.123 -16.673  0.00  0.00    +0.015 C 
ATOM     12  C   UNL     1      36.919 -21.361 -17.702  0.00  0.00    +0.003 C 
ATOM     13  C   UNL     1      35.173 -22.129 -19.123  0.00  0.00    +0.098 C 
ATOM     14  C   UNL     1      36.312 -21.358 -18.953  0.00  0.00    +0.021 C 
ENDBRANCH   1  10
BRANCH   1  15
ATOM     15  C   UNL     1      35.425 -23.664 -14.534  0.00  0.00    -0.012 C 
BRANCH  15  16
ATOM     16  C   UNL     1      36.324 -24.894 -14.365  0.00  0.00    -0.077 C 
BRANCH  16  17
ATOM     17  N   UNL     1      36.073 -25.527 -13.075  0.00  0.00    +0.384 N 
ATOM     18  C   UNL     1      35.444 -24.582 -12.151  0.00  0.00    -0.101 C 
ATOM     19  C   UNL     1      37.318 -26.043 -12.504  0.00  0.00    -0.101 C 
ATOM     20  H   UNL     1      35.436 -26.309 -13.222  0.00  0.00    -0.080 HD
ENDBRANCH  16  17
ENDBRANCH  15  16
ENDBRANCH   1  15
TORSDOF 5
ENDMDL
MODEL 6
REMARK VINA RESULT:      -8.1      3.852      6.768
REMARK  Name = 2725
REMARK  5 active torsions:
REMARK  status: ('A' for Active; 'I' for Inactive)
REMARK    1  A    between atoms: C_1  and  C_3
REMARK    2  A    between atoms: C_1  and  C_10
REMARK    3  A    between atoms: C_1  and  C_15
REMARK    4  A    between atoms: C_15  and  C_16
REMARK    5  A    between atoms: C_16  and  N_17
REMARK                            x       y       z     vdW  Elec       q    Type
REMARK                         _______ _______ _______ _____ _____    ______ ____
ROOT
ATOM      1  C   UNL     1      33.173 -14.316 -23.153  0.00  0.00    +0.060 C 
ENDROOT
BRANCH   1   3
ATOM      2 CL   UNL     1      30.742 -10.468 -19.241  0.00  0.00    -0.082 Cl
ATOM      3  C   UNL     1      32.554 -13.338 -22.159  0.00  0.00    -0.017 C 
ATOM      4  C   UNL     1      31.898 -12.227 -22.642  0.00  0.00    -0.003 C 
ATOM      5  C   UNL     1      32.674 -13.598 -20.812  0.00  0.00    -0.003 C 
ATOM      6  C   UNL     1      31.332 -11.333 -21.733  0.00  0.00    +0.011 C 
ATOM      7  C   UNL     1      32.108 -12.705 -19.902  0.00  0.00    +0.011 C 
ATOM      8  C   UNL     1      31.437 -11.572 -20.363  0.00  0.00    +0.058 C 
ENDBRANCH   1   3
BRANCH   1  10
ATOM      9  N   UNL     1      32.808 -14.442 -25.545  0.00  0.00    -0.248 NA
ATOM     10  C   UNL     1      33.285 -13.696 -24.540  0.00  0.00    +0.063 C 
ATOM     11  C   UNL     1      33.854 -12.453 -24.650  0.00  0.00    +0.015 C 
ATOM     12  C   UNL     1      33.942 -11.916 -25.929  0.00  0.00    +0.003 C 
ATOM     13  C   UNL     1      32.911 -13.887 -26.773  0.00  0.00    +0.098 C 
ATOM     14  C   UNL     1      33.464 -12.640 -27.016  0.00  0.00    +0.021 C 
ENDBRANCH   1  10
BRANCH   1  15
ATOM     15  C   UNL     1      34.495 -14.948 -22.644  0.00  0.00    -0.012 C 
BRANCH  15  16
ATOM     16  C   UNL     1      34.419 -16.477 -22.558  0.00  0.00    -0.077 C 
BRANCH  16  17
ATOM     17  N   UNL     1      35.402 -17.080 -23.451  0.00  0.00    +0.384 N 
ATOM     18  C   UNL     1      34.816 -17.330 -24.768  0.00  0.00    -0.101 C 
ATOM     19  C   UNL     1      35.920 -18.325 -22.881  0.00  0.00    -0.101 C 
ATOM     20  H   UNL     1      36.178 -16.427 -23.561  0.00  0.00    -0.080 HD
ENDBRANCH  16  17
ENDBRANCH  15  16
ENDBRANCH   1  15
TORSDOF 5
ENDMDL
MODEL 7
REMARK VINA RESULT:      -8.1      1.182      3.521
REMARK  Name = 2725
REMARK  5 active torsions:
REMARK  status: ('A' for Active; 'I' for Inactive)
REMARK    1  A    between atoms: C_1  and  C_3
REMARK    2  A    between atoms: C_1  and  C_10
REMARK    3  A    between atoms: C_1  and  C_15
REMARK    4  A    between atoms: C_15  and  C_16
REMARK    5  A    between atoms: C_16  and  N_17
REMARK                            x       y       z     vdW  Elec       q    Type
REMARK                         _______ _______ _______ _____ _____    ______ ____
ROOT
ATOM      1  C   UNL     1      34.127 -18.530 -22.054  0.00  0.00    +0.060 C 
ENDROOT
BRANCH   1   3
ATOM      2 CL   UNL     1      34.236 -22.892 -17.932  0.00  0.00    -0.082 Cl
ATOM      3  C   UNL     1      34.154 -19.639 -21.006  0.00  0.00    -0.017 C 
ATOM      4  C   UNL     1      32.960 -20.098 -20.494  0.00  0.00    -0.003 C 
ATOM      5  C   UNL     1      35.372 -20.144 -20.607  0.00  0.00    -0.003 C 
ATOM      6  C   UNL     1      32.985 -21.113 -19.537  0.00  0.00    +0.011 C 
ATOM      7  C   UNL     1      35.398 -21.158 -19.650  0.00  0.00    +0.011 C 
ATOM      8  C   UNL     1      34.204 -21.643 -19.114  0.00  0.00    +0.058 C 
ENDBRANCH   1   3
BRANCH   1  10
ATOM      9  N   UNL     1      32.597 -16.762 -21.423  0.00  0.00    -0.248 NA
ATOM     10  C   UNL     1      33.871 -17.172 -21.413  0.00  0.00    +0.063 C 
ATOM     11  C   UNL     1      34.940 -16.491 -20.889  0.00  0.00    +0.015 C 
ATOM     12  C   UNL     1      34.673 -15.255 -20.312  0.00  0.00    +0.003 C 
ATOM     13  C   UNL     1      32.376 -15.556 -20.854  0.00  0.00    +0.098 C 
ATOM     14  C   UNL     1      33.369 -14.771 -20.290  0.00  0.00    +0.021 C 
ENDBRANCH   1  10
BRANCH   1  15
ATOM     15  C   UNL     1      35.359 -18.552 -22.996  0.00  0.00    -0.012 C 
BRANCH  15  16
ATOM     16  C   UNL     1      35.493 -17.264 -23.816  0.00  0.00    -0.077 C 
BRANCH  16  17
ATOM     17  N   UNL     1      34.832 -17.418 -25.108  0.00  0.00    +0.384 N 
ATOM     18  C   UNL     1      33.858 -16.347 -25.318  0.00  0.00    -0.101 C 
ATOM     19  C   UNL     1      34.177 -18.725 -25.197  0.00  0.00    -0.101 C 
ATOM     20  H   UNL     1      35.540 -17.360 -25.838  0.00  0.00    -0.080 HD
ENDBRANCH  16  17
ENDBRANCH  15  16
ENDBRANCH   1  15
TORSDOF 5
ENDMDL
MODEL 8
REMARK VINA RESULT:      -8.1      8.754     11.702
REMARK  Name = 2725
REMARK  5 active torsions:
REMARK  status: ('A' for Active; 'I' for Inactive)
REMARK    1  A    between atoms: C_1  and  C_3
REMARK    2  A    between atoms: C_1  and  C_10
REMARK    3  A    between atoms: C_1  and  C_15
REMARK    4  A    between atoms: C_15  and  C_16
REMARK    5  A    between atoms: C_16  and  N_17
REMARK                            x       y       z     vdW  Elec       q    Type
REMARK                         _______ _______ _______ _____ _____    ______ ____
ROOT
ATOM      1  C   UNL     1      33.118  -8.518 -22.560  0.00  0.00    +0.060 C 
ENDROOT
BRANCH   1   3
ATOM      2 CL   UNL     1      30.741  -3.061 -23.329  0.00  0.00    -0.082 Cl
ATOM      3  C   UNL     1      32.514  -7.130 -22.755  0.00  0.00    -0.017 C 
ATOM      4  C   UNL     1      32.032  -6.456 -21.654  0.00  0.00    -0.003 C 
ATOM      5  C   UNL     1      32.471  -6.599 -24.025  0.00  0.00    -0.003 C 
ATOM      6  C   UNL     1      31.481  -5.187 -21.832  0.00  0.00    +0.011 C 
ATOM      7  C   UNL     1      31.920  -5.331 -24.204  0.00  0.00    +0.011 C 
ATOM      8  C   UNL     1      31.424  -4.624 -23.108  0.00  0.00    +0.058 C 
ENDBRANCH   1   3
BRANCH   1  10
ATOM      9  N   UNL     1      32.475  -9.019 -20.279  0.00  0.00    -0.248 NA
ATOM     10  C   UNL     1      32.304  -9.340 -21.568  0.00  0.00    +0.063 C 
ATOM     11  C   UNL     1      31.482 -10.321 -22.060  0.00  0.00    +0.015 C 
ATOM     12  C   UNL     1      30.754 -11.053 -21.129  0.00  0.00    +0.003 C 
ATOM     13  C   UNL     1      31.751  -9.752 -19.404  0.00  0.00    +0.098 C 
ATOM     14  C   UNL     1      30.885 -10.769 -19.773  0.00  0.00    +0.021 C 
ENDBRANCH   1  10
BRANCH   1  15
ATOM     15  C   UNL     1      33.398  -9.254 -23.896  0.00  0.00    -0.012 C 
BRANCH  15  16
ATOM     16  C   UNL     1      34.896  -9.364 -24.203  0.00  0.00    -0.077 C 
BRANCH  16  17
ATOM     17  N   UNL     1      35.183 -10.632 -24.866  0.00  0.00    +0.384 N 
ATOM     18  C   UNL     1      35.641 -10.404 -26.236  0.00  0.00    -0.101 C 
ATOM     19  C   UNL     1      33.998 -11.493 -24.862  0.00  0.00    -0.101 C 
ATOM     20  H   UNL     1      35.926 -11.102 -24.349  0.00  0.00    -0.080 HD
ENDBRANCH  16  17
ENDBRANCH  15  16
ENDBRANCH   1  15
TORSDOF 5
ENDMDL
MODEL 9
REMARK VINA RESULT:      -8.1      6.869     10.082
REMARK  Name = 2725
REMARK  5 active torsions:
REMARK  status: ('A' for Active; 'I' for Inactive)
REMARK    1  A    between atoms: C_1  and  C_3
REMARK    2  A    between atoms: C_1  and  C_10
REMARK    3  A    between atoms: C_1  and  C_15
REMARK    4  A    between atoms: C_15  and  C_16
REMARK    5  A    between atoms: C_16  and  N_17
REMARK                            x       y       z     vdW  Elec       q    Type
REMARK                         _______ _______ _______ _____ _____    ______ ____
ROOT
ATOM      1  C   UNL     1      34.611 -23.661 -14.857  0.00  0.00    +0.060 C 
ENDROOT
BRANCH   1   3
ATOM      2 CL   UNL     1      35.694 -21.261 -20.251  0.00  0.00    -0.082 Cl
ATOM      3  C   UNL     1      34.885 -23.051 -16.229  0.00  0.00    -0.017 C 
ATOM      4  C   UNL     1      33.913 -23.139 -17.201  0.00  0.00    -0.003 C 
ATOM      5  C   UNL     1      36.097 -22.433 -16.448  0.00  0.00    -0.003 C 
ATOM      6  C   UNL     1      34.164 -22.580 -18.454  0.00  0.00    +0.011 C 
ATOM      7  C   UNL     1      36.349 -21.874 -17.701  0.00  0.00    +0.011 C 
ATOM      8  C   UNL     1      35.383 -21.948 -18.704  0.00  0.00    +0.058 C 
ENDBRANCH   1   3
BRANCH   1  10
ATOM      9  N   UNL     1      32.705 -24.968 -14.132  0.00  0.00    -0.248 NA
ATOM     10  C   UNL     1      33.115 -23.781 -14.596  0.00  0.00    +0.063 C 
ATOM     11  C   UNL     1      32.323 -22.691 -14.852  0.00  0.00    +0.015 C 
ATOM     12  C   UNL     1      30.962 -22.834 -14.604  0.00  0.00    +0.003 C 
ATOM     13  C   UNL     1      31.377 -25.069 -13.903  0.00  0.00    +0.098 C 
ATOM     14  C   UNL     1      30.472 -24.042 -14.120  0.00  0.00    +0.021 C 
ENDBRANCH   1  10
BRANCH   1  15
ATOM     15  C   UNL     1      35.394 -24.977 -14.608  0.00  0.00    -0.012 C 
BRANCH  15  16
ATOM     16  C   UNL     1      36.527 -24.801 -13.589  0.00  0.00    -0.077 C 
BRANCH  16  17
ATOM     17  N   UNL     1      36.132 -23.849 -12.557  0.00  0.00    +0.384 N 
ATOM     18  C   UNL     1      37.272 -23.029 -12.149  0.00  0.00    -0.101 C 
ATOM     19  C   UNL     1      35.569 -24.548 -11.400  0.00  0.00    -0.101 C 
ATOM     20  H   UNL     1      35.414 -23.236 -12.945  0.00  0.00    -0.080 HD
ENDBRANCH  16  17
ENDBRANCH  15  16
ENDBRANCH   1  15
TORSDOF 5
ENDMDL
