MODEL 1
REMARK VINA RESULT:     -11.0      0.000      0.000
REMARK  Name = 11949646
REMARK  10 active torsions:
REMARK  status: ('A' for Active; 'I' for Inactive)
REMARK    1  A    between atoms: C_2  and  C_12
REMARK    2  A    between atoms: C_5  and  C_23
REMARK    3  A    between atoms: C_9  and  O_14
REMARK    4  A    between atoms: C_10  and  O_16
REMARK    5  A    between atoms: C_11  and  O_18
REMARK    6  A    between atoms: C_13  and  C_20
REMARK    7  A    between atoms: C_20  and  O_21
REMARK    8  A    between atoms: C_23  and  C_24
REMARK    9  A    between atoms: C_25  and  O_30
REMARK   10  A    between atoms: O_30  and  C_32
REMARK                            x       y       z     vdW  Elec       q    Type
REMARK                         _______ _______ _______ _____ _____    ______ ____
ROOT
ATOM      1 CL   UNL     1      37.196 -21.394 -17.569  0.00  0.00    -0.083 Cl
ATOM      2  C   UNL     1      33.340 -23.433 -16.409  0.00  0.00    +0.007 C 
ATOM      3  C   UNL     1      33.627 -23.225 -17.758  0.00  0.00    -0.005 C 
ATOM      4  C   UNL     1      34.239 -23.013 -15.431  0.00  0.00    -0.001 C 
ATOM      5  C   UNL     1      34.816 -22.596 -18.127  0.00  0.00    -0.007 C 
ATOM      6  C   UNL     1      35.428 -22.383 -15.800  0.00  0.00    +0.011 C 
ATOM      7  C   UNL     1      35.717 -22.175 -17.148  0.00  0.00    +0.054 C 
ENDROOT
BRANCH   2  12
ATOM      8  O   UNL     1      30.965 -23.299 -16.465  0.00  0.00    -0.347 OA
ATOM      9  C   UNL     1      30.587 -24.878 -14.091  0.00  0.00    +0.169 C 
ATOM     10  C   UNL     1      31.962 -24.336 -14.489  0.00  0.00    +0.171 C 
ATOM     11  C   UNL     1      29.462 -24.057 -14.721  0.00  0.00    +0.169 C 
ATOM     12  C   UNL     1      32.048 -24.116 -16.007  0.00  0.00    +0.167 C 
ATOM     13  C   UNL     1      29.687 -23.890 -16.224  0.00  0.00    +0.174 C 
BRANCH   9  14
ATOM     14  O   UNL     1      30.442 -24.809 -12.671  0.00  0.00    -0.379 OA
ATOM     15  H   UNL     1      29.698 -25.367 -12.395  0.00  0.00    +0.211 HD
ENDBRANCH   9  14
BRANCH  10  16
ATOM     16  O   UNL     1      32.962 -25.281 -14.108  0.00  0.00    -0.379 OA
ATOM     17  H   UNL     1      33.700 -24.816 -13.683  0.00  0.00    +0.211 HD
ENDBRANCH  10  16
BRANCH  11  18
ATOM     18  O   UNL     1      28.217 -24.717 -14.502  0.00  0.00    -0.379 OA
ATOM     19  H   UNL     1      28.022 -24.732 -13.552  0.00  0.00    +0.211 HD
ENDBRANCH  11  18
BRANCH  13  20
ATOM     20  C   UNL     1      28.637 -22.983 -16.856  0.00  0.00    +0.169 C 
BRANCH  20  21
ATOM     21  O   UNL     1      27.675 -23.792 -17.510  0.00  0.00    -0.379 OA
ATOM     22  H   UNL     1      27.281 -24.406 -16.872  0.00  0.00    +0.211 HD
ENDBRANCH  20  21
ENDBRANCH  13  20
ENDBRANCH   2  12
BRANCH   5  23
ATOM     23  C   UNL     1      35.088 -22.391 -19.583  0.00  0.00    +0.053 C 
BRANCH  23  24
ATOM     24  C   UNL     1      34.719 -21.011 -20.086  0.00  0.00    -0.018 C 
ATOM     25  C   UNL     1      34.045 -18.491 -21.008  0.00  0.00    +0.138 C 
ATOM     26  C   UNL     1      33.385 -20.647 -20.141  0.00  0.00    -0.001 C 
ATOM     27  C   UNL     1      35.724 -20.146 -20.480  0.00  0.00    -0.001 C 
ATOM     28  C   UNL     1      33.046 -19.376 -20.605  0.00  0.00    +0.037 C 
ATOM     29  C   UNL     1      35.385 -18.875 -20.945  0.00  0.00    +0.037 C 
BRANCH  25  30
ATOM     30  O   UNL     1      33.713 -17.251 -21.459  0.00  0.00    -0.476 OA
BRANCH  30  32
ATOM     31  O   UNL     1      33.651 -14.246 -21.870  0.00  0.00    -0.350 OA
ATOM     32  C   UNL     1      34.775 -16.318 -21.629  0.00  0.00    +0.198 C 
ATOM     33  C   UNL     1      34.858 -15.890 -23.074  0.00  0.00    +0.078 C 
ATOM     34  C   UNL     1      34.412 -15.024 -20.930  0.00  0.00    +0.185 C 
ATOM     35  C   UNL     1      33.755 -14.855 -23.163  0.00  0.00    +0.146 C 
ENDBRANCH  30  32
ENDBRANCH  25  30
ENDBRANCH  23  24
ENDBRANCH   5  23
TORSDOF 10
ENDMDL
MODEL 2
REMARK VINA RESULT:     -10.6      3.211      5.320
REMARK  Name = 11949646
REMARK  10 active torsions:
REMARK  status: ('A' for Active; 'I' for Inactive)
REMARK    1  A    between atoms: C_2  and  C_12
REMARK    2  A    between atoms: C_5  and  C_23
REMARK    3  A    between atoms: C_9  and  O_14
REMARK    4  A    between atoms: C_10  and  O_16
REMARK    5  A    between atoms: C_11  and  O_18
REMARK    6  A    between atoms: C_13  and  C_20
REMARK    7  A    between atoms: C_20  and  O_21
REMARK    8  A    between atoms: C_23  and  C_24
REMARK    9  A    between atoms: C_25  and  O_30
REMARK   10  A    between atoms: O_30  and  C_32
REMARK                            x       y       z     vdW  Elec       q    Type
REMARK                         _______ _______ _______ _____ _____    ______ ____
ROOT
ATOM      1 CL   UNL     1      30.763 -22.689 -16.944  0.00  0.00    -0.083 Cl
ATOM      2  C   UNL     1      34.614 -23.624 -14.782  0.00  0.00    +0.007 C 
ATOM      3  C   UNL     1      34.572 -23.704 -16.174  0.00  0.00    -0.005 C 
ATOM      4  C   UNL     1      33.475 -23.257 -14.069  0.00  0.00    -0.001 C 
ATOM      5  C   UNL     1      33.387 -23.418 -16.852  0.00  0.00    -0.007 C 
ATOM      6  C   UNL     1      32.290 -22.971 -14.746  0.00  0.00    +0.011 C 
ATOM      7  C   UNL     1      32.245 -23.051 -16.138  0.00  0.00    +0.054 C 
ENDROOT
BRANCH   2  12
ATOM      8  O   UNL     1      36.921 -24.154 -15.027  0.00  0.00    -0.347 OA
ATOM      9  C   UNL     1      37.106 -25.550 -12.519  0.00  0.00    +0.169 C 
ATOM     10  C   UNL     1      35.757 -25.158 -13.126  0.00  0.00    +0.171 C 
ATOM     11  C   UNL     1      38.195 -25.632 -13.589  0.00  0.00    +0.169 C 
ATOM     12  C   UNL     1      35.901 -23.935 -14.045  0.00  0.00    +0.167 C 
ATOM     13  C   UNL     1      38.209 -24.367 -14.447  0.00  0.00    +0.174 C 
BRANCH   9  14
ATOM     14  O   UNL     1      36.995 -26.834 -11.903  0.00  0.00    -0.379 OA
ATOM     15  H   UNL     1      37.110 -26.743 -10.944  0.00  0.00    +0.211 HD
ENDBRANCH   9  14
BRANCH  10  16
ATOM     16  O   UNL     1      34.850 -24.832 -12.074  0.00  0.00    -0.379 OA
ATOM     17  H   UNL     1      34.755 -25.595 -11.482  0.00  0.00    +0.211 HD
ENDBRANCH  10  16
BRANCH  11  18
ATOM     18  O   UNL     1      39.464 -25.787 -12.958  0.00  0.00    -0.379 OA
ATOM     19  H   UNL     1      39.600 -25.065 -12.324  0.00  0.00    +0.211 HD
ENDBRANCH  11  18
BRANCH  13  20
ATOM     20  C   UNL     1      39.213 -24.471 -15.591  0.00  0.00    +0.169 C 
BRANCH  20  21
ATOM     21  O   UNL     1      39.664 -25.812 -15.675  0.00  0.00    -0.379 OA
ATOM     22  H   UNL     1      39.058 -26.321 -16.236  0.00  0.00    +0.211 HD
ENDBRANCH  20  21
ENDBRANCH  13  20
ENDBRANCH   2  12
BRANCH   5  23
ATOM     23  C   UNL     1      33.381 -23.516 -18.343  0.00  0.00    +0.053 C 
BRANCH  23  24
ATOM     24  C   UNL     1      33.861 -22.261 -19.040  0.00  0.00    -0.018 C 
ATOM     25  C   UNL     1      34.739 -19.968 -20.317  0.00  0.00    +0.138 C 
ATOM     26  C   UNL     1      32.930 -21.370 -19.544  0.00  0.00    -0.001 C 
ATOM     27  C   UNL     1      35.221 -22.034 -19.160  0.00  0.00    -0.001 C 
ATOM     28  C   UNL     1      33.372 -20.214 -20.187  0.00  0.00    +0.037 C 
ATOM     29  C   UNL     1      35.663 -20.878 -19.803  0.00  0.00    +0.037 C 
BRANCH  25  30
ATOM     30  O   UNL     1      35.170 -18.840 -20.944  0.00  0.00    -0.476 OA
BRANCH  30  32
ATOM     31  O   UNL     1      35.541 -16.436 -22.757  0.00  0.00    -0.350 OA
ATOM     32  C   UNL     1      34.270 -18.222 -21.858  0.00  0.00    +0.198 C 
ATOM     33  C   UNL     1      33.756 -16.927 -21.280  0.00  0.00    +0.078 C 
ATOM     34  C   UNL     1      35.045 -17.750 -23.070  0.00  0.00    +0.185 C 
ATOM     35  C   UNL     1      34.903 -15.977 -21.559  0.00  0.00    +0.146 C 
ENDBRANCH  30  32
ENDBRANCH  25  30
ENDBRANCH  23  24
ENDBRANCH   5  23
TORSDOF 10
ENDMDL
MODEL 3
REMARK VINA RESULT:     -10.2      3.347      5.350
REMARK  Name = 11949646
REMARK  10 active torsions:
REMARK  status: ('A' for Active; 'I' for Inactive)
REMARK    1  A    between atoms: C_2  and  C_12
REMARK    2  A    between atoms: C_5  and  C_23
REMARK    3  A    between atoms: C_9  and  O_14
REMARK    4  A    between atoms: C_10  and  O_16
REMARK    5  A    between atoms: C_11  and  O_18
REMARK    6  A    between atoms: C_13  and  C_20
REMARK    7  A    between atoms: C_20  and  O_21
REMARK    8  A    between atoms: C_23  and  C_24
REMARK    9  A    between atoms: C_25  and  O_30
REMARK   10  A    between atoms: O_30  and  C_32
REMARK                            x       y       z     vdW  Elec       q    Type
REMARK                         _______ _______ _______ _____ _____    ______ ____
ROOT
ATOM      1 CL   UNL     1      30.809 -22.419 -17.226  0.00  0.00    -0.083 Cl
ATOM      2  C   UNL     1      34.389 -24.026 -14.997  0.00  0.00    +0.007 C 
ATOM      3  C   UNL     1      34.392 -24.029 -16.391  0.00  0.00    -0.005 C 
ATOM      4  C   UNL     1      33.289 -23.530 -14.301  0.00  0.00    -0.001 C 
ATOM      5  C   UNL     1      33.290 -23.535 -17.090  0.00  0.00    -0.007 C 
ATOM      6  C   UNL     1      32.187 -23.036 -15.000  0.00  0.00    +0.011 C 
ATOM      7  C   UNL     1      32.188 -23.038 -16.394  0.00  0.00    +0.054 C 
ENDROOT
BRANCH   2  12
ATOM      8  O   UNL     1      36.260 -23.447 -13.644  0.00  0.00    -0.347 OA
ATOM      9  C   UNL     1      37.812 -25.748 -14.397  0.00  0.00    +0.169 C 
ATOM     10  C   UNL     1      36.537 -25.355 -15.147  0.00  0.00    +0.171 C 
ATOM     11  C   UNL     1      38.418 -24.552 -13.664  0.00  0.00    +0.169 C 
ATOM     12  C   UNL     1      35.586 -24.563 -14.237  0.00  0.00    +0.167 C 
ATOM     13  C   UNL     1      37.359 -23.840 -12.820  0.00  0.00    +0.174 C 
BRANCH   9  14
ATOM     14  O   UNL     1      38.782 -26.231 -15.329  0.00  0.00    -0.379 OA
ATOM     15  H   UNL     1      39.375 -25.506 -15.581  0.00  0.00    +0.211 HD
ENDBRANCH   9  14
BRANCH  10  16
ATOM     16  O   UNL     1      35.870 -26.539 -15.584  0.00  0.00    -0.379 OA
ATOM     17  H   UNL     1      34.935 -26.341 -15.746  0.00  0.00    +0.211 HD
ENDBRANCH  10  16
BRANCH  11  18
ATOM     18  O   UNL     1      39.469 -25.003 -12.814  0.00  0.00    -0.379 OA
ATOM     19  H   UNL     1      39.249 -25.881 -12.464  0.00  0.00    +0.211 HD
ENDBRANCH  11  18
BRANCH  13  20
ATOM     20  C   UNL     1      37.913 -22.579 -12.165  0.00  0.00    +0.169 C 
BRANCH  20  21
ATOM     21  O   UNL     1      37.238 -22.375 -10.935  0.00  0.00    -0.379 OA
ATOM     22  H   UNL     1      36.565 -23.063 -10.819  0.00  0.00    +0.211 HD
ENDBRANCH  20  21
ENDBRANCH  13  20
ENDBRANCH   2  12
BRANCH   5  23
ATOM     23  C   UNL     1      33.330 -23.555 -18.584  0.00  0.00    +0.053 C 
BRANCH  23  24
ATOM     24  C   UNL     1      33.810 -22.258 -19.201  0.00  0.00    -0.018 C 
ATOM     25  C   UNL     1      34.686 -19.888 -20.330  0.00  0.00    +0.138 C 
ATOM     26  C   UNL     1      32.878 -21.346 -19.665  0.00  0.00    -0.001 C 
ATOM     27  C   UNL     1      35.169 -22.013 -19.287  0.00  0.00    -0.001 C 
ATOM     28  C   UNL     1      33.319 -20.151 -20.234  0.00  0.00    +0.037 C 
ATOM     29  C   UNL     1      35.611 -20.819 -19.856  0.00  0.00    +0.037 C 
BRANCH  25  30
ATOM     30  O   UNL     1      35.116 -18.722 -20.884  0.00  0.00    -0.476 OA
BRANCH  30  32
ATOM     31  O   UNL     1      35.592 -16.340 -22.702  0.00  0.00    -0.350 OA
ATOM     32  C   UNL     1      34.271 -18.117 -21.857  0.00  0.00    +0.198 C 
ATOM     33  C   UNL     1      33.723 -16.815 -21.327  0.00  0.00    +0.078 C 
ATOM     34  C   UNL     1      35.117 -17.658 -23.027  0.00  0.00    +0.185 C 
ATOM     35  C   UNL     1      34.884 -15.867 -21.549  0.00  0.00    +0.146 C 
ENDBRANCH  30  32
ENDBRANCH  25  30
ENDBRANCH  23  24
ENDBRANCH   5  23
TORSDOF 10
ENDMDL
MODEL 4
REMARK VINA RESULT:      -9.7      7.168     14.701
REMARK  Name = 11949646
REMARK  10 active torsions:
REMARK  status: ('A' for Active; 'I' for Inactive)
REMARK    1  A    between atoms: C_2  and  C_12
REMARK    2  A    between atoms: C_5  and  C_23
REMARK    3  A    between atoms: C_9  and  O_14
REMARK    4  A    between atoms: C_10  and  O_16
REMARK    5  A    between atoms: C_11  and  O_18
REMARK    6  A    between atoms: C_13  and  C_20
REMARK    7  A    between atoms: C_20  and  O_21
REMARK    8  A    between atoms: C_23  and  C_24
REMARK    9  A    between atoms: C_25  and  O_30
REMARK   10  A    between atoms: O_30  and  C_32
REMARK                            x       y       z     vdW  Elec       q    Type
REMARK                         _______ _______ _______ _____ _____    ______ ____
ROOT
ATOM      1 CL   UNL     1      31.232 -11.040 -18.789  0.00  0.00    -0.083 Cl
ATOM      2  C   UNL     1      32.556  -7.911 -21.760  0.00  0.00    +0.007 C 
ATOM      3  C   UNL     1      32.032  -9.118 -22.223  0.00  0.00    -0.005 C 
ATOM      4  C   UNL     1      32.669  -7.677 -20.391  0.00  0.00    -0.001 C 
ATOM      5  C   UNL     1      31.620 -10.092 -21.313  0.00  0.00    -0.007 C 
ATOM      6  C   UNL     1      32.257  -8.651 -19.481  0.00  0.00    +0.011 C 
ATOM      7  C   UNL     1      31.732  -9.859 -19.942  0.00  0.00    +0.054 C 
ENDROOT
BRANCH   2  12
ATOM      8  O   UNL     1      31.834  -6.339 -23.394  0.00  0.00    -0.347 OA
ATOM      9  C   UNL     1      34.308  -6.372 -24.859  0.00  0.00    +0.169 C 
ATOM     10  C   UNL     1      33.996  -7.412 -23.780  0.00  0.00    +0.171 C 
ATOM     11  C   UNL     1      33.029  -5.749 -25.418  0.00  0.00    +0.169 C 
ATOM     12  C   UNL     1      33.004  -6.853 -22.748  0.00  0.00    +0.167 C 
ATOM     13  C   UNL     1      32.123  -5.262 -24.287  0.00  0.00    +0.174 C 
BRANCH   9  14
ATOM     14  O   UNL     1      35.001  -7.001 -25.939  0.00  0.00    -0.379 OA
ATOM     15  H   UNL     1      35.801  -7.432 -25.602  0.00  0.00    +0.211 HD
ENDBRANCH   9  14
BRANCH  10  16
ATOM     16  O   UNL     1      35.205  -7.762 -23.107  0.00  0.00    -0.379 OA
ATOM     17  H   UNL     1      35.397  -7.100 -22.425  0.00  0.00    +0.211 HD
ENDBRANCH  10  16
BRANCH  11  18
ATOM     18  O   UNL     1      33.369  -4.646 -26.256  0.00  0.00    -0.379 OA
ATOM     19  H   UNL     1      34.204  -4.834 -26.714  0.00  0.00    +0.211 HD
ENDBRANCH  11  18
BRANCH  13  20
ATOM     20  C   UNL     1      30.792  -4.736 -24.815  0.00  0.00    +0.169 C 
BRANCH  20  21
ATOM     21  O   UNL     1      30.435  -3.583 -24.072  0.00  0.00    -0.379 OA
ATOM     22  H   UNL     1      31.226  -3.214 -23.650  0.00  0.00    +0.211 HD
ENDBRANCH  20  21
ENDBRANCH  13  20
ENDBRANCH   2  12
BRANCH   5  23
ATOM     23  C   UNL     1      31.064 -11.372 -21.848  0.00  0.00    +0.053 C 
BRANCH  23  24
ATOM     24  C   UNL     1      32.074 -12.498 -21.913  0.00  0.00    -0.018 C 
ATOM     25  C   UNL     1      33.919 -14.557 -22.035  0.00  0.00    +0.138 C 
ATOM     26  C   UNL     1      32.823 -12.665 -23.064  0.00  0.00    -0.001 C 
ATOM     27  C   UNL     1      32.224 -13.335 -20.822  0.00  0.00    -0.001 C 
ATOM     28  C   UNL     1      33.754 -13.703 -23.126  0.00  0.00    +0.037 C 
ATOM     29  C   UNL     1      33.154 -14.372 -20.883  0.00  0.00    +0.037 C 
BRANCH  25  30
ATOM     30  O   UNL     1      34.827 -15.568 -22.095  0.00  0.00    -0.476 OA
BRANCH  30  32
ATOM     31  O   UNL     1      35.433 -18.299 -20.921  0.00  0.00    -0.350 OA
ATOM     32  C   UNL     1      34.338 -16.857 -22.451  0.00  0.00    +0.198 C 
ATOM     33  C   UNL     1      35.404 -17.626 -23.192  0.00  0.00    +0.078 C 
ATOM     34  C   UNL     1      34.162 -17.682 -21.193  0.00  0.00    +0.185 C 
ATOM     35  C   UNL     1      36.283 -18.123 -22.061  0.00  0.00    +0.146 C 
ENDBRANCH  30  32
ENDBRANCH  25  30
ENDBRANCH  23  24
ENDBRANCH   5  23
TORSDOF 10
ENDMDL
MODEL 5
REMARK VINA RESULT:      -9.4      6.565     13.544
REMARK  Name = 11949646
REMARK  10 active torsions:
REMARK  status: ('A' for Active; 'I' for Inactive)
REMARK    1  A    between atoms: C_2  and  C_12
REMARK    2  A    between atoms: C_5  and  C_23
REMARK    3  A    between atoms: C_9  and  O_14
REMARK    4  A    between atoms: C_10  and  O_16
REMARK    5  A    between atoms: C_11  and  O_18
REMARK    6  A    between atoms: C_13  and  C_20
REMARK    7  A    between atoms: C_20  and  O_21
REMARK    8  A    between atoms: C_23  and  C_24
REMARK    9  A    between atoms: C_25  and  O_30
REMARK   10  A    between atoms: O_30  and  C_32
REMARK                            x       y       z     vdW  Elec       q    Type
REMARK                         _______ _______ _______ _____ _____    ______ ____
ROOT
ATOM      1 CL   UNL     1      34.977 -12.751 -27.413  0.00  0.00    -0.083 Cl
ATOM      2  C   UNL     1      34.104  -9.666 -24.236  0.00  0.00    +0.007 C 
ATOM      3  C   UNL     1      33.360 -10.846 -24.269  0.00  0.00    -0.005 C 
ATOM      4  C   UNL     1      35.107  -9.446 -25.177  0.00  0.00    -0.001 C 
ATOM      5  C   UNL     1      33.622 -11.805 -25.247  0.00  0.00    -0.007 C 
ATOM      6  C   UNL     1      35.369 -10.405 -26.155  0.00  0.00    +0.011 C 
ATOM      7  C   UNL     1      34.626 -11.586 -26.190  0.00  0.00    +0.054 C 
ENDROOT
BRANCH   2  12
ATOM      8  O   UNL     1      32.952  -9.218 -22.202  0.00  0.00    -0.347 OA
ATOM      9  C   UNL     1      32.761  -6.385 -22.662  0.00  0.00    +0.169 C 
ATOM     10  C   UNL     1      33.186  -7.355 -23.767  0.00  0.00    +0.171 C 
ATOM     11  C   UNL     1      31.957  -7.099 -21.575  0.00  0.00    +0.169 C 
ATOM     12  C   UNL     1      33.820  -8.623 -23.174  0.00  0.00    +0.167 C 
ATOM     13  C   UNL     1      32.686  -8.354 -21.096  0.00  0.00    +0.174 C 
BRANCH   9  14
ATOM     14  O   UNL     1      31.937  -5.361 -23.220  0.00  0.00    -0.379 OA
ATOM     15  H   UNL     1      31.408  -4.954 -22.517  0.00  0.00    +0.211 HD
ENDBRANCH   9  14
BRANCH  10  16
ATOM     16  O   UNL     1      34.148  -6.714 -24.604  0.00  0.00    -0.379 OA
ATOM     17  H   UNL     1      33.691  -6.230 -25.310  0.00  0.00    +0.211 HD
ENDBRANCH  10  16
BRANCH  11  18
ATOM     18  O   UNL     1      31.769  -6.215 -20.472  0.00  0.00    -0.379 OA
ATOM     19  H   UNL     1      32.508  -5.588 -20.430  0.00  0.00    +0.211 HD
ENDBRANCH  11  18
BRANCH  13  20
ATOM     20  C   UNL     1      31.854  -9.142 -20.090  0.00  0.00    +0.169 C 
BRANCH  20  21
ATOM     21  O   UNL     1      32.689  -9.523 -19.011  0.00  0.00    -0.379 OA
ATOM     22  H   UNL     1      33.541  -9.066 -19.086  0.00  0.00    +0.211 HD
ENDBRANCH  20  21
ENDBRANCH  13  20
ENDBRANCH   2  12
BRANCH   5  23
ATOM     23  C   UNL     1      32.804 -13.056 -25.250  0.00  0.00    +0.053 C 
BRANCH  23  24
ATOM     24  C   UNL     1      33.506 -14.248 -24.635  0.00  0.00    -0.018 C 
ATOM     25  C   UNL     1      34.787 -16.428 -23.509  0.00  0.00    +0.138 C 
ATOM     26  C   UNL     1      33.604 -15.422 -25.360  0.00  0.00    -0.001 C 
ATOM     27  C   UNL     1      34.032 -14.137 -23.360  0.00  0.00    -0.001 C 
ATOM     28  C   UNL     1      34.250 -16.521 -24.793  0.00  0.00    +0.037 C 
ATOM     29  C   UNL     1      34.678 -15.235 -22.792  0.00  0.00    +0.037 C 
BRANCH  25  30
ATOM     30  O   UNL     1      35.418 -17.499 -22.956  0.00  0.00    -0.476 OA
BRANCH  30  32
ATOM     31  O   UNL     1      35.465 -19.989 -21.225  0.00  0.00    -0.350 OA
ATOM     32  C   UNL     1      35.328 -17.645 -21.543  0.00  0.00    +0.198 C 
ATOM     33  C   UNL     1      33.962 -18.160 -21.164  0.00  0.00    +0.078 C 
ATOM     34  C   UNL     1      36.233 -18.779 -21.106  0.00  0.00    +0.185 C 
ATOM     35  C   UNL     1      34.092 -19.644 -21.444  0.00  0.00    +0.146 C 
ENDBRANCH  30  32
ENDBRANCH  25  30
ENDBRANCH  23  24
ENDBRANCH   5  23
TORSDOF 10
ENDMDL
MODEL 6
REMARK VINA RESULT:      -9.3      2.674      4.419
REMARK  Name = 11949646
REMARK  10 active torsions:
REMARK  status: ('A' for Active; 'I' for Inactive)
REMARK    1  A    between atoms: C_2  and  C_12
REMARK    2  A    between atoms: C_5  and  C_23
REMARK    3  A    between atoms: C_9  and  O_14
REMARK    4  A    between atoms: C_10  and  O_16
REMARK    5  A    between atoms: C_11  and  O_18
REMARK    6  A    between atoms: C_13  and  C_20
REMARK    7  A    between atoms: C_20  and  O_21
REMARK    8  A    between atoms: C_23  and  C_24
REMARK    9  A    between atoms: C_25  and  O_30
REMARK   10  A    between atoms: O_30  and  C_32
REMARK                            x       y       z     vdW  Elec       q    Type
REMARK                         _______ _______ _______ _____ _____    ______ ____
ROOT
ATOM      1 CL   UNL     1      33.085 -19.674 -21.618  0.00  0.00    -0.083 Cl
ATOM      2  C   UNL     1      34.538 -22.238 -18.200  0.00  0.00    +0.007 C 
ATOM      3  C   UNL     1      35.467 -21.638 -19.049  0.00  0.00    -0.005 C 
ATOM      4  C   UNL     1      33.174 -22.046 -18.408  0.00  0.00    -0.001 C 
ATOM      5  C   UNL     1      35.028 -20.844 -20.109  0.00  0.00    -0.007 C 
ATOM      6  C   UNL     1      32.735 -21.252 -19.468  0.00  0.00    +0.011 C 
ATOM      7  C   UNL     1      33.662 -20.650 -20.318  0.00  0.00    +0.054 C 
ENDROOT
BRANCH   2  12
ATOM      8  O   UNL     1      33.934 -23.211 -16.113  0.00  0.00    -0.347 OA
ATOM      9  C   UNL     1      36.631 -23.320 -15.119  0.00  0.00    +0.169 C 
ATOM     10  C   UNL     1      36.265 -22.522 -16.373  0.00  0.00    +0.171 C 
ATOM     11  C   UNL     1      35.413 -23.531 -14.220  0.00  0.00    +0.169 C 
ATOM     12  C   UNL     1      35.014 -23.102 -17.048  0.00  0.00    +0.167 C 
ATOM     13  C   UNL     1      34.235 -24.083 -15.023  0.00  0.00    +0.174 C 
BRANCH   9  14
ATOM     14  O   UNL     1      37.613 -22.602 -14.369  0.00  0.00    -0.379 OA
ATOM     15  H   UNL     1      37.236 -22.333 -13.517  0.00  0.00    +0.211 HD
ENDBRANCH   9  14
BRANCH  10  16
ATOM     16  O   UNL     1      37.352 -22.583 -17.296  0.00  0.00    -0.379 OA
ATOM     17  H   UNL     1      37.825 -23.422 -17.183  0.00  0.00    +0.211 HD
ENDBRANCH  10  16
BRANCH  11  18
ATOM     18  O   UNL     1      35.747 -24.452 -13.183  0.00  0.00    -0.379 OA
ATOM     19  H   UNL     1      36.406 -24.050 -12.594  0.00  0.00    +0.211 HD
ENDBRANCH  11  18
BRANCH  13  20
ATOM     20  C   UNL     1      32.975 -24.201 -14.171  0.00  0.00    +0.169 C 
BRANCH  20  21
ATOM     21  O   UNL     1      33.146 -23.418 -13.002  0.00  0.00    -0.379 OA
ATOM     22  H   UNL     1      34.082 -23.184 -12.904  0.00  0.00    +0.211 HD
ENDBRANCH  20  21
ENDBRANCH  13  20
ENDBRANCH   2  12
BRANCH   5  23
ATOM     23  C   UNL     1      36.054 -20.217 -20.998  0.00  0.00    +0.053 C 
BRANCH  23  24
ATOM     24  C   UNL     1      35.670 -18.842 -21.500  0.00  0.00    -0.018 C 
ATOM     25  C   UNL     1      34.970 -16.326 -22.418  0.00  0.00    +0.138 C 
ATOM     26  C   UNL     1      35.627 -18.609 -22.863  0.00  0.00    -0.001 C 
ATOM     27  C   UNL     1      35.372 -17.848 -20.584  0.00  0.00    -0.001 C 
ATOM     28  C   UNL     1      35.274 -17.341 -23.326  0.00  0.00    +0.037 C 
ATOM     29  C   UNL     1      35.019 -16.580 -21.047  0.00  0.00    +0.037 C 
BRANCH  25  30
ATOM     30  O   UNL     1      34.625 -15.090 -22.871  0.00  0.00    -0.476 OA
BRANCH  30  32
ATOM     31  O   UNL     1      33.459 -13.091 -24.832  0.00  0.00    -0.350 OA
ATOM     32  C   UNL     1      33.290 -14.921 -23.336  0.00  0.00    +0.198 C 
ATOM     33  C   UNL     1      32.668 -13.709 -22.687  0.00  0.00    +0.078 C 
ATOM     34  C   UNL     1      33.324 -14.523 -24.797  0.00  0.00    +0.185 C 
ATOM     35  C   UNL     1      33.243 -12.576 -23.513  0.00  0.00    +0.146 C 
ENDBRANCH  30  32
ENDBRANCH  25  30
ENDBRANCH  23  24
ENDBRANCH   5  23
TORSDOF 10
ENDMDL
MODEL 7
REMARK VINA RESULT:      -9.2      1.673      2.785
REMARK  Name = 11949646
REMARK  10 active torsions:
REMARK  status: ('A' for Active; 'I' for Inactive)
REMARK    1  A    between atoms: C_2  and  C_12
REMARK    2  A    between atoms: C_5  and  C_23
REMARK    3  A    between atoms: C_9  and  O_14
REMARK    4  A    between atoms: C_10  and  O_16
REMARK    5  A    between atoms: C_11  and  O_18
REMARK    6  A    between atoms: C_13  and  C_20
REMARK    7  A    between atoms: C_20  and  O_21
REMARK    8  A    between atoms: C_23  and  C_24
REMARK    9  A    between atoms: C_25  and  O_30
REMARK   10  A    between atoms: O_30  and  C_32
REMARK                            x       y       z     vdW  Elec       q    Type
REMARK                         _______ _______ _______ _____ _____    ______ ____
ROOT
ATOM      1 CL   UNL     1      37.502 -19.713 -20.658  0.00  0.00    -0.083 Cl
ATOM      2  C   UNL     1      34.906 -22.298 -18.022  0.00  0.00    +0.007 C 
ATOM      3  C   UNL     1      34.471 -21.974 -19.307  0.00  0.00    -0.005 C 
ATOM      4  C   UNL     1      36.132 -21.825 -17.559  0.00  0.00    -0.001 C 
ATOM      5  C   UNL     1      35.265 -21.175 -20.129  0.00  0.00    -0.007 C 
ATOM      6  C   UNL     1      36.927 -21.027 -18.382  0.00  0.00    +0.011 C 
ATOM      7  C   UNL     1      36.494 -20.702 -19.667  0.00  0.00    +0.054 C 
ENDROOT
BRANCH   2  12
ATOM      8  O   UNL     1      32.725 -22.602 -17.118  0.00  0.00    -0.347 OA
ATOM      9  C   UNL     1      33.637 -24.004 -14.778  0.00  0.00    +0.169 C 
ATOM     10  C   UNL     1      34.605 -23.260 -15.701  0.00  0.00    +0.171 C 
ATOM     11  C   UNL     1      32.215 -23.459 -14.909  0.00  0.00    +0.169 C 
ATOM     12  C   UNL     1      34.042 -23.165 -17.127  0.00  0.00    +0.167 C 
ATOM     13  C   UNL     1      31.793 -23.390 -16.377  0.00  0.00    +0.174 C 
BRANCH   9  14
ATOM     14  O   UNL     1      34.051 -23.836 -13.421  0.00  0.00    -0.379 OA
ATOM     15  H   UNL     1      34.067 -22.892 -13.203  0.00  0.00    +0.211 HD
ENDBRANCH   9  14
BRANCH  10  16
ATOM     16  O   UNL     1      35.843 -23.970 -15.746  0.00  0.00    -0.379 OA
ATOM     17  H   UNL     1      36.215 -24.027 -14.853  0.00  0.00    +0.211 HD
ENDBRANCH  10  16
BRANCH  11  18
ATOM     18  O   UNL     1      31.317 -24.312 -14.201  0.00  0.00    -0.379 OA
ATOM     19  H   UNL     1      30.431 -23.917 -14.198  0.00  0.00    +0.211 HD
ENDBRANCH  11  18
BRANCH  13  20
ATOM     20  C   UNL     1      30.419 -22.748 -16.540  0.00  0.00    +0.169 C 
BRANCH  20  21
ATOM     21  O   UNL     1      29.431 -23.753 -16.398  0.00  0.00    -0.379 OA
ATOM     22  H   UNL     1      29.191 -23.840 -15.462  0.00  0.00    +0.211 HD
ENDBRANCH  20  21
ENDBRANCH  13  20
ENDBRANCH   2  12
BRANCH   5  23
ATOM     23  C   UNL     1      34.765 -20.850 -21.500  0.00  0.00    +0.053 C 
BRANCH  23  24
ATOM     24  C   UNL     1      34.653 -19.365 -21.773  0.00  0.00    -0.018 C 
ATOM     25  C   UNL     1      34.445 -16.651 -22.273  0.00  0.00    +0.138 C 
ATOM     26  C   UNL     1      33.969 -18.563 -20.875  0.00  0.00    -0.001 C 
ATOM     27  C   UNL     1      35.234 -18.843 -22.915  0.00  0.00    -0.001 C 
ATOM     28  C   UNL     1      33.865 -17.195 -21.127  0.00  0.00    +0.037 C 
ATOM     29  C   UNL     1      35.130 -17.475 -23.167  0.00  0.00    +0.037 C 
BRANCH  25  30
ATOM     30  O   UNL     1      34.343 -15.316 -22.518  0.00  0.00    -0.476 OA
BRANCH  30  32
ATOM     31  O   UNL     1      33.785 -13.241 -24.659  0.00  0.00    -0.350 OA
ATOM     32  C   UNL     1      33.110 -14.848 -23.053  0.00  0.00    +0.198 C 
ATOM     33  C   UNL     1      32.805 -13.472 -22.515  0.00  0.00    +0.078 C 
ATOM     34  C   UNL     1      33.284 -14.584 -24.535  0.00  0.00    +0.185 C 
ATOM     35  C   UNL     1      33.674 -12.589 -23.389  0.00  0.00    +0.146 C 
ENDBRANCH  30  32
ENDBRANCH  25  30
ENDBRANCH  23  24
ENDBRANCH   5  23
TORSDOF 10
ENDMDL
MODEL 8
REMARK VINA RESULT:      -9.0      2.808      4.601
REMARK  Name = 11949646
REMARK  10 active torsions:
REMARK  status: ('A' for Active; 'I' for Inactive)
REMARK    1  A    between atoms: C_2  and  C_12
REMARK    2  A    between atoms: C_5  and  C_23
REMARK    3  A    between atoms: C_9  and  O_14
REMARK    4  A    between atoms: C_10  and  O_16
REMARK    5  A    between atoms: C_11  and  O_18
REMARK    6  A    between atoms: C_13  and  C_20
REMARK    7  A    between atoms: C_20  and  O_21
REMARK    8  A    between atoms: C_23  and  C_24
REMARK    9  A    between atoms: C_25  and  O_30
REMARK   10  A    between atoms: O_30  and  C_32
REMARK                            x       y       z     vdW  Elec       q    Type
REMARK                         _______ _______ _______ _____ _____    ______ ____
ROOT
ATOM      1 CL   UNL     1      33.053 -22.320 -20.226  0.00  0.00    -0.083 Cl
ATOM      2  C   UNL     1      34.998 -22.949 -16.202  0.00  0.00    +0.007 C 
ATOM      3  C   UNL     1      35.764 -22.477 -17.268  0.00  0.00    -0.005 C 
ATOM      4  C   UNL     1      33.643 -23.222 -16.382  0.00  0.00    -0.001 C 
ATOM      5  C   UNL     1      35.173 -22.280 -18.516  0.00  0.00    -0.007 C 
ATOM      6  C   UNL     1      33.052 -23.025 -17.630  0.00  0.00    +0.011 C 
ATOM      7  C   UNL     1      33.816 -22.553 -18.697  0.00  0.00    +0.054 C 
ENDROOT
BRANCH   2  12
ATOM      8  O   UNL     1      36.847 -23.907 -15.051  0.00  0.00    -0.347 OA
ATOM      9  C   UNL     1      35.427 -24.250 -12.573  0.00  0.00    +0.169 C 
ATOM     10  C   UNL     1      34.703 -23.902 -13.877  0.00  0.00    +0.171 C 
ATOM     11  C   UNL     1      36.777 -24.913 -12.847  0.00  0.00    +0.169 C 
ATOM     12  C   UNL     1      35.640 -23.164 -14.846  0.00  0.00    +0.167 C 
ATOM     13  C   UNL     1      37.592 -24.092 -13.847  0.00  0.00    +0.174 C 
BRANCH   9  14
ATOM     14  O   UNL     1      34.631 -25.164 -11.817  0.00  0.00    -0.379 OA
ATOM     15  H   UNL     1      33.899 -25.485 -12.366  0.00  0.00    +0.211 HD
ENDBRANCH   9  14
BRANCH  10  16
ATOM     16  O   UNL     1      33.594 -23.054 -13.581  0.00  0.00    -0.379 OA
ATOM     17  H   UNL     1      33.784 -22.154 -13.890  0.00  0.00    +0.211 HD
ENDBRANCH  10  16
BRANCH  11  18
ATOM     18  O   UNL     1      37.504 -25.023 -11.625  0.00  0.00    -0.379 OA
ATOM     19  H   UNL     1      37.022 -25.603 -11.014  0.00  0.00    +0.211 HD
ENDBRANCH  11  18
BRANCH  13  20
ATOM     20  C   UNL     1      38.897 -24.790 -14.219  0.00  0.00    +0.169 C 
BRANCH  20  21
ATOM     21  O   UNL     1      39.349 -24.271 -15.458  0.00  0.00    -0.379 OA
ATOM     22  H   UNL     1      39.175 -24.916 -16.161  0.00  0.00    +0.211 HD
ENDBRANCH  20  21
ENDBRANCH  13  20
ENDBRANCH   2  12
BRANCH   5  23
ATOM     23  C   UNL     1      36.026 -21.774 -19.633  0.00  0.00    +0.053 C 
BRANCH  23  24
ATOM     24  C   UNL     1      35.535 -20.477 -20.240  0.00  0.00    -0.018 C 
ATOM     25  C   UNL     1      34.635 -18.107 -21.350  0.00  0.00    +0.138 C 
ATOM     26  C   UNL     1      34.173 -20.270 -20.380  0.00  0.00    -0.001 C 
ATOM     27  C   UNL     1      36.457 -19.527 -20.641  0.00  0.00    -0.001 C 
ATOM     28  C   UNL     1      33.720 -19.076 -20.939  0.00  0.00    +0.037 C 
ATOM     29  C   UNL     1      36.004 -18.332 -21.201  0.00  0.00    +0.037 C 
BRANCH  25  30
ATOM     30  O   UNL     1      34.192 -16.941 -21.895  0.00  0.00    -0.476 OA
BRANCH  30  32
ATOM     31  O   UNL     1      32.111 -14.740 -21.734  0.00  0.00    -0.350 OA
ATOM     32  C   UNL     1      34.101 -15.815 -21.028  0.00  0.00    +0.198 C 
ATOM     33  C   UNL     1      34.472 -14.558 -21.776  0.00  0.00    +0.078 C 
ATOM     34  C   UNL     1      32.645 -15.571 -20.689  0.00  0.00    +0.185 C 
ATOM     35  C   UNL     1      33.195 -14.249 -22.532  0.00  0.00    +0.146 C 
ENDBRANCH  30  32
ENDBRANCH  25  30
ENDBRANCH  23  24
ENDBRANCH   5  23
TORSDOF 10
ENDMDL
MODEL 9
REMARK VINA RESULT:      -8.9      5.983     13.164
REMARK  Name = 11949646
REMARK  10 active torsions:
REMARK  status: ('A' for Active; 'I' for Inactive)
REMARK    1  A    between atoms: C_2  and  C_12
REMARK    2  A    between atoms: C_5  and  C_23
REMARK    3  A    between atoms: C_9  and  O_14
REMARK    4  A    between atoms: C_10  and  O_16
REMARK    5  A    between atoms: C_11  and  O_18
REMARK    6  A    between atoms: C_13  and  C_20
REMARK    7  A    between atoms: C_20  and  O_21
REMARK    8  A    between atoms: C_23  and  C_24
REMARK    9  A    between atoms: C_25  and  O_30
REMARK   10  A    between atoms: O_30  and  C_32
REMARK                            x       y       z     vdW  Elec       q    Type
REMARK                         _______ _______ _______ _____ _____    ______ ____
ROOT
ATOM      1 CL   UNL     1      34.314 -13.829 -24.753  0.00  0.00    -0.083 Cl
ATOM      2  C   UNL     1      32.503 -10.173 -22.823  0.00  0.00    +0.007 C 
ATOM      3  C   UNL     1      31.991 -11.434 -22.519  0.00  0.00    -0.005 C 
ATOM      4  C   UNL     1      33.565 -10.047 -23.716  0.00  0.00    -0.001 C 
ATOM      5  C   UNL     1      32.543 -12.570 -23.110  0.00  0.00    -0.007 C 
ATOM      6  C   UNL     1      34.118 -11.183 -24.308  0.00  0.00    +0.011 C 
ATOM      7  C   UNL     1      33.607 -12.445 -24.004  0.00  0.00    +0.054 C 
ENDROOT
BRANCH   2  12
ATOM      8  O   UNL     1      31.963  -7.877 -23.143  0.00  0.00    -0.347 OA
ATOM      9  C   UNL     1      32.119  -7.211 -20.349  0.00  0.00    +0.169 C 
ATOM     10  C   UNL     1      32.637  -8.546 -20.890  0.00  0.00    +0.171 C 
ATOM     11  C   UNL     1      32.068  -6.149 -21.447  0.00  0.00    +0.169 C 
ATOM     12  C   UNL     1      31.903  -8.938 -22.182  0.00  0.00    +0.167 C 
ATOM     13  C   UNL     1      31.338  -6.679 -22.682  0.00  0.00    +0.174 C 
BRANCH   9  14
ATOM     14  O   UNL     1      32.996  -6.743 -19.322  0.00  0.00    -0.379 OA
ATOM     15  H   UNL     1      33.044  -7.403 -18.614  0.00  0.00    +0.211 HD
ENDBRANCH   9  14
BRANCH  10  16
ATOM     16  O   UNL     1      32.413  -9.562 -19.913  0.00  0.00    -0.379 OA
ATOM     17  H   UNL     1      31.560  -9.992 -20.083  0.00  0.00    +0.211 HD
ENDBRANCH  10  16
BRANCH  11  18
ATOM     18  O   UNL     1      31.386  -4.997 -20.956  0.00  0.00    -0.379 OA
ATOM     19  H   UNL     1      31.850  -4.654 -20.176  0.00  0.00    +0.211 HD
ENDBRANCH  11  18
BRANCH  13  20
ATOM     20  C   UNL     1      31.369  -5.676 -23.830  0.00  0.00    +0.169 C 
BRANCH  20  21
ATOM     21  O   UNL     1      30.513  -4.593 -23.509  0.00  0.00    -0.379 OA
ATOM     22  H   UNL     1      30.021  -4.801 -22.700  0.00  0.00    +0.211 HD
ENDBRANCH  20  21
ENDBRANCH  13  20
ENDBRANCH   2  12
BRANCH   5  23
ATOM     23  C   UNL     1      31.967 -13.904 -22.759  0.00  0.00    +0.053 C 
BRANCH  23  24
ATOM     24  C   UNL     1      32.979 -14.878 -22.193  0.00  0.00    -0.018 C 
ATOM     25  C   UNL     1      34.827 -16.659 -21.159  0.00  0.00    +0.138 C 
ATOM     26  C   UNL     1      33.486 -15.874 -23.009  0.00  0.00    -0.001 C 
ATOM     27  C   UNL     1      33.373 -14.751 -20.873  0.00  0.00    -0.001 C 
ATOM     28  C   UNL     1      34.418 -16.772 -22.488  0.00  0.00    +0.037 C 
ATOM     29  C   UNL     1      34.305 -15.649 -20.351  0.00  0.00    +0.037 C 
BRANCH  25  30
ATOM     30  O   UNL     1      35.737 -17.535 -20.651  0.00  0.00    -0.476 OA
BRANCH  30  32
ATOM     31  O   UNL     1      35.436 -20.441 -19.834  0.00  0.00    -0.350 OA
ATOM     32  C   UNL     1      35.965 -18.731 -21.388  0.00  0.00    +0.198 C 
ATOM     33  C   UNL     1      37.248 -19.380 -20.931  0.00  0.00    +0.078 C 
ATOM     34  C   UNL     1      34.925 -19.759 -20.993  0.00  0.00    +0.185 C 
ATOM     35  C   UNL     1      36.814 -20.085 -19.662  0.00  0.00    +0.146 C 
ENDBRANCH  30  32
ENDBRANCH  25  30
ENDBRANCH  23  24
ENDBRANCH   5  23
TORSDOF 10
ENDMDL
