MODEL 1
REMARK VINA RESULT:     -11.2      0.000      0.000
REMARK  Name = 252141
REMARK  5 active torsions:
REMARK  status: ('A' for Active; 'I' for Inactive)
REMARK    1  A    between atoms: N_1  and  C_19
REMARK    2  A    between atoms: C_2  and  N_9
REMARK    3  A    between atoms: N_9  and  C_11
REMARK    4  A    between atoms: C_10  and  C_17
REMARK    5  A    between atoms: C_19  and  C_20
REMARK                            x       y       z     vdW  Elec       q    Type
REMARK                         _______ _______ _______ _____ _____    ______ ____
ROOT
ATOM      1  N   UNL     1      35.197 -18.092 -21.877  0.00  0.00    +0.390 N 
ATOM      2  C   UNL     1      34.741 -15.694 -23.490  0.00  0.00    +0.076 C 
ATOM      3  C   UNL     1      34.898 -17.081 -24.114  0.00  0.00    -0.003 C 
ATOM      4  C   UNL     1      34.240 -15.818 -22.050  0.00  0.00    -0.003 C 
ATOM      5  C   UNL     1      35.753 -17.993 -23.233  0.00  0.00    -0.075 C 
ATOM      6  C   UNL     1      35.117 -16.772 -21.237  0.00  0.00    -0.075 C 
ATOM      7  H   UNL     1      34.250 -18.464 -21.952  0.00  0.00    -0.079 HD
ENDROOT
BRANCH   2   9
ATOM      8  O   UNL     1      33.790 -16.212 -26.226  0.00  0.00    -0.275 OA
ATOM      9  N   UNL     1      33.855 -14.870 -24.273  0.00  0.00    -0.260 N 
ATOM     10  C   UNL     1      33.448 -15.206 -25.598  0.00  0.00    +0.229 C 
BRANCH   9  11
ATOM     11  C   UNL     1      33.349 -13.634 -23.682  0.00  0.00    +0.054 C 
ATOM     12  C   UNL     1      33.915 -12.462 -24.089  0.00  0.00    +0.015 C 
ATOM     13  C   UNL     1      32.345 -13.735 -22.766  0.00  0.00    +0.015 C 
ATOM     14  C   UNL     1      33.431 -11.280 -23.526  0.00  0.00    +0.001 C 
ATOM     15  C   UNL     1      31.861 -12.554 -22.202  0.00  0.00    +0.001 C 
ATOM     16  C   UNL     1      32.405 -11.327 -22.582  0.00  0.00    +0.000 C 
ENDBRANCH   9  11
BRANCH  10  17
ATOM     17  C   UNL     1      32.544 -14.180 -26.274  0.00  0.00    +0.086 C 
ATOM     18  C   UNL     1      33.248 -13.412 -27.383  0.00  0.00    +0.010 C 
ENDBRANCH  10  17
ENDBRANCH   2   9
BRANCH   1  19
ATOM     19  C   UNL     1      35.997 -19.008 -21.061  0.00  0.00    -0.050 C 
BRANCH  19  20
ATOM     20  C   UNL     1      35.148 -20.073 -20.418  0.00  0.00    -0.043 C 
ATOM     21  C   UNL     1      33.770 -20.041 -20.587  0.00  0.00    -0.006 C 
ATOM     22  C   UNL     1      35.754 -21.070 -19.667  0.00  0.00    -0.006 C 
ATOM     23  C   UNL     1      32.983 -21.026 -19.991  0.00  0.00    -0.000 C 
ATOM     24  C   UNL     1      34.966 -22.056 -19.072  0.00  0.00    -0.000 C 
ATOM     25  C   UNL     1      33.581 -22.034 -19.234  0.00  0.00    -0.000 C 
ENDBRANCH  19  20
ENDBRANCH   1  19
TORSDOF 5
ENDMDL
MODEL 2
REMARK VINA RESULT:     -10.8      1.509      2.746
REMARK  Name = 252141
REMARK  5 active torsions:
REMARK  status: ('A' for Active; 'I' for Inactive)
REMARK    1  A    between atoms: N_1  and  C_19
REMARK    2  A    between atoms: C_2  and  N_9
REMARK    3  A    between atoms: N_9  and  C_11
REMARK    4  A    between atoms: C_10  and  C_17
REMARK    5  A    between atoms: C_19  and  C_20
REMARK                            x       y       z     vdW  Elec       q    Type
REMARK                         _______ _______ _______ _____ _____    ______ ____
ROOT
ATOM      1  N   UNL     1      34.972 -17.847 -21.785  0.00  0.00    +0.390 N 
ATOM      2  C   UNL     1      34.456 -15.061 -22.516  0.00  0.00    +0.076 C 
ATOM      3  C   UNL     1      34.371 -16.200 -23.531  0.00  0.00    -0.003 C 
ATOM      4  C   UNL     1      34.212 -15.593 -21.103  0.00  0.00    -0.003 C 
ATOM      5  C   UNL     1      35.282 -17.364 -23.137  0.00  0.00    -0.075 C 
ATOM      6  C   UNL     1      35.129 -16.777 -20.789  0.00  0.00    -0.075 C 
ATOM      7  H   UNL     1      33.996 -18.146 -21.775  0.00  0.00    -0.079 HD
ENDROOT
BRANCH   2   9
ATOM      8  O   UNL     1      32.566 -13.747 -20.684  0.00  0.00    -0.275 OA
ATOM      9  N   UNL     1      33.524 -14.009 -22.836  0.00  0.00    -0.260 N 
ATOM     10  C   UNL     1      32.642 -13.432 -21.874  0.00  0.00    +0.229 C 
BRANCH   9  11
ATOM     11  C   UNL     1      33.479 -13.511 -24.208  0.00  0.00    +0.054 C 
ATOM     12  C   UNL     1      34.008 -12.278 -24.450  0.00  0.00    +0.015 C 
ATOM     13  C   UNL     1      32.914 -14.313 -25.154  0.00  0.00    +0.015 C 
ATOM     14  C   UNL     1      33.967 -11.802 -25.761  0.00  0.00    +0.001 C 
ATOM     15  C   UNL     1      32.872 -13.838 -26.465  0.00  0.00    +0.001 C 
ATOM     16  C   UNL     1      33.398 -12.582 -26.768  0.00  0.00    +0.000 C 
ENDBRANCH   9  11
BRANCH  10  17
ATOM     17  C   UNL     1      31.699 -12.365 -22.423  0.00  0.00    +0.086 C 
ATOM     18  C   UNL     1      31.145 -11.452 -21.339  0.00  0.00    +0.010 C 
ENDBRANCH  10  17
ENDBRANCH   2   9
BRANCH   1  19
ATOM     19  C   UNL     1      35.816 -18.992 -21.443  0.00  0.00    -0.050 C 
BRANCH  19  20
ATOM     20  C   UNL     1      35.065 -20.023 -20.643  0.00  0.00    -0.043 C 
ATOM     21  C   UNL     1      33.677 -20.013 -20.649  0.00  0.00    -0.006 C 
ATOM     22  C   UNL     1      35.771 -20.968 -19.911  0.00  0.00    -0.006 C 
ATOM     23  C   UNL     1      32.981 -20.967 -19.907  0.00  0.00    -0.000 C 
ATOM     24  C   UNL     1      35.074 -21.923 -19.171  0.00  0.00    -0.000 C 
ATOM     25  C   UNL     1      33.679 -21.923 -19.168  0.00  0.00    -0.000 C 
ENDBRANCH  19  20
ENDBRANCH   1  19
TORSDOF 5
ENDMDL
MODEL 3
REMARK VINA RESULT:      -9.9      3.482      6.151
REMARK  Name = 252141
REMARK  5 active torsions:
REMARK  status: ('A' for Active; 'I' for Inactive)
REMARK    1  A    between atoms: N_1  and  C_19
REMARK    2  A    between atoms: C_2  and  N_9
REMARK    3  A    between atoms: N_9  and  C_11
REMARK    4  A    between atoms: C_10  and  C_17
REMARK    5  A    between atoms: C_19  and  C_20
REMARK                            x       y       z     vdW  Elec       q    Type
REMARK                         _______ _______ _______ _____ _____    ______ ____
ROOT
ATOM      1  N   UNL     1      32.788 -13.093 -22.253  0.00  0.00    +0.390 N 
ATOM      2  C   UNL     1      32.629 -10.338 -23.225  0.00  0.00    +0.076 C 
ATOM      3  C   UNL     1      32.294 -10.716 -21.782  0.00  0.00    -0.003 C 
ATOM      4  C   UNL     1      33.590 -11.363 -23.829  0.00  0.00    -0.003 C 
ATOM      5  C   UNL     1      31.804 -12.162 -21.686  0.00  0.00    -0.075 C 
ATOM      6  C   UNL     1      33.057 -12.788 -23.665  0.00  0.00    -0.075 C 
ATOM      7  H   UNL     1      33.660 -12.983 -21.735  0.00  0.00    -0.079 HD
ENDROOT
BRANCH   2   9
ATOM      8  O   UNL     1      35.277  -9.576 -24.256  0.00  0.00    -0.275 OA
ATOM      9  N   UNL     1      33.183  -9.010 -23.299  0.00  0.00    -0.260 N 
ATOM     10  C   UNL     1      34.485  -8.738 -23.817  0.00  0.00    +0.229 C 
BRANCH   9  11
ATOM     11  C   UNL     1      32.377  -7.890 -22.821  0.00  0.00    +0.054 C 
ATOM     12  C   UNL     1      31.362  -7.456 -23.621  0.00  0.00    +0.015 C 
ATOM     13  C   UNL     1      32.691  -7.357 -21.606  0.00  0.00    +0.015 C 
ATOM     14  C   UNL     1      30.590  -6.386 -23.164  0.00  0.00    +0.001 C 
ATOM     15  C   UNL     1      31.920  -6.288 -21.149  0.00  0.00    +0.001 C 
ATOM     16  C   UNL     1      30.870  -5.803 -21.929  0.00  0.00    +0.000 C 
ENDBRANCH   9  11
BRANCH  10  17
ATOM     17  C   UNL     1      34.905  -7.272 -23.765  0.00  0.00    +0.086 C 
ATOM     18  C   UNL     1      34.638  -6.534 -25.069  0.00  0.00    +0.010 C 
ENDBRANCH  10  17
ENDBRANCH   2   9
BRANCH   1  19
ATOM     19  C   UNL     1      32.328 -14.475 -22.107  0.00  0.00    -0.050 C 
BRANCH  19  20
ATOM     20  C   UNL     1      33.471 -15.455 -22.160  0.00  0.00    -0.043 C 
ATOM     21  C   UNL     1      33.972 -15.983 -20.978  0.00  0.00    -0.006 C 
ATOM     22  C   UNL     1      34.007 -15.814 -23.389  0.00  0.00    -0.006 C 
ATOM     23  C   UNL     1      35.031 -16.890 -21.027  0.00  0.00    -0.000 C 
ATOM     24  C   UNL     1      35.065 -16.722 -23.437  0.00  0.00    -0.000 C 
ATOM     25  C   UNL     1      35.577 -17.259 -22.256  0.00  0.00    -0.000 C 
ENDBRANCH  19  20
ENDBRANCH   1  19
TORSDOF 5
ENDMDL
MODEL 4
REMARK VINA RESULT:      -9.7      3.699      6.490
REMARK  Name = 252141
REMARK  5 active torsions:
REMARK  status: ('A' for Active; 'I' for Inactive)
REMARK    1  A    between atoms: N_1  and  C_19
REMARK    2  A    between atoms: C_2  and  N_9
REMARK    3  A    between atoms: N_9  and  C_11
REMARK    4  A    between atoms: C_10  and  C_17
REMARK    5  A    between atoms: C_19  and  C_20
REMARK                            x       y       z     vdW  Elec       q    Type
REMARK                         _______ _______ _______ _____ _____    ______ ____
ROOT
ATOM      1  N   UNL     1      33.617 -12.961 -23.465  0.00  0.00    +0.390 N 
ATOM      2  C   UNL     1      32.362 -10.321 -23.350  0.00  0.00    +0.076 C 
ATOM      3  C   UNL     1      31.982 -11.448 -22.390  0.00  0.00    -0.003 C 
ATOM      4  C   UNL     1      33.786 -10.526 -23.867  0.00  0.00    -0.003 C 
ATOM      5  C   UNL     1      32.224 -12.820 -23.021  0.00  0.00    -0.075 C 
ATOM      6  C   UNL     1      33.968 -11.929 -24.450  0.00  0.00    -0.075 C 
ATOM      7  H   UNL     1      34.220 -12.838 -22.651  0.00  0.00    -0.079 HD
ENDROOT
BRANCH   2   9
ATOM      8  O   UNL     1      31.963  -9.784 -20.484  0.00  0.00    -0.275 OA
ATOM      9  N   UNL     1      32.227  -9.033 -22.717  0.00  0.00    -0.260 N 
ATOM     10  C   UNL     1      32.035  -8.872 -21.312  0.00  0.00    +0.229 C 
BRANCH   9  11
ATOM     11  C   UNL     1      32.289  -7.836 -23.552  0.00  0.00    +0.054 C 
ATOM     12  C   UNL     1      33.524  -7.343 -23.858  0.00  0.00    +0.015 C 
ATOM     13  C   UNL     1      31.111  -7.294 -23.969  0.00  0.00    +0.015 C 
ATOM     14  C   UNL     1      33.583  -6.200 -24.657  0.00  0.00    +0.001 C 
ATOM     15  C   UNL     1      31.170  -6.151 -24.768  0.00  0.00    +0.001 C 
ATOM     16  C   UNL     1      32.407  -5.605 -25.111  0.00  0.00    +0.000 C 
ENDBRANCH   9  11
BRANCH  10  17
ATOM     17  C   UNL     1      31.868  -7.429 -20.845  0.00  0.00    +0.086 C 
ATOM     18  C   UNL     1      32.981  -6.978 -19.911  0.00  0.00    +0.010 C 
ENDBRANCH  10  17
ENDBRANCH   2   9
BRANCH   1  19
ATOM     19  C   UNL     1      33.845 -14.297 -24.019  0.00  0.00    -0.050 C 
BRANCH  19  20
ATOM     20  C   UNL     1      34.293 -15.273 -22.964  0.00  0.00    -0.043 C 
ATOM     21  C   UNL     1      34.728 -16.535 -23.343  0.00  0.00    -0.006 C 
ATOM     22  C   UNL     1      34.263 -14.897 -21.628  0.00  0.00    -0.006 C 
ATOM     23  C   UNL     1      35.143 -17.440 -22.366  0.00  0.00    -0.000 C 
ATOM     24  C   UNL     1      34.679 -15.802 -20.651  0.00  0.00    -0.000 C 
ATOM     25  C   UNL     1      35.118 -17.073 -21.020  0.00  0.00    -0.000 C 
ENDBRANCH  19  20
ENDBRANCH   1  19
TORSDOF 5
ENDMDL
MODEL 5
REMARK VINA RESULT:      -9.7      1.927      2.767
REMARK  Name = 252141
REMARK  5 active torsions:
REMARK  status: ('A' for Active; 'I' for Inactive)
REMARK    1  A    between atoms: N_1  and  C_19
REMARK    2  A    between atoms: C_2  and  N_9
REMARK    3  A    between atoms: N_9  and  C_11
REMARK    4  A    between atoms: C_10  and  C_17
REMARK    5  A    between atoms: C_19  and  C_20
REMARK                            x       y       z     vdW  Elec       q    Type
REMARK                         _______ _______ _______ _____ _____    ______ ____
ROOT
ATOM      1  N   UNL     1      35.784 -20.068 -20.511  0.00  0.00    +0.390 N 
ATOM      2  C   UNL     1      35.208 -18.168 -22.661  0.00  0.00    +0.076 C 
ATOM      3  C   UNL     1      34.237 -19.283 -22.275  0.00  0.00    -0.003 C 
ATOM      4  C   UNL     1      36.099 -17.809 -21.470  0.00  0.00    -0.003 C 
ATOM      5  C   UNL     1      34.976 -20.477 -21.667  0.00  0.00    -0.075 C 
ATOM      6  C   UNL     1      36.776 -19.052 -20.889  0.00  0.00    -0.075 C 
ATOM      7  H   UNL     1      35.157 -19.654 -19.820  0.00  0.00    -0.079 HD
ENDROOT
BRANCH   2   9
ATOM      8  O   UNL     1      34.728 -17.416 -25.464  0.00  0.00    -0.275 OA
ATOM      9  N   UNL     1      34.501 -17.007 -23.140  0.00  0.00    -0.260 N 
ATOM     10  C   UNL     1      34.319 -16.725 -24.527  0.00  0.00    +0.229 C 
BRANCH   9  11
ATOM     11  C   UNL     1      33.946 -16.075 -22.162  0.00  0.00    +0.054 C 
ATOM     12  C   UNL     1      34.570 -14.872 -22.011  0.00  0.00    +0.015 C 
ATOM     13  C   UNL     1      32.842 -16.470 -21.469  0.00  0.00    +0.015 C 
ATOM     14  C   UNL     1      34.039 -13.981 -21.077  0.00  0.00    +0.001 C 
ATOM     15  C   UNL     1      32.311 -15.580 -20.535  0.00  0.00    +0.001 C 
ATOM     16  C   UNL     1      32.910 -14.336 -20.339  0.00  0.00    +0.000 C 
ENDBRANCH   9  11
BRANCH  10  17
ATOM     17  C   UNL     1      33.583 -15.423 -24.828  0.00  0.00    +0.086 C 
ATOM     18  C   UNL     1      33.139 -15.317 -26.279  0.00  0.00    +0.010 C 
ENDBRANCH  10  17
ENDBRANCH   2   9
BRANCH   1  19
ATOM     19  C   UNL     1      36.443 -21.228 -19.910  0.00  0.00    -0.050 C 
BRANCH  19  20
ATOM     20  C   UNL     1      35.593 -21.866 -18.843  0.00  0.00    -0.043 C 
ATOM     21  C   UNL     1      34.281 -22.214 -19.135  0.00  0.00    -0.006 C 
ATOM     22  C   UNL     1      36.132 -22.096 -17.585  0.00  0.00    -0.006 C 
ATOM     23  C   UNL     1      33.492 -22.805 -18.148  0.00  0.00    -0.000 C 
ATOM     24  C   UNL     1      35.343 -22.688 -16.599  0.00  0.00    -0.000 C 
ATOM     25  C   UNL     1      34.023 -23.042 -16.880  0.00  0.00    -0.000 C 
ENDBRANCH  19  20
ENDBRANCH   1  19
TORSDOF 5
ENDMDL
MODEL 6
REMARK VINA RESULT:      -9.6      3.918      9.892
REMARK  Name = 252141
REMARK  5 active torsions:
REMARK  status: ('A' for Active; 'I' for Inactive)
REMARK    1  A    between atoms: N_1  and  C_19
REMARK    2  A    between atoms: C_2  and  N_9
REMARK    3  A    between atoms: N_9  and  C_11
REMARK    4  A    between atoms: C_10  and  C_17
REMARK    5  A    between atoms: C_19  and  C_20
REMARK                            x       y       z     vdW  Elec       q    Type
REMARK                         _______ _______ _______ _____ _____    ______ ____
ROOT
ATOM      1  N   UNL     1      33.646  -8.428 -23.905  0.00  0.00    +0.390 N 
ATOM      2  C   UNL     1      33.843 -11.308 -23.428  0.00  0.00    +0.076 C 
ATOM      3  C   UNL     1      32.540 -10.535 -23.230  0.00  0.00    -0.003 C 
ATOM      4  C   UNL     1      34.738 -10.584 -24.435  0.00  0.00    -0.003 C 
ATOM      5  C   UNL     1      32.811  -9.070 -22.882  0.00  0.00    -0.075 C 
ATOM      6  C   UNL     1      34.936  -9.118 -24.047  0.00  0.00    -0.075 C 
ATOM      7  H   UNL     1      33.156  -8.492 -24.797  0.00  0.00    -0.079 HD
ENDROOT
BRANCH   2   9
ATOM      8  O   UNL     1      33.420 -12.253 -26.182  0.00  0.00    -0.275 OA
ATOM      9  N   UNL     1      33.584 -12.661 -23.853  0.00  0.00    -0.260 N 
ATOM     10  C   UNL     1      33.391 -13.024 -25.219  0.00  0.00    +0.229 C 
BRANCH   9  11
ATOM     11  C   UNL     1      33.516 -13.710 -22.838  0.00  0.00    +0.054 C 
ATOM     12  C   UNL     1      32.393 -13.771 -22.067  0.00  0.00    +0.015 C 
ATOM     13  C   UNL     1      34.579 -14.557 -22.732  0.00  0.00    +0.015 C 
ATOM     14  C   UNL     1      32.328 -14.773 -21.098  0.00  0.00    +0.001 C 
ATOM     15  C   UNL     1      34.514 -15.559 -21.764  0.00  0.00    +0.001 C 
ATOM     16  C   UNL     1      33.388 -15.666 -20.947  0.00  0.00    +0.000 C 
ENDBRANCH   9  11
BRANCH  10  17
ATOM     17  C   UNL     1      33.082 -14.499 -25.456  0.00  0.00    +0.086 C 
ATOM     18  C   UNL     1      32.710 -14.801 -26.900  0.00  0.00    +0.010 C 
ENDBRANCH  10  17
ENDBRANCH   2   9
BRANCH   1  19
ATOM     19  C   UNL     1      33.854  -7.015 -23.584  0.00  0.00    -0.050 C 
BRANCH  19  20
ATOM     20  C   UNL     1      33.521  -6.121 -24.750  0.00  0.00    -0.043 C 
ATOM     21  C   UNL     1      32.296  -5.470 -24.782  0.00  0.00    -0.006 C 
ATOM     22  C   UNL     1      34.444  -5.962 -25.775  0.00  0.00    -0.006 C 
ATOM     23  C   UNL     1      31.987  -4.643 -25.861  0.00  0.00    -0.000 C 
ATOM     24  C   UNL     1      34.134  -5.133 -26.853  0.00  0.00    -0.000 C 
ATOM     25  C   UNL     1      32.906  -4.474 -26.897  0.00  0.00    -0.000 C 
ENDBRANCH  19  20
ENDBRANCH   1  19
TORSDOF 5
ENDMDL
MODEL 7
REMARK VINA RESULT:      -9.5      5.435     11.248
REMARK  Name = 252141
REMARK  5 active torsions:
REMARK  status: ('A' for Active; 'I' for Inactive)
REMARK    1  A    between atoms: N_1  and  C_19
REMARK    2  A    between atoms: C_2  and  N_9
REMARK    3  A    between atoms: N_9  and  C_11
REMARK    4  A    between atoms: C_10  and  C_17
REMARK    5  A    between atoms: C_19  and  C_20
REMARK                            x       y       z     vdW  Elec       q    Type
REMARK                         _______ _______ _______ _____ _____    ______ ____
ROOT
ATOM      1  N   UNL     1      35.243 -21.896 -18.575  0.00  0.00    +0.390 N 
ATOM      2  C   UNL     1      35.053 -23.467 -16.113  0.00  0.00    +0.076 C 
ATOM      3  C   UNL     1      36.032 -22.303 -16.266  0.00  0.00    -0.003 C 
ATOM      4  C   UNL     1      33.865 -23.284 -17.060  0.00  0.00    -0.003 C 
ATOM      5  C   UNL     1      36.427 -22.098 -17.729  0.00  0.00    -0.075 C 
ATOM      6  C   UNL     1      34.332 -23.047 -18.497  0.00  0.00    -0.075 C 
ATOM      7  H   UNL     1      34.745 -21.076 -18.228  0.00  0.00    -0.079 HD
ENDROOT
BRANCH   2   9
ATOM      8  O   UNL     1      36.724 -23.456 -13.691  0.00  0.00    -0.275 OA
ATOM      9  N   UNL     1      34.606 -23.594 -14.749  0.00  0.00    -0.260 N 
ATOM     10  C   UNL     1      35.497 -23.578 -13.634  0.00  0.00    +0.229 C 
BRANCH   9  11
ATOM     11  C   UNL     1      33.176 -23.746 -14.495  0.00  0.00    +0.054 C 
ATOM     12  C   UNL     1      32.723 -24.988 -14.159  0.00  0.00    +0.015 C 
ATOM     13  C   UNL     1      32.393 -22.637 -14.607  0.00  0.00    +0.015 C 
ATOM     14  C   UNL     1      31.356 -25.133 -13.916  0.00  0.00    +0.001 C 
ATOM     15  C   UNL     1      31.026 -22.782 -14.363  0.00  0.00    +0.001 C 
ATOM     16  C   UNL     1      30.509 -24.031 -14.018  0.00  0.00    +0.000 C 
ENDBRANCH   9  11
BRANCH  10  17
ATOM     17  C   UNL     1      34.831 -23.773 -12.275  0.00  0.00    +0.086 C 
ATOM     18  C   UNL     1      35.702 -24.548 -11.297  0.00  0.00    +0.010 C 
ENDBRANCH  10  17
ENDBRANCH   2   9
BRANCH   1  19
ATOM     19  C   UNL     1      35.640 -21.651 -19.962  0.00  0.00    -0.050 C 
BRANCH  19  20
ATOM     20  C   UNL     1      35.156 -20.313 -20.455  0.00  0.00    -0.043 C 
ATOM     21  C   UNL     1      33.792 -20.082 -20.573  0.00  0.00    -0.006 C 
ATOM     22  C   UNL     1      36.080 -19.330 -20.784  0.00  0.00    -0.006 C 
ATOM     23  C   UNL     1      33.343 -18.843 -21.031  0.00  0.00    -0.000 C 
ATOM     24  C   UNL     1      35.630 -18.091 -21.240  0.00  0.00    -0.000 C 
ATOM     25  C   UNL     1      34.262 -17.848 -21.364  0.00  0.00    -0.000 C 
ENDBRANCH  19  20
ENDBRANCH   1  19
TORSDOF 5
ENDMDL
MODEL 8
REMARK VINA RESULT:      -9.3      2.309      7.802
REMARK  Name = 252141
REMARK  5 active torsions:
REMARK  status: ('A' for Active; 'I' for Inactive)
REMARK    1  A    between atoms: N_1  and  C_19
REMARK    2  A    between atoms: C_2  and  N_9
REMARK    3  A    between atoms: N_9  and  C_11
REMARK    4  A    between atoms: C_10  and  C_17
REMARK    5  A    between atoms: C_19  and  C_20
REMARK                            x       y       z     vdW  Elec       q    Type
REMARK                         _______ _______ _______ _____ _____    ______ ____
ROOT
ATOM      1  N   UNL     1      32.541 -13.811 -20.743  0.00  0.00    +0.390 N 
ATOM      2  C   UNL     1      34.074 -16.286 -21.037  0.00  0.00    +0.076 C 
ATOM      3  C   UNL     1      32.545 -16.268 -21.033  0.00  0.00    -0.003 C 
ATOM      4  C   UNL     1      34.616 -14.930 -21.492  0.00  0.00    -0.003 C 
ATOM      5  C   UNL     1      32.006 -15.081 -20.233  0.00  0.00    -0.075 C 
ATOM      6  C   UNL     1      34.008 -13.787 -20.676  0.00  0.00    -0.075 C 
ATOM      7  H   UNL     1      32.269 -13.727 -21.723  0.00  0.00    -0.079 HD
ENDROOT
BRANCH   2   9
ATOM      8  O   UNL     1      34.354 -16.255 -23.966  0.00  0.00    -0.275 OA
ATOM      9  N   UNL     1      34.578 -17.346 -21.873  0.00  0.00    -0.260 N 
ATOM     10  C   UNL     1      34.676 -17.238 -23.292  0.00  0.00    +0.229 C 
BRANCH   9  11
ATOM     11  C   UNL     1      35.009 -18.589 -21.239  0.00  0.00    +0.054 C 
ATOM     12  C   UNL     1      34.045 -19.490 -20.895  0.00  0.00    +0.015 C 
ATOM     13  C   UNL     1      36.345 -18.765 -21.036  0.00  0.00    +0.015 C 
ATOM     14  C   UNL     1      34.457 -20.678 -20.289  0.00  0.00    +0.001 C 
ATOM     15  C   UNL     1      36.757 -19.954 -20.431  0.00  0.00    +0.001 C 
ATOM     16  C   UNL     1      35.812 -20.909 -20.058  0.00  0.00    +0.000 C 
ENDBRANCH   9  11
BRANCH  10  17
ATOM     17  C   UNL     1      35.192 -18.487 -24.000  0.00  0.00    +0.086 C 
ATOM     18  C   UNL     1      34.249 -18.983 -25.086  0.00  0.00    +0.010 C 
ENDBRANCH  10  17
ENDBRANCH   2   9
BRANCH   1  19
ATOM     19  C   UNL     1      31.976 -12.683 -20.001  0.00  0.00    -0.050 C 
BRANCH  19  20
ATOM     20  C   UNL     1      31.943 -11.427 -20.831  0.00  0.00    -0.043 C 
ATOM     21  C   UNL     1      31.965 -10.191 -20.199  0.00  0.00    -0.006 C 
ATOM     22  C   UNL     1      31.891 -11.523 -22.215  0.00  0.00    -0.006 C 
ATOM     23  C   UNL     1      31.934  -9.027 -20.967  0.00  0.00    -0.000 C 
ATOM     24  C   UNL     1      31.861 -10.358 -22.982  0.00  0.00    -0.000 C 
ATOM     25  C   UNL     1      31.882  -9.111 -22.358  0.00  0.00    -0.000 C 
ENDBRANCH  19  20
ENDBRANCH   1  19
TORSDOF 5
ENDMDL
MODEL 9
REMARK VINA RESULT:      -9.3      3.091      5.767
REMARK  Name = 252141
REMARK  5 active torsions:
REMARK  status: ('A' for Active; 'I' for Inactive)
REMARK    1  A    between atoms: N_1  and  C_19
REMARK    2  A    between atoms: C_2  and  N_9
REMARK    3  A    between atoms: N_9  and  C_11
REMARK    4  A    between atoms: C_10  and  C_17
REMARK    5  A    between atoms: C_19  and  C_20
REMARK                            x       y       z     vdW  Elec       q    Type
REMARK                         _______ _______ _______ _____ _____    ______ ____
ROOT
ATOM      1  N   UNL     1      33.695 -14.023 -24.365  0.00  0.00    +0.390 N 
ATOM      2  C   UNL     1      32.336 -11.619 -23.397  0.00  0.00    +0.076 C 
ATOM      3  C   UNL     1      32.140 -12.987 -22.744  0.00  0.00    -0.003 C 
ATOM      4  C   UNL     1      33.690 -11.562 -24.106  0.00  0.00    -0.003 C 
ATOM      5  C   UNL     1      32.366 -14.119 -23.747  0.00  0.00    -0.075 C 
ATOM      6  C   UNL     1      33.864 -12.742 -25.065  0.00  0.00    -0.075 C 
ATOM      7  H   UNL     1      34.392 -14.069 -23.621  0.00  0.00    -0.079 HD
ENDROOT
BRANCH   2   9
ATOM      8  O   UNL     1      31.792 -11.899 -20.519  0.00  0.00    -0.275 OA
ATOM      9  N   UNL     1      32.221 -10.559 -22.427  0.00  0.00    -0.260 N 
ATOM     10  C   UNL     1      31.953 -10.795 -21.045  0.00  0.00    +0.229 C 
BRANCH   9  11
ATOM     11  C   UNL     1      32.385  -9.180 -22.879  0.00  0.00    +0.054 C 
ATOM     12  C   UNL     1      33.628  -8.628 -22.781  0.00  0.00    +0.015 C 
ATOM     13  C   UNL     1      31.287  -8.540 -23.369  0.00  0.00    +0.015 C 
ATOM     14  C   UNL     1      33.786  -7.310 -23.213  0.00  0.00    +0.001 C 
ATOM     15  C   UNL     1      31.444  -7.223 -23.801  0.00  0.00    +0.001 C 
ATOM     16  C   UNL     1      32.694  -6.609 -23.723  0.00  0.00    +0.000 C 
ENDBRANCH   9  11
BRANCH  10  17
ATOM     17  C   UNL     1      31.822  -9.538 -20.191  0.00  0.00    +0.086 C 
ATOM     18  C   UNL     1      31.397  -9.836 -18.761  0.00  0.00    +0.010 C 
ENDBRANCH  10  17
ENDBRANCH   2   9
BRANCH   1  19
ATOM     19  C   UNL     1      33.916 -15.141 -25.283  0.00  0.00    -0.050 C 
BRANCH  19  20
ATOM     20  C   UNL     1      34.400 -16.371 -24.563  0.00  0.00    -0.043 C 
ATOM     21  C   UNL     1      35.035 -16.238 -23.336  0.00  0.00    -0.006 C 
ATOM     22  C   UNL     1      34.204 -17.621 -25.136  0.00  0.00    -0.006 C 
ATOM     23  C   UNL     1      35.484 -17.377 -22.668  0.00  0.00    -0.000 C 
ATOM     24  C   UNL     1      34.653 -18.760 -24.467  0.00  0.00    -0.000 C 
ATOM     25  C   UNL     1      35.293 -18.638 -23.234  0.00  0.00    -0.000 C 
ENDBRANCH  19  20
ENDBRANCH   1  19
TORSDOF 5
ENDMDL
