MODEL 1
REMARK VINA RESULT:     -10.2      0.000      0.000
REMARK  Name = 114829
REMARK  3 active torsions:
REMARK  status: ('A' for Active; 'I' for Inactive)
REMARK    1  A    between atoms: C_3  and  C_12
REMARK    2  A    between atoms: C_10  and  O_20
REMARK    3  A    between atoms: C_17  and  O_18
REMARK                            x       y       z     vdW  Elec       q    Type
REMARK                         _______ _______ _______ _____ _____    ______ ____
ROOT
ATOM      1  O   UNL     1      33.857 -17.094 -21.119  0.00  0.00    -0.474 OA
ATOM      2  O   UNL     1      35.127 -16.781 -25.007  0.00  0.00    -0.291 OA
ATOM      3  C   UNL     1      34.004 -18.265 -21.940  0.00  0.00    +0.196 C 
ATOM      4  C   UNL     1      35.102 -18.068 -22.983  0.00  0.00    +0.117 C 
ATOM      5  C   UNL     1      34.757 -16.880 -23.844  0.00  0.00    +0.180 C 
ATOM      6  C   UNL     1      33.999 -15.799 -23.180  0.00  0.00    +0.069 C 
ATOM      7  C   UNL     1      33.611 -15.959 -21.846  0.00  0.00    +0.145 C 
ATOM      8  C   UNL     1      33.712 -14.614 -23.861  0.00  0.00    +0.009 C 
ATOM      9  C   UNL     1      32.965 -14.916 -21.182  0.00  0.00    +0.074 C 
ATOM     10  C   UNL     1      32.678 -13.730 -21.861  0.00  0.00    +0.137 C 
ATOM     11  C   UNL     1      33.047 -13.583 -23.198  0.00  0.00    +0.037 C 
ENDROOT
BRANCH   3  12
ATOM     12  C   UNL     1      34.308 -19.444 -21.041  0.00  0.00    +0.018 C 
ATOM     13  C   UNL     1      33.264 -20.167 -20.464  0.00  0.00    +0.002 C 
ATOM     14  C   UNL     1      35.631 -19.808 -20.792  0.00  0.00    +0.002 C 
ATOM     15  C   UNL     1      33.544 -21.255 -19.638  0.00  0.00    +0.036 C 
ATOM     16  C   UNL     1      35.911 -20.897 -19.965  0.00  0.00    +0.036 C 
ATOM     17  C   UNL     1      34.867 -21.620 -19.388  0.00  0.00    +0.134 C 
BRANCH  17  18
ATOM     18  O   UNL     1      35.141 -22.681 -18.581  0.00  0.00    -0.506 OA
ATOM     19  H   UNL     1      34.726 -22.752 -17.743  0.00  0.00    +0.292 HD
ENDBRANCH  17  18
ENDBRANCH   3  12
BRANCH  10  20
ATOM     20  O   UNL     1      32.036 -12.717 -21.216  0.00  0.00    -0.505 OA
ATOM     21  H   UNL     1      31.458 -12.153 -21.691  0.00  0.00    +0.292 HD
ENDBRANCH  10  20
TORSDOF 3
ENDMDL
MODEL 2
REMARK VINA RESULT:      -9.8      1.757      6.607
REMARK  Name = 114829
REMARK  3 active torsions:
REMARK  status: ('A' for Active; 'I' for Inactive)
REMARK    1  A    between atoms: C_3  and  C_12
REMARK    2  A    between atoms: C_10  and  O_20
REMARK    3  A    between atoms: C_17  and  O_18
REMARK                            x       y       z     vdW  Elec       q    Type
REMARK                         _______ _______ _______ _____ _____    ______ ____
ROOT
ATOM      1  O   UNL     1      33.909 -18.719 -21.812  0.00  0.00    -0.474 OA
ATOM      2  O   UNL     1      37.878 -19.339 -20.986  0.00  0.00    -0.291 OA
ATOM      3  C   UNL     1      34.856 -17.644 -21.915  0.00  0.00    +0.196 C 
ATOM      4  C   UNL     1      36.241 -18.169 -22.290  0.00  0.00    +0.117 C 
ATOM      5  C   UNL     1      36.696 -19.151 -21.242  0.00  0.00    +0.180 C 
ATOM      6  C   UNL     1      35.630 -19.935 -20.585  0.00  0.00    +0.069 C 
ATOM      7  C   UNL     1      34.296 -19.689 -20.924  0.00  0.00    +0.145 C 
ATOM      8  C   UNL     1      35.951 -20.940 -19.669  0.00  0.00    +0.009 C 
ATOM      9  C   UNL     1      33.283 -20.474 -20.371  0.00  0.00    +0.074 C 
ATOM     10  C   UNL     1      33.603 -21.479 -19.457  0.00  0.00    +0.137 C 
ATOM     11  C   UNL     1      34.933 -21.707 -19.104  0.00  0.00    +0.037 C 
ENDROOT
BRANCH   3  12
ATOM     12  C   UNL     1      34.349 -16.656 -22.943  0.00  0.00    +0.018 C 
ATOM     13  C   UNL     1      34.452 -16.952 -24.303  0.00  0.00    +0.002 C 
ATOM     14  C   UNL     1      33.778 -15.453 -22.532  0.00  0.00    +0.002 C 
ATOM     15  C   UNL     1      33.983 -16.043 -25.251  0.00  0.00    +0.036 C 
ATOM     16  C   UNL     1      33.308 -14.543 -23.480  0.00  0.00    +0.036 C 
ATOM     17  C   UNL     1      33.411 -14.839 -24.840  0.00  0.00    +0.134 C 
BRANCH  17  18
ATOM     18  O   UNL     1      32.954 -13.951 -25.765  0.00  0.00    -0.506 OA
ATOM     19  H   UNL     1      33.463 -13.194 -25.979  0.00  0.00    +0.292 HD
ENDBRANCH  17  18
ENDBRANCH   3  12
BRANCH  10  20
ATOM     20  O   UNL     1      32.614 -22.237 -18.907  0.00  0.00    -0.505 OA
ATOM     21  H   UNL     1      32.731 -23.162 -18.813  0.00  0.00    +0.292 HD
ENDBRANCH  10  20
TORSDOF 3
ENDMDL
MODEL 3
REMARK VINA RESULT:      -9.8      2.659      7.448
REMARK  Name = 114829
REMARK  3 active torsions:
REMARK  status: ('A' for Active; 'I' for Inactive)
REMARK    1  A    between atoms: C_3  and  C_12
REMARK    2  A    between atoms: C_10  and  O_20
REMARK    3  A    between atoms: C_17  and  O_18
REMARK                            x       y       z     vdW  Elec       q    Type
REMARK                         _______ _______ _______ _____ _____    ______ ____
ROOT
ATOM      1  O   UNL     1      33.817 -14.448 -22.525  0.00  0.00    -0.474 OA
ATOM      2  O   UNL     1      33.809 -16.159 -26.253  0.00  0.00    -0.291 OA
ATOM      3  C   UNL     1      33.856 -13.632 -23.707  0.00  0.00    +0.196 C 
ATOM      4  C   UNL     1      33.141 -14.317 -24.869  0.00  0.00    +0.117 C 
ATOM      5  C   UNL     1      33.802 -15.644 -25.142  0.00  0.00    +0.180 C 
ATOM      6  C   UNL     1      34.386 -16.328 -23.970  0.00  0.00    +0.069 C 
ATOM      7  C   UNL     1      34.340 -15.699 -22.722  0.00  0.00    +0.145 C 
ATOM      8  C   UNL     1      34.937 -17.605 -24.097  0.00  0.00    +0.009 C 
ATOM      9  C   UNL     1      34.816 -16.365 -21.592  0.00  0.00    +0.074 C 
ATOM     10  C   UNL     1      35.366 -17.642 -21.716  0.00  0.00    +0.137 C 
ATOM     11  C   UNL     1      35.430 -18.257 -22.967  0.00  0.00    +0.037 C 
ENDROOT
BRANCH   3  12
ATOM     12  C   UNL     1      33.223 -12.295 -23.387  0.00  0.00    +0.018 C 
ATOM     13  C   UNL     1      33.678 -11.139 -24.022  0.00  0.00    +0.002 C 
ATOM     14  C   UNL     1      32.185 -12.220 -22.460  0.00  0.00    +0.002 C 
ATOM     15  C   UNL     1      33.093  -9.908 -23.729  0.00  0.00    +0.036 C 
ATOM     16  C   UNL     1      31.599 -10.987 -22.167  0.00  0.00    +0.036 C 
ATOM     17  C   UNL     1      32.054  -9.831 -22.802  0.00  0.00    +0.134 C 
BRANCH  17  18
ATOM     18  O   UNL     1      31.484  -8.629 -22.515  0.00  0.00    -0.506 OA
ATOM     19  H   UNL     1      30.565  -8.503 -22.646  0.00  0.00    +0.292 HD
ENDBRANCH  17  18
ENDBRANCH   3  12
BRANCH  10  20
ATOM     20  O   UNL     1      35.842 -18.287 -20.616  0.00  0.00    -0.505 OA
ATOM     21  H   UNL     1      36.535 -18.911 -20.702  0.00  0.00    +0.292 HD
ENDBRANCH  10  20
TORSDOF 3
ENDMDL
MODEL 4
REMARK VINA RESULT:      -9.7      1.303      1.835
REMARK  Name = 114829
REMARK  3 active torsions:
REMARK  status: ('A' for Active; 'I' for Inactive)
REMARK    1  A    between atoms: C_3  and  C_12
REMARK    2  A    between atoms: C_10  and  O_20
REMARK    3  A    between atoms: C_17  and  O_18
REMARK                            x       y       z     vdW  Elec       q    Type
REMARK                         _______ _______ _______ _____ _____    ______ ____
ROOT
ATOM      1  O   UNL     1      34.677 -17.878 -21.308  0.00  0.00    -0.474 OA
ATOM      2  O   UNL     1      34.622 -18.769 -25.312  0.00  0.00    -0.291 OA
ATOM      3  C   UNL     1      34.194 -19.150 -21.771  0.00  0.00    +0.196 C 
ATOM      4  C   UNL     1      34.891 -19.563 -23.065  0.00  0.00    +0.117 C 
ATOM      5  C   UNL     1      34.645 -18.511 -24.115  0.00  0.00    +0.180 C 
ATOM      6  C   UNL     1      34.503 -17.126 -23.621  0.00  0.00    +0.069 C 
ATOM      7  C   UNL     1      34.549 -16.885 -22.244  0.00  0.00    +0.145 C 
ATOM      8  C   UNL     1      34.367 -16.064 -24.518  0.00  0.00    +0.009 C 
ATOM      9  C   UNL     1      34.495 -15.576 -21.766  0.00  0.00    +0.074 C 
ATOM     10  C   UNL     1      34.361 -14.513 -22.662  0.00  0.00    +0.137 C 
ATOM     11  C   UNL     1      34.293 -14.758 -24.034  0.00  0.00    +0.037 C 
ENDROOT
BRANCH   3  12
ATOM     12  C   UNL     1      34.418 -20.173 -20.678  0.00  0.00    +0.018 C 
ATOM     13  C   UNL     1      35.715 -20.486 -20.272  0.00  0.00    +0.002 C 
ATOM     14  C   UNL     1      33.328 -20.801 -20.077  0.00  0.00    +0.002 C 
ATOM     15  C   UNL     1      35.922 -21.427 -19.264  0.00  0.00    +0.036 C 
ATOM     16  C   UNL     1      33.535 -21.743 -19.068  0.00  0.00    +0.036 C 
ATOM     17  C   UNL     1      34.832 -22.055 -18.662  0.00  0.00    +0.134 C 
BRANCH  17  18
ATOM     18  O   UNL     1      35.034 -22.975 -17.679  0.00  0.00    -0.506 OA
ATOM     19  H   UNL     1      35.232 -23.863 -17.901  0.00  0.00    +0.292 HD
ENDBRANCH  17  18
ENDBRANCH   3  12
BRANCH  10  20
ATOM     20  O   UNL     1      34.296 -13.236 -22.195  0.00  0.00    -0.505 OA
ATOM     21  H   UNL     1      35.075 -12.719 -22.135  0.00  0.00    +0.292 HD
ENDBRANCH  10  20
TORSDOF 3
ENDMDL
MODEL 5
REMARK VINA RESULT:      -9.4      8.234     11.717
REMARK  Name = 114829
REMARK  3 active torsions:
REMARK  status: ('A' for Active; 'I' for Inactive)
REMARK    1  A    between atoms: C_3  and  C_12
REMARK    2  A    between atoms: C_10  and  O_20
REMARK    3  A    between atoms: C_17  and  O_18
REMARK                            x       y       z     vdW  Elec       q    Type
REMARK                         _______ _______ _______ _____ _____    ______ ____
ROOT
ATOM      1  O   UNL     1      35.277 -24.239 -14.958  0.00  0.00    -0.474 OA
ATOM      2  O   UNL     1      35.386 -24.903 -10.911  0.00  0.00    -0.291 OA
ATOM      3  C   UNL     1      34.079 -24.562 -14.234  0.00  0.00    +0.196 C 
ATOM      4  C   UNL     1      34.158 -24.064 -12.793  0.00  0.00    +0.117 C 
ATOM      5  C   UNL     1      35.347 -24.696 -12.118  0.00  0.00    +0.180 C 
ATOM      6  C   UNL     1      36.504 -24.992 -12.989  0.00  0.00    +0.069 C 
ATOM      7  C   UNL     1      36.410 -24.725 -14.359  0.00  0.00    +0.145 C 
ATOM      8  C   UNL     1      37.690 -25.489 -12.447  0.00  0.00    +0.009 C 
ATOM      9  C   UNL     1      37.519 -24.924 -15.182  0.00  0.00    +0.074 C 
ATOM     10  C   UNL     1      38.707 -25.420 -14.641  0.00  0.00    +0.137 C 
ATOM     11  C   UNL     1      38.790 -25.706 -13.278  0.00  0.00    +0.037 C 
ENDROOT
BRANCH   3  12
ATOM     12  C   UNL     1      32.901 -23.947 -14.961  0.00  0.00    +0.018 C 
ATOM     13  C   UNL     1      33.057 -23.475 -16.264  0.00  0.00    +0.002 C 
ATOM     14  C   UNL     1      31.662 -23.855 -14.328  0.00  0.00    +0.002 C 
ATOM     15  C   UNL     1      31.972 -22.911 -16.935  0.00  0.00    +0.036 C 
ATOM     16  C   UNL     1      30.577 -23.290 -14.999  0.00  0.00    +0.036 C 
ATOM     17  C   UNL     1      30.732 -22.818 -16.302  0.00  0.00    +0.134 C 
BRANCH  17  18
ATOM     18  O   UNL     1      29.674 -22.266 -16.956  0.00  0.00    -0.506 OA
ATOM     19  H   UNL     1      29.620 -21.337 -17.061  0.00  0.00    +0.292 HD
ENDBRANCH  17  18
ENDBRANCH   3  12
BRANCH  10  20
ATOM     20  O   UNL     1      39.785 -25.627 -15.446  0.00  0.00    -0.505 OA
ATOM     21  H   UNL     1      40.215 -24.898 -15.848  0.00  0.00    +0.292 HD
ENDBRANCH  10  20
TORSDOF 3
ENDMDL
MODEL 6
REMARK VINA RESULT:      -9.3      3.053      7.986
REMARK  Name = 114829
REMARK  3 active torsions:
REMARK  status: ('A' for Active; 'I' for Inactive)
REMARK    1  A    between atoms: C_3  and  C_12
REMARK    2  A    between atoms: C_10  and  O_20
REMARK    3  A    between atoms: C_17  and  O_18
REMARK                            x       y       z     vdW  Elec       q    Type
REMARK                         _______ _______ _______ _____ _____    ______ ____
ROOT
ATOM      1  O   UNL     1      36.040 -20.993 -18.707  0.00  0.00    -0.474 OA
ATOM      2  O   UNL     1      32.529 -23.034 -18.128  0.00  0.00    -0.291 OA
ATOM      3  C   UNL     1      35.146 -21.243 -19.804  0.00  0.00    +0.196 C 
ATOM      4  C   UNL     1      33.698 -21.316 -19.325  0.00  0.00    +0.117 C 
ATOM      5  C   UNL     1      33.571 -22.416 -18.304  0.00  0.00    +0.180 C 
ATOM      6  C   UNL     1      34.765 -22.664 -17.469  0.00  0.00    +0.069 C 
ATOM      7  C   UNL     1      35.927 -21.921 -17.704  0.00  0.00    +0.145 C 
ATOM      8  C   UNL     1      34.722 -23.596 -16.430  0.00  0.00    +0.009 C 
ATOM      9  C   UNL     1      37.036 -22.087 -16.875  0.00  0.00    +0.074 C 
ATOM     10  C   UNL     1      36.995 -23.017 -15.834  0.00  0.00    +0.137 C 
ATOM     11  C   UNL     1      35.842 -23.772 -15.616  0.00  0.00    +0.037 C 
ENDROOT
BRANCH   3  12
ATOM     12  C   UNL     1      35.328 -20.144 -20.829  0.00  0.00    +0.018 C 
ATOM     13  C   UNL     1      36.543 -19.463 -20.911  0.00  0.00    +0.002 C 
ATOM     14  C   UNL     1      34.283 -19.814 -21.691  0.00  0.00    +0.002 C 
ATOM     15  C   UNL     1      36.712 -18.451 -21.856  0.00  0.00    +0.036 C 
ATOM     16  C   UNL     1      34.452 -18.802 -22.637  0.00  0.00    +0.036 C 
ATOM     17  C   UNL     1      35.667 -18.121 -22.719  0.00  0.00    +0.134 C 
BRANCH  17  18
ATOM     18  O   UNL     1      35.831 -17.133 -23.641  0.00  0.00    -0.506 OA
ATOM     19  H   UNL     1      36.127 -17.343 -24.505  0.00  0.00    +0.292 HD
ENDBRANCH  17  18
ENDBRANCH   3  12
BRANCH  10  20
ATOM     20  O   UNL     1      38.082 -23.188 -15.033  0.00  0.00    -0.505 OA
ATOM     21  H   UNL     1      38.046 -22.924 -14.134  0.00  0.00    +0.292 HD
ENDBRANCH  10  20
TORSDOF 3
ENDMDL
MODEL 7
REMARK VINA RESULT:      -9.2      3.247      8.251
REMARK  Name = 114829
REMARK  3 active torsions:
REMARK  status: ('A' for Active; 'I' for Inactive)
REMARK    1  A    between atoms: C_3  and  C_12
REMARK    2  A    between atoms: C_10  and  O_20
REMARK    3  A    between atoms: C_17  and  O_18
REMARK                            x       y       z     vdW  Elec       q    Type
REMARK                         _______ _______ _______ _____ _____    ______ ____
ROOT
ATOM      1  O   UNL     1      36.090 -21.302 -18.122  0.00  0.00    -0.474 OA
ATOM      2  O   UNL     1      32.662 -23.521 -17.734  0.00  0.00    -0.291 OA
ATOM      3  C   UNL     1      35.279 -21.607 -19.269  0.00  0.00    +0.196 C 
ATOM      4  C   UNL     1      33.810 -21.753 -18.878  0.00  0.00    +0.117 C 
ATOM      5  C   UNL     1      33.679 -22.851 -17.853  0.00  0.00    +0.180 C 
ATOM      6  C   UNL     1      34.832 -23.027 -16.945  0.00  0.00    +0.069 C 
ATOM      7  C   UNL     1      35.964 -22.226 -17.118  0.00  0.00    +0.145 C 
ATOM      8  C   UNL     1      34.774 -23.952 -15.900  0.00  0.00    +0.009 C 
ATOM      9  C   UNL     1      37.028 -22.326 -16.221  0.00  0.00    +0.074 C 
ATOM     10  C   UNL     1      36.972 -23.249 -15.175  0.00  0.00    +0.137 C 
ATOM     11  C   UNL     1      35.849 -24.062 -15.018  0.00  0.00    +0.037 C 
ENDROOT
BRANCH   3  12
ATOM     12  C   UNL     1      35.466 -20.508 -20.293  0.00  0.00    +0.018 C 
ATOM     13  C   UNL     1      34.380 -20.073 -21.053  0.00  0.00    +0.002 C 
ATOM     14  C   UNL     1      36.721 -19.930 -20.474  0.00  0.00    +0.002 C 
ATOM     15  C   UNL     1      34.551 -19.059 -21.995  0.00  0.00    +0.036 C 
ATOM     16  C   UNL     1      36.893 -18.915 -21.417  0.00  0.00    +0.036 C 
ATOM     17  C   UNL     1      35.807 -18.480 -22.177  0.00  0.00    +0.134 C 
BRANCH  17  18
ATOM     18  O   UNL     1      35.974 -17.491 -23.097  0.00  0.00    -0.506 OA
ATOM     19  H   UNL     1      36.597 -16.808 -22.943  0.00  0.00    +0.292 HD
ENDBRANCH  17  18
ENDBRANCH   3  12
BRANCH  10  20
ATOM     20  O   UNL     1      38.016 -23.356 -14.307  0.00  0.00    -0.505 OA
ATOM     21  H   UNL     1      38.730 -22.752 -14.358  0.00  0.00    +0.292 HD
ENDBRANCH  10  20
TORSDOF 3
ENDMDL
MODEL 8
REMARK VINA RESULT:      -9.1      4.247      7.462
REMARK  Name = 114829
REMARK  3 active torsions:
REMARK  status: ('A' for Active; 'I' for Inactive)
REMARK    1  A    between atoms: C_3  and  C_12
REMARK    2  A    between atoms: C_10  and  O_20
REMARK    3  A    between atoms: C_17  and  O_18
REMARK                            x       y       z     vdW  Elec       q    Type
REMARK                         _______ _______ _______ _____ _____    ______ ____
ROOT
ATOM      1  O   UNL     1      36.022 -22.486 -17.866  0.00  0.00    -0.474 OA
ATOM      2  O   UNL     1      31.925 -22.664 -17.957  0.00  0.00    -0.291 OA
ATOM      3  C   UNL     1      35.274 -22.799 -16.680  0.00  0.00    +0.196 C 
ATOM      4  C   UNL     1      33.968 -23.509 -17.028  0.00  0.00    +0.117 C 
ATOM      5  C   UNL     1      33.148 -22.621 -17.928  0.00  0.00    +0.180 C 
ATOM      6  C   UNL     1      33.912 -21.736 -18.832  0.00  0.00    +0.069 C 
ATOM      7  C   UNL     1      35.309 -21.736 -18.764  0.00  0.00    +0.145 C 
ATOM      8  C   UNL     1      33.251 -20.944 -19.772  0.00  0.00    +0.009 C 
ATOM      9  C   UNL     1      36.047 -20.966 -19.664  0.00  0.00    +0.074 C 
ATOM     10  C   UNL     1      35.387 -20.174 -20.606  0.00  0.00    +0.137 C 
ATOM     11  C   UNL     1      33.993 -20.160 -20.656  0.00  0.00    +0.037 C 
ENDROOT
BRANCH   3  12
ATOM     12  C   UNL     1      36.140 -23.656 -15.781  0.00  0.00    +0.018 C 
ATOM     13  C   UNL     1      37.504 -23.389 -15.667  0.00  0.00    +0.002 C 
ATOM     14  C   UNL     1      35.573 -24.711 -15.067  0.00  0.00    +0.002 C 
ATOM     15  C   UNL     1      38.302 -24.177 -14.838  0.00  0.00    +0.036 C 
ATOM     16  C   UNL     1      36.371 -25.500 -14.237  0.00  0.00    +0.036 C 
ATOM     17  C   UNL     1      37.735 -25.232 -14.123  0.00  0.00    +0.134 C 
BRANCH  17  18
ATOM     18  O   UNL     1      38.514 -26.002 -13.314  0.00  0.00    -0.506 OA
ATOM     19  H   UNL     1      38.170 -26.793 -12.947  0.00  0.00    +0.292 HD
ENDBRANCH  17  18
ENDBRANCH   3  12
BRANCH  10  20
ATOM     20  O   UNL     1      36.107 -19.413 -21.476  0.00  0.00    -0.505 OA
ATOM     21  H   UNL     1      36.012 -19.542 -22.399  0.00  0.00    +0.292 HD
ENDBRANCH  10  20
TORSDOF 3
ENDMDL
MODEL 9
REMARK VINA RESULT:      -9.1      4.197      6.707
REMARK  Name = 114829
REMARK  3 active torsions:
REMARK  status: ('A' for Active; 'I' for Inactive)
REMARK    1  A    between atoms: C_3  and  C_12
REMARK    2  A    between atoms: C_10  and  O_20
REMARK    3  A    between atoms: C_17  and  O_18
REMARK                            x       y       z     vdW  Elec       q    Type
REMARK                         _______ _______ _______ _____ _____    ______ ____
ROOT
ATOM      1  O   UNL     1      33.815 -11.682 -24.054  0.00  0.00    -0.474 OA
ATOM      2  O   UNL     1      30.796 -11.160 -21.326  0.00  0.00    -0.291 OA
ATOM      3  C   UNL     1      33.429 -12.749 -23.172  0.00  0.00    +0.196 C 
ATOM      4  C   UNL     1      31.949 -12.651 -22.809  0.00  0.00    +0.117 C 
ATOM      5  C   UNL     1      31.691 -11.323 -22.145  0.00  0.00    +0.180 C 
ATOM      6  C   UNL     1      32.541 -10.201 -22.594  0.00  0.00    +0.069 C 
ATOM      7  C   UNL     1      33.542 -10.441 -23.541  0.00  0.00    +0.145 C 
ATOM      8  C   UNL     1      32.321  -8.909 -22.112  0.00  0.00    +0.009 C 
ATOM      9  C   UNL     1      34.301  -9.378 -24.032  0.00  0.00    +0.074 C 
ATOM     10  C   UNL     1      34.080  -8.085 -23.553  0.00  0.00    +0.137 C 
ATOM     11  C   UNL     1      33.096  -7.853 -22.592  0.00  0.00    +0.037 C 
ENDROOT
BRANCH   3  12
ATOM     12  C   UNL     1      33.739 -14.066 -23.852  0.00  0.00    +0.018 C 
ATOM     13  C   UNL     1      34.555 -15.002 -23.216  0.00  0.00    +0.002 C 
ATOM     14  C   UNL     1      33.208 -14.343 -25.111  0.00  0.00    +0.002 C 
ATOM     15  C   UNL     1      34.839 -16.216 -23.841  0.00  0.00    +0.036 C 
ATOM     16  C   UNL     1      33.493 -15.558 -25.736  0.00  0.00    +0.036 C 
ATOM     17  C   UNL     1      34.308 -16.494 -25.100  0.00  0.00    +0.134 C 
BRANCH  17  18
ATOM     18  O   UNL     1      34.587 -17.678 -25.710  0.00  0.00    -0.506 OA
ATOM     19  H   UNL     1      35.320 -17.746 -26.290  0.00  0.00    +0.292 HD
ENDBRANCH  17  18
ENDBRANCH   3  12
BRANCH  10  20
ATOM     20  O   UNL     1      34.829  -7.050 -24.024  0.00  0.00    -0.505 OA
ATOM     21  H   UNL     1      35.152  -6.399 -23.432  0.00  0.00    +0.292 HD
ENDBRANCH  10  20
TORSDOF 3
ENDMDL
