MODEL 1
REMARK VINA RESULT:      -8.7      0.000      0.000
REMARK  Name = 2265
REMARK  2 active torsions:
REMARK  status: ('A' for Active; 'I' for Inactive)
REMARK    1  A    between atoms: C_6  and  S_12
REMARK    2  A    between atoms: S_12  and  C_15
REMARK                            x       y       z     vdW  Elec       q    Type
REMARK                         _______ _______ _______ _____ _____    ______ ____
ROOT
ATOM      1  N   UNL     1      36.446 -20.639 -19.889  0.00  0.00    -0.271 NA
ATOM      2  N   UNL     1      33.549 -19.157 -21.602  0.00  0.00    -0.241 NA
ATOM      3  N   UNL     1      34.894 -21.861 -18.856  0.00  0.00    -0.307 N 
ATOM      4  N   UNL     1      32.972 -20.888 -19.983  0.00  0.00    -0.232 NA
ATOM      5  C   UNL     1      35.249 -20.229 -20.402  0.00  0.00    +0.156 C 
ATOM      6  C   UNL     1      34.869 -19.292 -21.345  0.00  0.00    +0.104 C 
ATOM      7  C   UNL     1      34.301 -21.001 -19.746  0.00  0.00    +0.124 C 
ATOM      8  C   UNL     1      36.182 -21.618 -18.967  0.00  0.00    +0.163 C 
ATOM      9  C   UNL     1      32.694 -19.951 -20.916  0.00  0.00    +0.252 C 
ATOM     10  H   UNL     1      37.334 -20.296 -20.136  0.00  0.00    +0.125 HD
ATOM     11  H   UNL     1      34.453 -22.514 -18.266  0.00  0.00    +0.149 HD
ENDROOT
BRANCH   6  12
ATOM     12  S   UNL     1      36.041 -18.292 -22.200  0.00  0.00    -0.074 S 
BRANCH  12  15
ATOM     13  N   UNL     1      34.530 -17.006 -24.059  0.00  0.00    -0.237 NA
ATOM     14  N   UNL     1      33.604 -15.271 -23.026  0.00  0.00    -0.232 NA
ATOM     15  C   UNL     1      34.944 -17.026 -22.782  0.00  0.00    +0.177 C 
ATOM     16  C   UNL     1      34.388 -15.978 -22.150  0.00  0.00    +0.223 C 
ATOM     17  C   UNL     1      33.711 -15.916 -24.167  0.00  0.00    +0.203 C 
ATOM     18  C   UNL     1      34.844 -17.908 -25.143  0.00  0.00    +0.092 C 
ATOM     19  O   UNL     1      35.217 -16.198 -20.009  0.00  0.00    -0.125 OA
ATOM     20  O   UNL     1      33.873 -14.517 -20.441  0.00  0.00    -0.125 OA
ATOM     21  N   UNL     1      34.496 -15.549 -20.819  0.00  0.00    +0.073 N 
ENDBRANCH  12  15
ENDBRANCH   6  12
TORSDOF 2
ENDMDL
MODEL 2
REMARK VINA RESULT:      -8.6      2.025      2.618
REMARK  Name = 2265
REMARK  2 active torsions:
REMARK  status: ('A' for Active; 'I' for Inactive)
REMARK    1  A    between atoms: C_6  and  S_12
REMARK    2  A    between atoms: S_12  and  C_15
REMARK                            x       y       z     vdW  Elec       q    Type
REMARK                         _______ _______ _______ _____ _____    ______ ____
ROOT
ATOM      1  N   UNL     1      36.531 -20.437 -20.125  0.00  0.00    -0.271 NA
ATOM      2  N   UNL     1      33.479 -19.153 -21.724  0.00  0.00    -0.241 NA
ATOM      3  N   UNL     1      35.097 -21.688 -18.965  0.00  0.00    -0.307 N 
ATOM      4  N   UNL     1      33.073 -20.846 -20.016  0.00  0.00    -0.232 NA
ATOM      5  C   UNL     1      35.290 -20.101 -20.584  0.00  0.00    +0.156 C 
ATOM      6  C   UNL     1      34.816 -19.219 -21.537  0.00  0.00    +0.104 C 
ATOM      7  C   UNL     1      34.417 -20.890 -19.849  0.00  0.00    +0.124 C 
ATOM      8  C   UNL     1      36.364 -21.392 -19.156  0.00  0.00    +0.163 C 
ATOM      9  C   UNL     1      32.700 -19.959 -20.964  0.00  0.00    +0.252 C 
ATOM     10  H   UNL     1      37.388 -20.064 -20.433  0.00  0.00    +0.125 HD
ATOM     11  H   UNL     1      34.720 -22.338 -18.329  0.00  0.00    +0.149 HD
ENDROOT
BRANCH   6  12
ATOM     12  S   UNL     1      35.891 -18.200 -22.490  0.00  0.00    -0.074 S 
BRANCH  12  15
ATOM     13  N   UNL     1      34.464 -16.000 -21.771  0.00  0.00    -0.237 NA
ATOM     14  N   UNL     1      33.414 -15.305 -23.601  0.00  0.00    -0.232 NA
ATOM     15  C   UNL     1      34.795 -16.834 -22.769  0.00  0.00    +0.177 C 
ATOM     16  C   UNL     1      34.163 -16.421 -23.882  0.00  0.00    +0.223 C 
ATOM     17  C   UNL     1      33.617 -15.078 -22.322  0.00  0.00    +0.203 C 
ATOM     18  C   UNL     1      34.873 -16.014 -20.386  0.00  0.00    +0.092 C 
ATOM     19  O   UNL     1      34.859 -17.965 -25.446  0.00  0.00    -0.125 OA
ATOM     20  O   UNL     1      33.487 -16.375 -26.086  0.00  0.00    -0.125 OA
ATOM     21  N   UNL     1      34.170 -16.939 -25.185  0.00  0.00    +0.073 N 
ENDBRANCH  12  15
ENDBRANCH   6  12
TORSDOF 2
ENDMDL
MODEL 3
REMARK VINA RESULT:      -8.5      7.052     10.427
REMARK  Name = 2265
REMARK  2 active torsions:
REMARK  status: ('A' for Active; 'I' for Inactive)
REMARK    1  A    between atoms: C_6  and  S_12
REMARK    2  A    between atoms: S_12  and  C_15
REMARK                            x       y       z     vdW  Elec       q    Type
REMARK                         _______ _______ _______ _____ _____    ______ ____
ROOT
ATOM      1  N   UNL     1      33.682 -23.336 -16.903  0.00  0.00    -0.271 NA
ATOM      2  N   UNL     1      36.950 -22.610 -15.383  0.00  0.00    -0.241 NA
ATOM      3  N   UNL     1      34.545 -22.276 -18.664  0.00  0.00    -0.307 N 
ATOM      4  N   UNL     1      36.709 -21.791 -17.668  0.00  0.00    -0.232 NA
ATOM      5  C   UNL     1      34.943 -22.969 -16.533  0.00  0.00    +0.156 C 
ATOM      6  C   UNL     1      35.699 -23.121 -15.386  0.00  0.00    +0.104 C 
ATOM      7  C   UNL     1      35.459 -22.313 -17.641  0.00  0.00    +0.124 C 
ATOM      8  C   UNL     1      33.488 -22.899 -18.188  0.00  0.00    +0.163 C 
ATOM      9  C   UNL     1      37.373 -21.986 -16.508  0.00  0.00    +0.252 C 
ATOM     10  H   UNL     1      33.030 -23.825 -16.351  0.00  0.00    +0.125 HD
ATOM     11  H   UNL     1      34.655 -21.873 -19.555  0.00  0.00    +0.149 HD
ENDROOT
BRANCH   6  12
ATOM     12  S   UNL     1      35.081 -23.948 -13.958  0.00  0.00    -0.074 S 
BRANCH  12  15
ATOM     13  N   UNL     1      37.263 -24.114 -12.343  0.00  0.00    -0.237 NA
ATOM     14  N   UNL     1      38.418 -25.884 -13.026  0.00  0.00    -0.232 NA
ATOM     15  C   UNL     1      36.599 -24.657 -13.376  0.00  0.00    +0.177 C 
ATOM     16  C   UNL     1      37.292 -25.730 -13.796  0.00  0.00    +0.223 C 
ATOM     17  C   UNL     1      38.371 -24.895 -12.162  0.00  0.00    +0.203 C 
ATOM     18  C   UNL     1      36.939 -22.951 -11.549  0.00  0.00    +0.092 C 
ATOM     19  O   UNL     1      35.998 -26.499 -15.542  0.00  0.00    -0.125 OA
ATOM     20  O   UNL     1      37.840 -27.586 -15.049  0.00  0.00    -0.125 OA
ATOM     21  N   UNL     1      37.034 -26.638 -14.833  0.00  0.00    +0.073 N 
ENDBRANCH  12  15
ENDBRANCH   6  12
TORSDOF 2
ENDMDL
MODEL 4
REMARK VINA RESULT:      -8.3      6.656     10.019
REMARK  Name = 2265
REMARK  2 active torsions:
REMARK  status: ('A' for Active; 'I' for Inactive)
REMARK    1  A    between atoms: C_6  and  S_12
REMARK    2  A    between atoms: S_12  and  C_15
REMARK                            x       y       z     vdW  Elec       q    Type
REMARK                         _______ _______ _______ _____ _____    ______ ____
ROOT
ATOM      1  N   UNL     1      34.909 -22.765 -17.984  0.00  0.00    -0.271 NA
ATOM      2  N   UNL     1      34.422 -23.871 -14.511  0.00  0.00    -0.241 NA
ATOM      3  N   UNL     1      32.681 -22.728 -18.021  0.00  0.00    -0.307 N 
ATOM      4  N   UNL     1      32.348 -23.459 -15.727  0.00  0.00    -0.232 NA
ATOM      5  C   UNL     1      34.511 -23.159 -16.738  0.00  0.00    +0.156 C 
ATOM      6  C   UNL     1      35.172 -23.535 -15.584  0.00  0.00    +0.104 C 
ATOM      7  C   UNL     1      33.125 -23.128 -16.786  0.00  0.00    +0.124 C 
ATOM      8  C   UNL     1      33.778 -22.518 -18.716  0.00  0.00    +0.163 C 
ATOM      9  C   UNL     1      33.076 -23.813 -14.645  0.00  0.00    +0.252 C 
ATOM     10  H   UNL     1      35.837 -22.674 -18.298  0.00  0.00    +0.125 HD
ATOM     11  H   UNL     1      31.749 -22.623 -18.320  0.00  0.00    +0.149 HD
ENDROOT
BRANCH   6  12
ATOM     12  S   UNL     1      36.930 -23.587 -15.483  0.00  0.00    -0.074 S 
BRANCH  12  15
ATOM     13  N   UNL     1      37.023 -25.973 -14.182  0.00  0.00    -0.237 NA
ATOM     14  N   UNL     1      37.339 -25.506 -12.033  0.00  0.00    -0.232 NA
ATOM     15  C   UNL     1      37.090 -24.637 -14.063  0.00  0.00    +0.177 C 
ATOM     16  C   UNL     1      37.281 -24.346 -12.765  0.00  0.00    +0.223 C 
ATOM     17  C   UNL     1      37.181 -26.467 -12.917  0.00  0.00    +0.203 C 
ATOM     18  C   UNL     1      36.826 -26.783 -15.362  0.00  0.00    +0.092 C 
ATOM     19  O   UNL     1      37.364 -22.042 -12.784  0.00  0.00    -0.125 OA
ATOM     20  O   UNL     1      37.591 -23.079 -10.863  0.00  0.00    -0.125 OA
ATOM     21  N   UNL     1      37.417 -23.111 -12.114  0.00  0.00    +0.073 N 
ENDBRANCH  12  15
ENDBRANCH   6  12
TORSDOF 2
ENDMDL
MODEL 5
REMARK VINA RESULT:      -8.3      6.885     10.399
REMARK  Name = 2265
REMARK  2 active torsions:
REMARK  status: ('A' for Active; 'I' for Inactive)
REMARK    1  A    between atoms: C_6  and  S_12
REMARK    2  A    between atoms: S_12  and  C_15
REMARK                            x       y       z     vdW  Elec       q    Type
REMARK                         _______ _______ _______ _____ _____    ______ ____
ROOT
ATOM      1  N   UNL     1      33.865 -23.399 -17.398  0.00  0.00    -0.271 NA
ATOM      2  N   UNL     1      36.674 -22.940 -15.071  0.00  0.00    -0.241 NA
ATOM      3  N   UNL     1      35.043 -22.024 -18.698  0.00  0.00    -0.307 N 
ATOM      4  N   UNL     1      36.906 -21.714 -17.168  0.00  0.00    -0.232 NA
ATOM      5  C   UNL     1      34.993 -23.096 -16.692  0.00  0.00    +0.156 C 
ATOM      6  C   UNL     1      35.482 -23.452 -15.449  0.00  0.00    +0.104 C 
ATOM      7  C   UNL     1      35.708 -22.242 -17.519  0.00  0.00    +0.124 C 
ATOM      8  C   UNL     1      33.939 -22.733 -18.594  0.00  0.00    +0.163 C 
ATOM      9  C   UNL     1      37.304 -22.115 -15.940  0.00  0.00    +0.252 C 
ATOM     10  H   UNL     1      33.132 -23.986 -17.104  0.00  0.00    +0.125 HD
ATOM     11  H   UNL     1      35.328 -21.462 -19.455  0.00  0.00    +0.149 HD
ENDROOT
BRANCH   6  12
ATOM     12  S   UNL     1      34.605 -24.533 -14.369  0.00  0.00    -0.074 S 
BRANCH  12  15
ATOM     13  N   UNL     1      36.881 -25.970 -13.981  0.00  0.00    -0.237 NA
ATOM     14  N   UNL     1      37.482 -25.640 -11.869  0.00  0.00    -0.232 NA
ATOM     15  C   UNL     1      35.977 -25.148 -13.427  0.00  0.00    +0.177 C 
ATOM     16  C   UNL     1      36.333 -24.942 -12.147  0.00  0.00    +0.223 C 
ATOM     17  C   UNL     1      37.785 -26.248 -12.994  0.00  0.00    +0.203 C 
ATOM     18  C   UNL     1      36.946 -26.495 -15.326  0.00  0.00    +0.092 C 
ATOM     19  O   UNL     1      34.675 -23.528 -11.395  0.00  0.00    -0.125 OA
ATOM     20  O   UNL     1      36.253 -24.126  -9.992  0.00  0.00    -0.125 OA
ATOM     21  N   UNL     1      35.732 -24.171 -11.142  0.00  0.00    +0.073 N 
ENDBRANCH  12  15
ENDBRANCH   6  12
TORSDOF 2
ENDMDL
MODEL 6
REMARK VINA RESULT:      -8.3      7.052      9.298
REMARK  Name = 2265
REMARK  2 active torsions:
REMARK  status: ('A' for Active; 'I' for Inactive)
REMARK    1  A    between atoms: C_6  and  S_12
REMARK    2  A    between atoms: S_12  and  C_15
REMARK                            x       y       z     vdW  Elec       q    Type
REMARK                         _______ _______ _______ _____ _____    ______ ____
ROOT
ATOM      1  N   UNL     1      39.113 -24.272 -14.188  0.00  0.00    -0.271 NA
ATOM      2  N   UNL     1      35.982 -25.644 -15.544  0.00  0.00    -0.241 NA
ATOM      3  N   UNL     1      39.737 -26.411 -14.138  0.00  0.00    -0.307 N 
ATOM      4  N   UNL     1      37.672 -27.329 -15.035  0.00  0.00    -0.232 NA
ATOM      5  C   UNL     1      38.050 -24.979 -14.671  0.00  0.00    +0.156 C 
ATOM      6  C   UNL     1      36.792 -24.642 -15.135  0.00  0.00    +0.104 C 
ATOM      7  C   UNL     1      38.461 -26.304 -14.631  0.00  0.00    +0.124 C 
ATOM      8  C   UNL     1      40.099 -25.173 -13.882  0.00  0.00    +0.163 C 
ATOM      9  C   UNL     1      36.464 -26.908 -15.471  0.00  0.00    +0.252 C 
ATOM     10  H   UNL     1      39.162 -23.295 -14.079  0.00  0.00    +0.125 HD
ATOM     11  H   UNL     1      40.263 -27.232 -14.006  0.00  0.00    +0.149 HD
ENDROOT
BRANCH   6  12
ATOM     12  S   UNL     1      36.233 -22.973 -15.202  0.00  0.00    -0.074 S 
BRANCH  12  15
ATOM     13  N   UNL     1      33.698 -23.679 -14.515  0.00  0.00    -0.237 NA
ATOM     14  N   UNL     1      32.477 -23.519 -16.364  0.00  0.00    -0.232 NA
ATOM     15  C   UNL     1      34.511 -23.276 -15.503  0.00  0.00    +0.177 C 
ATOM     16  C   UNL     1      33.780 -23.176 -16.627  0.00  0.00    +0.223 C 
ATOM     17  C   UNL     1      32.462 -23.817 -15.083  0.00  0.00    +0.203 C 
ATOM     18  C   UNL     1      33.996 -23.937 -13.125  0.00  0.00    +0.092 C 
ATOM     19  O   UNL     1      35.343 -22.482 -18.173  0.00  0.00    -0.125 OA
ATOM     20  O   UNL     1      33.273 -22.778 -18.841  0.00  0.00    -0.125 OA
ATOM     21  N   UNL     1      34.145 -22.798 -17.927  0.00  0.00    +0.073 N 
ENDBRANCH  12  15
ENDBRANCH   6  12
TORSDOF 2
ENDMDL
MODEL 7
REMARK VINA RESULT:      -8.2      7.284      9.486
REMARK  Name = 2265
REMARK  2 active torsions:
REMARK  status: ('A' for Active; 'I' for Inactive)
REMARK    1  A    between atoms: C_6  and  S_12
REMARK    2  A    between atoms: S_12  and  C_15
REMARK                            x       y       z     vdW  Elec       q    Type
REMARK                         _______ _______ _______ _____ _____    ______ ____
ROOT
ATOM      1  N   UNL     1      39.175 -24.291 -14.164  0.00  0.00    -0.271 NA
ATOM      2  N   UNL     1      35.981 -25.633 -15.397  0.00  0.00    -0.241 NA
ATOM      3  N   UNL     1      39.813 -26.426 -14.236  0.00  0.00    -0.307 N 
ATOM      4  N   UNL     1      37.706 -27.323 -15.051  0.00  0.00    -0.232 NA
ATOM      5  C   UNL     1      38.091 -24.987 -14.615  0.00  0.00    +0.156 C 
ATOM      6  C   UNL     1      36.807 -24.642 -14.994  0.00  0.00    +0.104 C 
ATOM      7  C   UNL     1      38.511 -26.309 -14.651  0.00  0.00    +0.124 C 
ATOM      8  C   UNL     1      40.183 -25.195 -13.951  0.00  0.00    +0.163 C 
ATOM      9  C   UNL     1      36.474 -26.895 -15.401  0.00  0.00    +0.252 C 
ATOM     10  H   UNL     1      39.226 -23.319 -14.019  0.00  0.00    +0.125 HD
ATOM     11  H   UNL     1      40.351 -27.247 -14.166  0.00  0.00    +0.149 HD
ENDROOT
BRANCH   6  12
ATOM     12  S   UNL     1      36.236 -22.976 -14.962  0.00  0.00    -0.074 S 
BRANCH  12  15
ATOM     13  N   UNL     1      34.298 -22.991 -16.870  0.00  0.00    -0.237 NA
ATOM     14  N   UNL     1      32.445 -23.715 -15.881  0.00  0.00    -0.232 NA
ATOM     15  C   UNL     1      34.596 -23.240 -15.585  0.00  0.00    +0.177 C 
ATOM     16  C   UNL     1      33.479 -23.678 -14.978  0.00  0.00    +0.223 C 
ATOM     17  C   UNL     1      32.972 -23.295 -17.010  0.00  0.00    +0.203 C 
ATOM     18  C   UNL     1      35.145 -22.503 -17.934  0.00  0.00    +0.092 C 
ATOM     19  O   UNL     1      34.202 -24.039 -12.819  0.00  0.00    -0.125 OA
ATOM     20  O   UNL     1      32.100 -24.453 -13.300  0.00  0.00    -0.125 OA
ATOM     21  N   UNL     1      33.252 -24.071 -13.651  0.00  0.00    +0.073 N 
ENDBRANCH  12  15
ENDBRANCH   6  12
TORSDOF 2
ENDMDL
MODEL 8
REMARK VINA RESULT:      -8.2      6.845      9.998
REMARK  Name = 2265
REMARK  2 active torsions:
REMARK  status: ('A' for Active; 'I' for Inactive)
REMARK    1  A    between atoms: C_6  and  S_12
REMARK    2  A    between atoms: S_12  and  C_15
REMARK                            x       y       z     vdW  Elec       q    Type
REMARK                         _______ _______ _______ _____ _____    ______ ____
ROOT
ATOM      1  N   UNL     1      33.496 -23.392 -16.779  0.00  0.00    -0.271 NA
ATOM      2  N   UNL     1      36.951 -22.660 -15.756  0.00  0.00    -0.241 NA
ATOM      3  N   UNL     1      34.065 -22.263 -18.615  0.00  0.00    -0.307 N 
ATOM      4  N   UNL     1      36.351 -21.774 -17.948  0.00  0.00    -0.232 NA
ATOM      5  C   UNL     1      34.795 -23.016 -16.595  0.00  0.00    +0.156 C 
ATOM      6  C   UNL     1      35.720 -23.192 -15.583  0.00  0.00    +0.104 C 
ATOM      7  C   UNL     1      35.126 -22.317 -17.747  0.00  0.00    +0.124 C 
ATOM      8  C   UNL     1      33.102 -22.918 -18.003  0.00  0.00    +0.163 C 
ATOM      9  C   UNL     1      37.188 -21.994 -16.911  0.00  0.00    +0.252 C 
ATOM     10  H   UNL     1      32.943 -23.908 -16.149  0.00  0.00    +0.125 HD
ATOM     11  H   UNL     1      34.032 -21.830 -19.498  0.00  0.00    +0.149 HD
ENDROOT
BRANCH   6  12
ATOM     12  S   UNL     1      35.340 -24.073 -14.106  0.00  0.00    -0.074 S 
BRANCH  12  15
ATOM     13  N   UNL     1      37.314 -25.913 -14.436  0.00  0.00    -0.237 NA
ATOM     14  N   UNL     1      38.976 -25.302 -13.094  0.00  0.00    -0.232 NA
ATOM     15  C   UNL     1      36.932 -24.794 -13.802  0.00  0.00    +0.177 C 
ATOM     16  C   UNL     1      37.932 -24.417 -12.987  0.00  0.00    +0.223 C 
ATOM     17  C   UNL     1      38.572 -26.190 -13.975  0.00  0.00    +0.203 C 
ATOM     18  C   UNL     1      36.602 -26.710 -15.408  0.00  0.00    +0.092 C 
ATOM     19  O   UNL     1      37.080 -22.509 -12.011  0.00  0.00    -0.125 OA
ATOM     20  O   UNL     1      39.093 -23.168 -11.433  0.00  0.00    -0.125 OA
ATOM     21  N   UNL     1      38.039 -23.325 -12.113  0.00  0.00    +0.073 N 
ENDBRANCH  12  15
ENDBRANCH   6  12
TORSDOF 2
ENDMDL
MODEL 9
REMARK VINA RESULT:      -8.1      8.439     10.904
REMARK  Name = 2265
REMARK  2 active torsions:
REMARK  status: ('A' for Active; 'I' for Inactive)
REMARK    1  A    between atoms: C_6  and  S_12
REMARK    2  A    between atoms: S_12  and  C_15
REMARK                            x       y       z     vdW  Elec       q    Type
REMARK                         _______ _______ _______ _____ _____    ______ ____
ROOT
ATOM      1  N   UNL     1      33.205 -25.072 -13.671  0.00  0.00    -0.271 NA
ATOM      2  N   UNL     1      36.015 -24.022 -15.797  0.00  0.00    -0.241 NA
ATOM      3  N   UNL     1      32.100 -23.483 -14.777  0.00  0.00    -0.307 N 
ATOM      4  N   UNL     1      33.951 -22.782 -16.188  0.00  0.00    -0.232 NA
ATOM      5  C   UNL     1      34.104 -24.536 -14.546  0.00  0.00    +0.156 C 
ATOM      6  C   UNL     1      35.434 -24.776 -14.837  0.00  0.00    +0.104 C 
ATOM      7  C   UNL     1      33.396 -23.552 -15.221  0.00  0.00    +0.124 C 
ATOM      8  C   UNL     1      32.018 -24.410 -13.846  0.00  0.00    +0.163 C 
ATOM      9  C   UNL     1      35.249 -23.085 -16.405  0.00  0.00    +0.252 C 
ATOM     10  H   UNL     1      33.375 -25.801 -13.032  0.00  0.00    +0.125 HD
ATOM     11  H   UNL     1      31.390 -22.876 -15.086  0.00  0.00    +0.149 HD
ENDROOT
BRANCH   6  12
ATOM     12  S   UNL     1      36.368 -26.016 -14.004  0.00  0.00    -0.074 S 
BRANCH  12  15
ATOM     13  N   UNL     1      38.617 -24.600 -13.424  0.00  0.00    -0.237 NA
ATOM     14  N   UNL     1      38.274 -23.657 -11.443  0.00  0.00    -0.232 NA
ATOM     15  C   UNL     1      37.392 -24.961 -13.010  0.00  0.00    +0.177 C 
ATOM     16  C   UNL     1      37.176 -24.395 -11.811  0.00  0.00    +0.223 C 
ATOM     17  C   UNL     1      39.123 -23.802 -12.436  0.00  0.00    +0.203 C 
ATOM     18  C   UNL     1      39.317 -24.946 -14.640  0.00  0.00    +0.092 C 
ATOM     19  O   UNL     1      35.054 -25.131 -11.292  0.00  0.00    -0.125 OA
ATOM     20  O   UNL     1      36.087 -23.829  -9.858  0.00  0.00    -0.125 OA
ATOM     21  N   UNL     1      36.065 -24.454 -10.956  0.00  0.00    +0.073 N 
ENDBRANCH  12  15
ENDBRANCH   6  12
TORSDOF 2
ENDMDL
