MODEL 1
REMARK VINA RESULT:     -10.5      0.000      0.000
REMARK  Name = 44631912
REMARK  3 active torsions:
REMARK  status: ('A' for Active; 'I' for Inactive)
REMARK    1  A    between atoms: N_1  and  C_31
REMARK    2  A    between atoms: C_6  and  C_28
REMARK    3  A    between atoms: C_12  and  N_18
REMARK                            x       y       z     vdW  Elec       q    Type
REMARK                         _______ _______ _______ _____ _____    ______ ____
ROOT
ATOM      1  N   UNL     1      32.632 -10.337 -23.456  0.00  0.00    -0.260 N 
ATOM      2  N   UNL     1      33.478 -12.587 -23.270  0.00  0.00    -0.322 NA
ATOM      3  N   UNL     1      32.529 -13.804 -21.387  0.00  0.00    -0.170 NA
ATOM      4  N   UNL     1      34.089 -14.789 -22.814  0.00  0.00    -0.232 N 
ATOM      5  N   UNL     1      33.468 -16.368 -21.142  0.00  0.00    -0.227 NA
ATOM      6  C   UNL     1      31.742  -9.548 -22.773  0.00  0.00    +0.108 C 
ATOM      7  C   UNL     1      32.702 -11.567 -22.859  0.00  0.00    +0.201 C 
ATOM      8  C   UNL     1      31.841 -11.565 -21.769  0.00  0.00    +0.067 C 
ATOM      9  C   UNL     1      31.237 -10.283 -21.723  0.00  0.00    +0.025 C 
ATOM     10  C   UNL     1      31.773 -12.742 -21.025  0.00  0.00    +0.116 C 
ATOM     11  C   UNL     1      33.323 -13.663 -22.472  0.00  0.00    +0.151 C 
ATOM     12  C   UNL     1      34.458 -18.573 -21.164  0.00  0.00    +0.067 C 
ATOM     13  C   UNL     1      34.204 -16.078 -22.238  0.00  0.00    +0.141 C 
ATOM     14  C   UNL     1      35.199 -18.238 -22.291  0.00  0.00    +0.019 C 
ATOM     15  C   UNL     1      33.615 -17.612 -20.632  0.00  0.00    +0.115 C 
ATOM     16  C   UNL     1      35.076 -16.968 -22.844  0.00  0.00    +0.036 C 
ATOM     17  H   UNL     1      34.658 -14.655 -23.607  0.00  0.00    +0.166 HD
ENDROOT
BRANCH  12  18
ATOM     18  N   UNL     1      34.562 -19.843 -20.584  0.00  0.00    -0.311 N 
ATOM     19  N   UNL     1      34.715 -22.527 -19.624  0.00  0.00    +0.386 N 
ATOM     20  C   UNL     1      35.818 -20.594 -20.700  0.00  0.00    +0.067 C 
ATOM     21  C   UNL     1      33.343 -20.654 -20.470  0.00  0.00    +0.067 C 
ATOM     22  C   UNL     1      35.899 -21.670 -19.617  0.00  0.00    -0.060 C 
ATOM     23  C   UNL     1      33.513 -21.726 -19.393  0.00  0.00    -0.060 C 
ATOM     24  H   UNL     1      34.800 -23.227 -18.887  0.00  0.00    -0.084 HD
ATOM     25  H   UNL     1      34.641 -22.986 -20.532  0.00  0.00    -0.084 HD
ENDBRANCH  12  18
BRANCH   6  28
ATOM     26  O   UNL     1      30.517  -8.008 -23.962  0.00  0.00    -0.269 OA
ATOM     27  N   UNL     1      32.117  -7.126 -22.503  0.00  0.00    -0.272 N 
ATOM     28  C   UNL     1      31.421  -8.196 -23.122  0.00  0.00    +0.263 C 
ATOM     29  C   UNL     1      31.799  -5.743 -22.830  0.00  0.00    +0.115 C 
ATOM     30  C   UNL     1      33.179  -7.315 -21.517  0.00  0.00    +0.115 C 
ENDBRANCH   6  28
BRANCH   1  31
ATOM     31  C   UNL     1      33.415  -9.916 -24.679  0.00  0.00    +0.080 C 
ATOM     32  C   UNL     1      34.874  -9.551 -24.349  0.00  0.00    +0.020 C 
ATOM     33  C   UNL     1      33.494 -10.985 -25.788  0.00  0.00    +0.020 C 
ATOM     34  C   UNL     1      35.672 -10.022 -25.555  0.00  0.00    +0.002 C 
ATOM     35  C   UNL     1      34.974 -11.313 -25.945  0.00  0.00    +0.002 C 
ENDBRANCH   1  31
TORSDOF 3
ENDMDL
MODEL 2
REMARK VINA RESULT:      -9.2      6.459     13.558
REMARK  Name = 44631912
REMARK  3 active torsions:
REMARK  status: ('A' for Active; 'I' for Inactive)
REMARK    1  A    between atoms: N_1  and  C_31
REMARK    2  A    between atoms: C_6  and  C_28
REMARK    3  A    between atoms: C_12  and  N_18
REMARK                            x       y       z     vdW  Elec       q    Type
REMARK                         _______ _______ _______ _____ _____    ______ ____
ROOT
ATOM      1  N   UNL     1      35.574 -24.088 -15.121  0.00  0.00    -0.260 N 
ATOM      2  N   UNL     1      34.738 -22.822 -16.995  0.00  0.00    -0.322 NA
ATOM      3  N   UNL     1      36.474 -21.546 -18.128  0.00  0.00    -0.170 NA
ATOM      4  N   UNL     1      34.256 -21.493 -18.847  0.00  0.00    -0.232 N 
ATOM      5  N   UNL     1      35.561 -20.092 -20.265  0.00  0.00    -0.227 NA
ATOM      6  C   UNL     1      36.788 -24.285 -14.514  0.00  0.00    +0.108 C 
ATOM      7  C   UNL     1      35.725 -23.232 -16.179  0.00  0.00    +0.201 C 
ATOM      8  C   UNL     1      37.065 -22.871 -16.250  0.00  0.00    +0.067 C 
ATOM      9  C   UNL     1      37.730 -23.543 -15.193  0.00  0.00    +0.025 C 
ATOM     10  C   UNL     1      37.422 -21.995 -17.274  0.00  0.00    +0.116 C 
ATOM     11  C   UNL     1      35.208 -21.982 -17.938  0.00  0.00    +0.151 C 
ATOM     12  C   UNL     1      34.490 -18.920 -22.088  0.00  0.00    +0.067 C 
ATOM     13  C   UNL     1      34.353 -20.612 -19.952  0.00  0.00    +0.141 C 
ATOM     14  C   UNL     1      33.266 -19.474 -21.735  0.00  0.00    +0.019 C 
ATOM     15  C   UNL     1      35.598 -19.257 -21.328  0.00  0.00    +0.115 C 
ATOM     16  C   UNL     1      33.187 -20.336 -20.648  0.00  0.00    +0.036 C 
ATOM     17  H   UNL     1      33.344 -21.827 -18.683  0.00  0.00    +0.166 HD
ENDROOT
BRANCH  12  18
ATOM     18  N   UNL     1      34.601 -18.047 -23.178  0.00  0.00    -0.311 N 
ATOM     19  N   UNL     1      35.072 -16.303 -25.388  0.00  0.00    +0.386 N 
ATOM     20  C   UNL     1      34.662 -18.589 -24.540  0.00  0.00    +0.067 C 
ATOM     21  C   UNL     1      35.286 -16.765 -22.970  0.00  0.00    +0.067 C 
ATOM     22  C   UNL     1      34.276 -17.517 -25.559  0.00  0.00    -0.060 C 
ATOM     23  C   UNL     1      34.875 -15.759 -24.045  0.00  0.00    -0.060 C 
ATOM     24  H   UNL     1      34.783 -15.611 -26.078  0.00  0.00    -0.084 HD
ATOM     25  H   UNL     1      36.058 -16.531 -25.515  0.00  0.00    -0.084 HD
ENDBRANCH  12  18
BRANCH   6  28
ATOM     26  O   UNL     1      37.139 -26.349 -13.566  0.00  0.00    -0.269 OA
ATOM     27  N   UNL     1      37.056 -24.548 -12.078  0.00  0.00    -0.272 N 
ATOM     28  C   UNL     1      36.999 -25.123 -13.373  0.00  0.00    +0.263 C 
ATOM     29  C   UNL     1      37.284 -25.377 -10.903  0.00  0.00    +0.115 C 
ATOM     30  C   UNL     1      36.895 -23.118 -11.821  0.00  0.00    +0.115 C 
ENDBRANCH   6  28
BRANCH   1  31
ATOM     31  C   UNL     1      34.268 -24.717 -14.690  0.00  0.00    +0.080 C 
ATOM     32  C   UNL     1      33.725 -24.113 -13.382  0.00  0.00    +0.020 C 
ATOM     33  C   UNL     1      33.124 -24.585 -15.716  0.00  0.00    +0.020 C 
ATOM     34  C   UNL     1      32.213 -24.117 -13.553  0.00  0.00    +0.002 C 
ATOM     35  C   UNL     1      32.034 -23.776 -15.021  0.00  0.00    +0.002 C 
ENDBRANCH   1  31
TORSDOF 3
ENDMDL
MODEL 3
REMARK VINA RESULT:      -8.6      2.638     10.173
REMARK  Name = 44631912
REMARK  3 active torsions:
REMARK  status: ('A' for Active; 'I' for Inactive)
REMARK    1  A    between atoms: N_1  and  C_31
REMARK    2  A    between atoms: C_6  and  C_28
REMARK    3  A    between atoms: C_12  and  N_18
REMARK                            x       y       z     vdW  Elec       q    Type
REMARK                         _______ _______ _______ _____ _____    ______ ____
ROOT
ATOM      1  N   UNL     1      34.061 -17.024 -22.215  0.00  0.00    -0.260 N 
ATOM      2  N   UNL     1      33.883 -14.730 -22.936  0.00  0.00    -0.322 NA
ATOM      3  N   UNL     1      32.571 -13.356 -21.412  0.00  0.00    -0.170 NA
ATOM      4  N   UNL     1      33.522 -12.465 -23.347  0.00  0.00    -0.232 N 
ATOM      5  N   UNL     1      32.345 -10.741 -22.200  0.00  0.00    -0.227 NA
ATOM      6  C   UNL     1      33.614 -17.773 -21.157  0.00  0.00    +0.108 C 
ATOM      7  C   UNL     1      33.627 -15.733 -22.077  0.00  0.00    +0.201 C 
ATOM      8  C   UNL     1      32.883 -15.654 -20.906  0.00  0.00    +0.067 C 
ATOM      9  C   UNL     1      32.881 -16.950 -20.329  0.00  0.00    +0.025 C 
ATOM     10  C   UNL     1      32.349 -14.406 -20.588  0.00  0.00    +0.116 C 
ATOM     11  C   UNL     1      33.314 -13.581 -22.519  0.00  0.00    +0.151 C 
ATOM     12  C   UNL     1      32.311  -8.507 -23.125  0.00  0.00    +0.067 C 
ATOM     13  C   UNL     1      33.100 -11.116 -23.256  0.00  0.00    +0.141 C 
ATOM     14  C   UNL     1      33.087  -8.931 -24.197  0.00  0.00    +0.019 C 
ATOM     15  C   UNL     1      31.969  -9.442 -22.161  0.00  0.00    +0.115 C 
ATOM     16  C   UNL     1      33.493 -10.259 -24.272  0.00  0.00    +0.036 C 
ATOM     17  H   UNL     1      34.066 -12.659 -24.145  0.00  0.00    +0.166 HD
ENDROOT
BRANCH  12  18
ATOM     18  N   UNL     1      31.886  -7.177 -23.023  0.00  0.00    -0.311 N 
ATOM     19  N   UNL     1      31.233  -4.418 -22.696  0.00  0.00    +0.386 N 
ATOM     20  C   UNL     1      32.324  -6.196 -24.022  0.00  0.00    +0.067 C 
ATOM     21  C   UNL     1      31.602  -6.642 -21.685  0.00  0.00    +0.067 C 
ATOM     22  C   UNL     1      31.386  -4.989 -24.033  0.00  0.00    -0.060 C 
ATOM     23  C   UNL     1      30.689  -5.419 -21.781  0.00  0.00    -0.060 C 
ATOM     24  H   UNL     1      30.598  -3.621 -22.741  0.00  0.00    -0.084 HD
ATOM     25  H   UNL     1      32.146  -4.115 -22.356  0.00  0.00    -0.084 HD
ENDBRANCH  12  18
BRANCH   6  28
ATOM     26  O   UNL     1      32.923 -19.964 -21.066  0.00  0.00    -0.269 OA
ATOM     27  N   UNL     1      35.208 -19.604 -20.727  0.00  0.00    -0.272 N 
ATOM     28  C   UNL     1      33.882 -19.169 -20.979  0.00  0.00    +0.263 C 
ATOM     29  C   UNL     1      35.509 -21.019 -20.558  0.00  0.00    +0.115 C 
ATOM     30  C   UNL     1      36.350 -18.697 -20.620  0.00  0.00    +0.115 C 
ENDBRANCH   6  28
BRANCH   1  31
ATOM     31  C   UNL     1      34.903 -17.541 -23.359  0.00  0.00    +0.080 C 
ATOM     32  C   UNL     1      34.394 -18.888 -23.906  0.00  0.00    +0.020 C 
ATOM     33  C   UNL     1      34.977 -16.598 -24.578  0.00  0.00    +0.020 C 
ATOM     34  C   UNL     1      34.660 -18.823 -25.402  0.00  0.00    +0.002 C 
ATOM     35  C   UNL     1      34.365 -17.373 -25.740  0.00  0.00    +0.002 C 
ENDBRANCH   1  31
TORSDOF 3
ENDMDL
MODEL 4
REMARK VINA RESULT:      -8.6      1.225      1.573
REMARK  Name = 44631912
REMARK  3 active torsions:
REMARK  status: ('A' for Active; 'I' for Inactive)
REMARK    1  A    between atoms: N_1  and  C_31
REMARK    2  A    between atoms: C_6  and  C_28
REMARK    3  A    between atoms: C_12  and  N_18
REMARK                            x       y       z     vdW  Elec       q    Type
REMARK                         _______ _______ _______ _____ _____    ______ ____
ROOT
ATOM      1  N   UNL     1      32.444  -9.407 -23.390  0.00  0.00    -0.260 N 
ATOM      2  N   UNL     1      33.383 -11.618 -23.178  0.00  0.00    -0.322 NA
ATOM      3  N   UNL     1      32.111 -13.048 -21.673  0.00  0.00    -0.170 NA
ATOM      4  N   UNL     1      34.028 -13.817 -22.756  0.00  0.00    -0.232 N 
ATOM      5  N   UNL     1      33.150 -15.570 -21.404  0.00  0.00    -0.227 NA
ATOM      6  C   UNL     1      31.365  -8.731 -22.882  0.00  0.00    +0.108 C 
ATOM      7  C   UNL     1      32.462 -10.681 -22.889  0.00  0.00    +0.201 C 
ATOM      8  C   UNL     1      31.373 -10.822 -22.038  0.00  0.00    +0.067 C 
ATOM      9  C   UNL     1      30.683  -9.583 -22.041  0.00  0.00    +0.025 C 
ATOM     10  C   UNL     1      31.217 -12.063 -21.423  0.00  0.00    +0.116 C 
ATOM     11  C   UNL     1      33.124 -12.768 -22.523  0.00  0.00    +0.151 C 
ATOM     12  C   UNL     1      34.274 -17.710 -21.356  0.00  0.00    +0.067 C 
ATOM     13  C   UNL     1      34.099 -15.145 -22.268  0.00  0.00    +0.141 C 
ATOM     14  C   UNL     1      35.231 -17.236 -22.245  0.00  0.00    +0.019 C 
ATOM     15  C   UNL     1      33.263 -16.846 -20.969  0.00  0.00    +0.115 C 
ATOM     16  C   UNL     1      35.150 -15.930 -22.714  0.00  0.00    +0.036 C 
ATOM     17  H   UNL     1      34.755 -13.583 -23.379  0.00  0.00    +0.166 HD
ENDROOT
BRANCH  12  18
ATOM     18  N   UNL     1      34.332 -19.020 -20.865  0.00  0.00    -0.311 N 
ATOM     19  N   UNL     1      34.395 -21.768 -20.095  0.00  0.00    +0.386 N 
ATOM     20  C   UNL     1      35.576 -19.788 -20.987  0.00  0.00    +0.067 C 
ATOM     21  C   UNL     1      33.094 -19.810 -20.855  0.00  0.00    +0.067 C 
ATOM     22  C   UNL     1      35.594 -20.940 -19.982  0.00  0.00    -0.060 C 
ATOM     23  C   UNL     1      33.201 -20.960 -19.853  0.00  0.00    -0.060 C 
ATOM     24  H   UNL     1      34.439 -22.520 -19.408  0.00  0.00    -0.084 HD
ATOM     25  H   UNL     1      34.348 -22.160 -21.036  0.00  0.00    -0.084 HD
ENDBRANCH  12  18
BRANCH   6  28
ATOM     26  O   UNL     1      30.400  -7.151 -24.245  0.00  0.00    -0.269 OA
ATOM     27  N   UNL     1      31.428  -6.333 -22.310  0.00  0.00    -0.272 N 
ATOM     28  C   UNL     1      31.038  -7.372 -23.194  0.00  0.00    +0.263 C 
ATOM     29  C   UNL     1      31.094  -4.945 -22.598  0.00  0.00    +0.115 C 
ATOM     30  C   UNL     1      32.174  -6.561 -21.075  0.00  0.00    +0.115 C 
ENDBRANCH   6  28
BRANCH   1  31
ATOM     31  C   UNL     1      33.458  -8.837 -24.356  0.00  0.00    +0.080 C 
ATOM     32  C   UNL     1      33.099  -7.413 -24.818  0.00  0.00    +0.020 C 
ATOM     33  C   UNL     1      34.893  -8.745 -23.798  0.00  0.00    +0.020 C 
ATOM     34  C   UNL     1      34.437  -6.706 -24.964  0.00  0.00    +0.002 C 
ATOM     35  C   UNL     1      35.248  -7.262 -23.808  0.00  0.00    +0.002 C 
ENDBRANCH   1  31
TORSDOF 3
ENDMDL
MODEL 5
REMARK VINA RESULT:      -8.2      6.302     13.657
REMARK  Name = 44631912
REMARK  3 active torsions:
REMARK  status: ('A' for Active; 'I' for Inactive)
REMARK    1  A    between atoms: N_1  and  C_31
REMARK    2  A    between atoms: C_6  and  C_28
REMARK    3  A    between atoms: C_12  and  N_18
REMARK                            x       y       z     vdW  Elec       q    Type
REMARK                         _______ _______ _______ _____ _____    ______ ____
ROOT
ATOM      1  N   UNL     1      36.924 -23.817 -15.356  0.00  0.00    -0.260 N 
ATOM      2  N   UNL     1      37.051 -22.283 -17.212  0.00  0.00    -0.322 NA
ATOM      3  N   UNL     1      34.888 -21.869 -18.251  0.00  0.00    -0.170 NA
ATOM      4  N   UNL     1      36.832 -20.846 -19.033  0.00  0.00    -0.232 N 
ATOM      5  N   UNL     1      34.993 -20.130 -20.367  0.00  0.00    -0.227 NA
ATOM      6  C   UNL     1      35.941 -24.529 -14.718  0.00  0.00    +0.108 C 
ATOM      7  C   UNL     1      36.373 -23.093 -16.380  0.00  0.00    +0.201 C 
ATOM      8  C   UNL     1      35.008 -23.350 -16.399  0.00  0.00    +0.067 C 
ATOM      9  C   UNL     1      34.743 -24.259 -15.343  0.00  0.00    +0.025 C 
ATOM     10  C   UNL     1      34.264 -22.698 -17.382  0.00  0.00    +0.116 C 
ATOM     11  C   UNL     1      36.224 -21.715 -18.113  0.00  0.00    +0.151 C 
ATOM     12  C   UNL     1      35.373 -18.579 -22.181  0.00  0.00    +0.067 C 
ATOM     13  C   UNL     1      36.318 -20.077 -20.106  0.00  0.00    +0.141 C 
ATOM     14  C   UNL     1      36.730 -18.550 -21.883  0.00  0.00    +0.019 C 
ATOM     15  C   UNL     1      34.553 -19.378 -21.401  0.00  0.00    +0.115 C 
ATOM     16  C   UNL     1      37.220 -19.311 -20.827  0.00  0.00    +0.036 C 
ATOM     17  H   UNL     1      37.805 -20.754 -18.909  0.00  0.00    +0.166 HD
ENDROOT
BRANCH  12  18
ATOM     18  N   UNL     1      34.851 -17.824 -23.239  0.00  0.00    -0.311 N 
ATOM     19  N   UNL     1      34.020 -16.211 -25.442  0.00  0.00    +0.386 N 
ATOM     20  C   UNL     1      34.849 -18.381 -24.597  0.00  0.00    +0.067 C 
ATOM     21  C   UNL     1      34.930 -16.361 -23.150  0.00  0.00    +0.067 C 
ATOM     22  C   UNL     1      33.822 -17.659 -25.469  0.00  0.00    -0.060 C 
ATOM     23  C   UNL     1      33.898 -15.713 -24.073  0.00  0.00    -0.060 C 
ATOM     24  H   UNL     1      33.315 -15.764 -26.028  0.00  0.00    -0.084 HD
ATOM     25  H   UNL     1      34.952 -15.995 -25.795  0.00  0.00    -0.084 HD
ENDBRANCH  12  18
BRANCH   6  28
ATOM     26  O   UNL     1      36.551 -26.559 -13.829  0.00  0.00    -0.269 OA
ATOM     27  N   UNL     1      35.949 -24.912 -12.283  0.00  0.00    -0.272 N 
ATOM     28  C   UNL     1      36.161 -25.395 -13.599  0.00  0.00    +0.263 C 
ATOM     29  C   UNL     1      36.182 -25.769 -11.128  0.00  0.00    +0.115 C 
ATOM     30  C   UNL     1      35.494 -23.556 -11.983  0.00  0.00    +0.115 C 
ENDBRANCH   6  28
BRANCH   1  31
ATOM     31  C   UNL     1      38.391 -23.827 -14.988  0.00  0.00    +0.080 C 
ATOM     32  C   UNL     1      38.620 -24.084 -13.487  0.00  0.00    +0.020 C 
ATOM     33  C   UNL     1      39.229 -24.891 -15.726  0.00  0.00    +0.020 C 
ATOM     34  C   UNL     1      39.898 -24.908 -13.428  0.00  0.00    +0.002 C 
ATOM     35  C   UNL     1      39.779 -25.812 -14.643  0.00  0.00    +0.002 C 
ENDBRANCH   1  31
TORSDOF 3
ENDMDL
