MODEL 1
REMARK VINA RESULT:      -9.0      0.000      0.000
REMARK  Name = 8609
REMARK  5 active torsions:
REMARK  status: ('A' for Active; 'I' for Inactive)
REMARK    1  A    between atoms: C_1  and  C_13
REMARK    2  A    between atoms: C_2  and  O_10
REMARK    3  A    between atoms: C_4  and  N_7
REMARK    4  A    between atoms: C_13  and  O_14
REMARK    5  A    between atoms: O_14  and  C_15
REMARK                            x       y       z     vdW  Elec       q    Type
REMARK                         _______ _______ _______ _____ _____    ______ ____
ROOT
ATOM      1  C   UNL     1      34.779 -16.753 -22.705  0.00  0.00    +0.110 C 
ATOM      2  C   UNL     1      34.134 -15.517 -22.667  0.00  0.00    +0.141 C 
ATOM      3  C   UNL     1      34.944 -17.418 -23.920  0.00  0.00    +0.011 C 
ATOM      4  C   UNL     1      33.819 -15.610 -25.061  0.00  0.00    +0.045 C 
ATOM      5  C   UNL     1      33.654 -14.945 -23.846  0.00  0.00    +0.051 C 
ATOM      6  C   UNL     1      34.464 -16.845 -25.098  0.00  0.00    +0.014 C 
ENDROOT
BRANCH   4   7
ATOM      7  N   UNL     1      33.334 -15.031 -26.252  0.00  0.00    -0.357 N 
ATOM      8  H   UNL     1      33.170 -14.062 -26.298  0.00  0.00    +0.142 HD
ATOM      9  H   UNL     1      33.159 -15.598 -27.039  0.00  0.00    +0.142 HD
ENDBRANCH   4   7
BRANCH   2  10
ATOM     10  O   UNL     1      33.963 -14.853 -21.489  0.00  0.00    -0.505 OA
ATOM     11  H   UNL     1      33.199 -14.327 -21.355  0.00  0.00    +0.292 HD
ENDBRANCH   2  10
BRANCH   1  13
ATOM     12  O   UNL     1      35.319 -16.805 -20.383  0.00  0.00    -0.244 OA
ATOM     13  C   UNL     1      35.289 -17.367 -21.485  0.00  0.00    +0.349 C 
BRANCH  13  14
ATOM     14  O   UNL     1      35.742 -18.660 -21.732  0.00  0.00    -0.421 OA
BRANCH  14  15
ATOM     15  C   UNL     1      35.092 -19.643 -20.981  0.00  0.00    +0.149 C 
ATOM     16  C   UNL     1      33.717 -19.690 -21.001  0.00  0.00    +0.038 C 
ATOM     17  C   UNL     1      35.855 -20.528 -20.250  0.00  0.00    +0.038 C 
ATOM     18  C   UNL     1      33.069 -20.671 -20.251  0.00  0.00    +0.003 C 
ATOM     19  C   UNL     1      35.207 -21.510 -19.501  0.00  0.00    +0.003 C 
ATOM     20  C   UNL     1      33.814 -21.582 -19.501  0.00  0.00    +0.000 C 
ENDBRANCH  14  15
ENDBRANCH  13  14
ENDBRANCH   1  13
TORSDOF 5
ENDMDL
MODEL 2
REMARK VINA RESULT:      -8.9      1.478      2.191
REMARK  Name = 8609
REMARK  5 active torsions:
REMARK  status: ('A' for Active; 'I' for Inactive)
REMARK    1  A    between atoms: C_1  and  C_13
REMARK    2  A    between atoms: C_2  and  O_10
REMARK    3  A    between atoms: C_4  and  N_7
REMARK    4  A    between atoms: C_13  and  O_14
REMARK    5  A    between atoms: O_14  and  C_15
REMARK                            x       y       z     vdW  Elec       q    Type
REMARK                         _______ _______ _______ _____ _____    ______ ____
ROOT
ATOM      1  C   UNL     1      34.779 -17.082 -23.394  0.00  0.00    +0.110 C 
ATOM      2  C   UNL     1      34.333 -16.709 -24.662  0.00  0.00    +0.141 C 
ATOM      3  C   UNL     1      34.828 -16.140 -22.366  0.00  0.00    +0.011 C 
ATOM      4  C   UNL     1      33.986 -14.451 -23.875  0.00  0.00    +0.045 C 
ATOM      5  C   UNL     1      33.937 -15.393 -24.903  0.00  0.00    +0.051 C 
ATOM      6  C   UNL     1      34.430 -14.824 -22.607  0.00  0.00    +0.014 C 
ENDROOT
BRANCH   4   7
ATOM      7  N   UNL     1      33.585 -13.121 -24.118  0.00  0.00    -0.357 N 
ATOM      8  H   UNL     1      34.053 -12.377 -23.675  0.00  0.00    +0.142 HD
ATOM      9  H   UNL     1      32.837 -12.937 -24.731  0.00  0.00    +0.142 HD
ENDBRANCH   4   7
BRANCH   2  10
ATOM     10  O   UNL     1      34.280 -17.615 -25.679  0.00  0.00    -0.505 OA
ATOM     11  H   UNL     1      33.613 -17.546 -26.333  0.00  0.00    +0.292 HD
ENDBRANCH   2  10
BRANCH   1  13
ATOM     12  O   UNL     1      35.120 -19.378 -23.938  0.00  0.00    -0.244 OA
ATOM     13  C   UNL     1      35.196 -18.451 -23.122  0.00  0.00    +0.349 C 
BRANCH  13  14
ATOM     14  O   UNL     1      35.680 -18.575 -21.823  0.00  0.00    -0.421 OA
BRANCH  14  15
ATOM     15  C   UNL     1      35.002 -19.522 -21.050  0.00  0.00    +0.149 C 
ATOM     16  C   UNL     1      33.630 -19.450 -20.971  0.00  0.00    +0.038 C 
ATOM     17  C   UNL     1      35.734 -20.490 -20.399  0.00  0.00    +0.038 C 
ATOM     18  C   UNL     1      32.953 -20.395 -20.199  0.00  0.00    +0.003 C 
ATOM     19  C   UNL     1      35.058 -21.435 -19.629  0.00  0.00    +0.003 C 
ATOM     20  C   UNL     1      33.667 -21.388 -19.528  0.00  0.00    +0.000 C 
ENDBRANCH  14  15
ENDBRANCH  13  14
ENDBRANCH   1  13
TORSDOF 5
ENDMDL
MODEL 3
REMARK VINA RESULT:      -8.8      1.686      2.476
REMARK  Name = 8609
REMARK  5 active torsions:
REMARK  status: ('A' for Active; 'I' for Inactive)
REMARK    1  A    between atoms: C_1  and  C_13
REMARK    2  A    between atoms: C_2  and  O_10
REMARK    3  A    between atoms: C_4  and  N_7
REMARK    4  A    between atoms: C_13  and  O_14
REMARK    5  A    between atoms: O_14  and  C_15
REMARK                            x       y       z     vdW  Elec       q    Type
REMARK                         _______ _______ _______ _____ _____    ______ ____
ROOT
ATOM      1  C   UNL     1      34.148 -16.122 -21.654  0.00  0.00    +0.110 C 
ATOM      2  C   UNL     1      34.478 -15.512 -22.865  0.00  0.00    +0.141 C 
ATOM      3  C   UNL     1      33.087 -15.633 -20.892  0.00  0.00    +0.011 C 
ATOM      4  C   UNL     1      32.685 -13.922 -22.551  0.00  0.00    +0.045 C 
ATOM      5  C   UNL     1      33.746 -14.411 -23.313  0.00  0.00    +0.051 C 
ATOM      6  C   UNL     1      32.356 -14.533 -21.342  0.00  0.00    +0.014 C 
ENDROOT
BRANCH   4   7
ATOM      7  N   UNL     1      31.946 -12.810 -23.004  0.00  0.00    -0.357 N 
ATOM      8  H   UNL     1      31.559 -12.179 -22.355  0.00  0.00    +0.142 HD
ATOM      9  H   UNL     1      31.815 -12.666 -23.969  0.00  0.00    +0.142 HD
ENDBRANCH   4   7
BRANCH   2  10
ATOM     10  O   UNL     1      35.513 -15.974 -23.622  0.00  0.00    -0.505 OA
ATOM     11  H   UNL     1      35.346 -16.337 -24.470  0.00  0.00    +0.292 HD
ENDBRANCH   2  10
BRANCH   1  13
ATOM     12  O   UNL     1      35.750 -17.222 -20.272  0.00  0.00    -0.244 OA
ATOM     13  C   UNL     1      34.899 -17.272 -21.170  0.00  0.00    +0.349 C 
BRANCH  13  14
ATOM     14  O   UNL     1      34.538 -18.427 -21.857  0.00  0.00    -0.421 OA
BRANCH  14  15
ATOM     15  C   UNL     1      34.349 -19.543 -21.036  0.00  0.00    +0.149 C 
ATOM     16  C   UNL     1      35.443 -20.305 -20.694  0.00  0.00    +0.038 C 
ATOM     17  C   UNL     1      33.075 -19.835 -20.602  0.00  0.00    +0.038 C 
ATOM     18  C   UNL     1      35.254 -21.418 -19.876  0.00  0.00    +0.003 C 
ATOM     19  C   UNL     1      32.886 -20.948 -19.783  0.00  0.00    +0.003 C 
ATOM     20  C   UNL     1      33.975 -21.741 -19.420  0.00  0.00    +0.000 C 
ENDBRANCH  14  15
ENDBRANCH  13  14
ENDBRANCH   1  13
TORSDOF 5
ENDMDL
MODEL 4
REMARK VINA RESULT:      -8.7      2.866      5.991
REMARK  Name = 8609
REMARK  5 active torsions:
REMARK  status: ('A' for Active; 'I' for Inactive)
REMARK    1  A    between atoms: C_1  and  C_13
REMARK    2  A    between atoms: C_2  and  O_10
REMARK    3  A    between atoms: C_4  and  N_7
REMARK    4  A    between atoms: C_13  and  O_14
REMARK    5  A    between atoms: O_14  and  C_15
REMARK                            x       y       z     vdW  Elec       q    Type
REMARK                         _______ _______ _______ _____ _____    ______ ____
ROOT
ATOM      1  C   UNL     1      34.780 -19.400 -21.021  0.00  0.00    +0.110 C 
ATOM      2  C   UNL     1      35.581 -20.312 -20.334  0.00  0.00    +0.141 C 
ATOM      3  C   UNL     1      33.391 -19.510 -20.964  0.00  0.00    +0.011 C 
ATOM      4  C   UNL     1      33.603 -21.445 -19.533  0.00  0.00    +0.045 C 
ATOM      5  C   UNL     1      34.992 -21.335 -19.590  0.00  0.00    +0.051 C 
ATOM      6  C   UNL     1      32.803 -20.533 -20.219  0.00  0.00    +0.014 C 
ENDROOT
BRANCH   4   7
ATOM      7  N   UNL     1      33.008 -22.479 -18.781  0.00  0.00    -0.357 N 
ATOM      8  H   UNL     1      32.523 -22.267 -17.950  0.00  0.00    +0.142 HD
ATOM      9  H   UNL     1      33.077 -23.412 -19.086  0.00  0.00    +0.142 HD
ENDBRANCH   4   7
BRANCH   2  10
ATOM     10  O   UNL     1      36.940 -20.222 -20.379  0.00  0.00    -0.505 OA
ATOM     11  H   UNL     1      37.467 -20.924 -20.052  0.00  0.00    +0.292 HD
ENDBRANCH   2  10
BRANCH   1  13
ATOM     12  O   UNL     1      35.844 -18.465 -22.940  0.00  0.00    -0.244 OA
ATOM     13  C   UNL     1      35.375 -18.324 -21.803  0.00  0.00    +0.349 C 
BRANCH  13  14
ATOM     14  O   UNL     1      35.353 -17.125 -21.095  0.00  0.00    -0.421 OA
BRANCH  14  15
ATOM     15  C   UNL     1      34.500 -16.160 -21.638  0.00  0.00    +0.149 C 
ATOM     16  C   UNL     1      33.371 -15.806 -20.936  0.00  0.00    +0.038 C 
ATOM     17  C   UNL     1      34.824 -15.602 -22.855  0.00  0.00    +0.038 C 
ATOM     18  C   UNL     1      32.519 -14.843 -21.479  0.00  0.00    +0.003 C 
ATOM     19  C   UNL     1      33.973 -14.639 -23.397  0.00  0.00    +0.003 C 
ATOM     20  C   UNL     1      32.820 -14.259 -22.710  0.00  0.00    +0.000 C 
ENDBRANCH  14  15
ENDBRANCH  13  14
ENDBRANCH   1  13
TORSDOF 5
ENDMDL
MODEL 5
REMARK VINA RESULT:      -8.7      0.698      2.012
REMARK  Name = 8609
REMARK  5 active torsions:
REMARK  status: ('A' for Active; 'I' for Inactive)
REMARK    1  A    between atoms: C_1  and  C_13
REMARK    2  A    between atoms: C_2  and  O_10
REMARK    3  A    between atoms: C_4  and  N_7
REMARK    4  A    between atoms: C_13  and  O_14
REMARK    5  A    between atoms: O_14  and  C_15
REMARK                            x       y       z     vdW  Elec       q    Type
REMARK                         _______ _______ _______ _____ _____    ______ ____
ROOT
ATOM      1  C   UNL     1      34.647 -16.617 -22.626  0.00  0.00    +0.110 C 
ATOM      2  C   UNL     1      34.900 -17.104 -23.908  0.00  0.00    +0.141 C 
ATOM      3  C   UNL     1      33.866 -15.474 -22.455  0.00  0.00    +0.011 C 
ATOM      4  C   UNL     1      33.591 -15.304 -24.849  0.00  0.00    +0.045 C 
ATOM      5  C   UNL     1      34.372 -16.447 -25.020  0.00  0.00    +0.051 C 
ATOM      6  C   UNL     1      33.337 -14.818 -23.567  0.00  0.00    +0.014 C 
ENDROOT
BRANCH   4   7
ATOM      7  N   UNL     1      33.057 -14.641 -25.973  0.00  0.00    -0.357 N 
ATOM      8  H   UNL     1      33.077 -15.075 -26.857  0.00  0.00    +0.142 HD
ATOM      9  H   UNL     1      32.664 -13.743 -25.874  0.00  0.00    +0.142 HD
ENDBRANCH   4   7
BRANCH   2  10
ATOM     10  O   UNL     1      35.663 -18.218 -24.095  0.00  0.00    -0.505 OA
ATOM     11  H   UNL     1      36.502 -18.148 -24.504  0.00  0.00    +0.292 HD
ENDBRANCH   2  10
BRANCH   1  13
ATOM     12  O   UNL     1      35.310 -16.759 -20.339  0.00  0.00    -0.244 OA
ATOM     13  C   UNL     1      35.188 -17.289 -21.451  0.00  0.00    +0.349 C 
BRANCH  13  14
ATOM     14  O   UNL     1      35.555 -18.597 -21.753  0.00  0.00    -0.421 OA
BRANCH  14  15
ATOM     15  C   UNL     1      34.897 -19.564 -20.987  0.00  0.00    +0.149 C 
ATOM     16  C   UNL     1      35.651 -20.483 -20.294  0.00  0.00    +0.038 C 
ATOM     17  C   UNL     1      33.520 -19.557 -20.958  0.00  0.00    +0.038 C 
ATOM     18  C   UNL     1      34.993 -21.449 -19.531  0.00  0.00    +0.003 C 
ATOM     19  C   UNL     1      32.863 -20.521 -20.193  0.00  0.00    +0.003 C 
ATOM     20  C   UNL     1      33.599 -21.468 -19.480  0.00  0.00    +0.000 C 
ENDBRANCH  14  15
ENDBRANCH  13  14
ENDBRANCH   1  13
TORSDOF 5
ENDMDL
MODEL 6
REMARK VINA RESULT:      -8.6      5.602      8.852
REMARK  Name = 8609
REMARK  5 active torsions:
REMARK  status: ('A' for Active; 'I' for Inactive)
REMARK    1  A    between atoms: C_1  and  C_13
REMARK    2  A    between atoms: C_2  and  O_10
REMARK    3  A    between atoms: C_4  and  N_7
REMARK    4  A    between atoms: C_13  and  O_14
REMARK    5  A    between atoms: O_14  and  C_15
REMARK                            x       y       z     vdW  Elec       q    Type
REMARK                         _______ _______ _______ _____ _____    ______ ____
ROOT
ATOM      1  C   UNL     1      36.036 -22.701 -16.399  0.00  0.00    +0.110 C 
ATOM      2  C   UNL     1      37.070 -23.248 -15.639  0.00  0.00    +0.141 C 
ATOM      3  C   UNL     1      34.709 -22.907 -16.022  0.00  0.00    +0.011 C 
ATOM      4  C   UNL     1      35.450 -24.207 -14.125  0.00  0.00    +0.045 C 
ATOM      5  C   UNL     1      36.777 -24.001 -14.501  0.00  0.00    +0.051 C 
ATOM      6  C   UNL     1      34.417 -23.660 -14.884  0.00  0.00    +0.014 C 
ENDROOT
BRANCH   4   7
ATOM      7  N   UNL     1      35.153 -24.968 -12.975  0.00  0.00    -0.357 N 
ATOM      8  H   UNL     1      34.217 -25.100 -12.700  0.00  0.00    +0.142 HD
ATOM      9  H   UNL     1      35.883 -25.367 -12.448  0.00  0.00    +0.142 HD
ENDBRANCH   4   7
BRANCH   2  10
ATOM     10  O   UNL     1      38.373 -23.058 -15.992  0.00  0.00    -0.505 OA
ATOM     11  H   UNL     1      38.629 -22.272 -16.433  0.00  0.00    +0.292 HD
ENDBRANCH   2  10
BRANCH   1  13
ATOM     12  O   UNL     1      37.031 -20.896 -17.598  0.00  0.00    -0.244 OA
ATOM     13  C   UNL     1      36.322 -21.911 -17.589  0.00  0.00    +0.349 C 
BRANCH  13  14
ATOM     14  O   UNL     1      35.683 -22.444 -18.705  0.00  0.00    -0.421 OA
BRANCH  14  15
ATOM     15  C   UNL     1      34.993 -21.500 -19.471  0.00  0.00    +0.149 C 
ATOM     16  C   UNL     1      35.709 -20.682 -20.314  0.00  0.00    +0.038 C 
ATOM     17  C   UNL     1      33.623 -21.428 -19.351  0.00  0.00    +0.038 C 
ATOM     18  C   UNL     1      35.019 -19.740 -21.078  0.00  0.00    +0.003 C 
ATOM     19  C   UNL     1      32.933 -20.487 -20.116  0.00  0.00    +0.003 C 
ATOM     20  C   UNL     1      33.631 -19.642 -20.979  0.00  0.00    +0.000 C 
ENDBRANCH  14  15
ENDBRANCH  13  14
ENDBRANCH   1  13
TORSDOF 5
ENDMDL
MODEL 7
REMARK VINA RESULT:      -8.6      5.211      8.435
REMARK  Name = 8609
REMARK  5 active torsions:
REMARK  status: ('A' for Active; 'I' for Inactive)
REMARK    1  A    between atoms: C_1  and  C_13
REMARK    2  A    between atoms: C_2  and  O_10
REMARK    3  A    between atoms: C_4  and  N_7
REMARK    4  A    between atoms: C_13  and  O_14
REMARK    5  A    between atoms: O_14  and  C_15
REMARK                            x       y       z     vdW  Elec       q    Type
REMARK                         _______ _______ _______ _____ _____    ______ ____
ROOT
ATOM      1  C   UNL     1      33.617 -23.225 -17.281  0.00  0.00    +0.110 C 
ATOM      2  C   UNL     1      34.457 -23.311 -16.172  0.00  0.00    +0.141 C 
ATOM      3  C   UNL     1      32.238 -23.115 -17.106  0.00  0.00    +0.011 C 
ATOM      4  C   UNL     1      32.538 -23.180 -14.709  0.00  0.00    +0.045 C 
ATOM      5  C   UNL     1      33.918 -23.290 -14.885  0.00  0.00    +0.051 C 
ATOM      6  C   UNL     1      31.699 -23.093 -15.819  0.00  0.00    +0.014 C 
ENDROOT
BRANCH   4   7
ATOM      7  N   UNL     1      31.993 -23.158 -13.409  0.00  0.00    -0.357 N 
ATOM      8  H   UNL     1      32.565 -23.356 -12.632  0.00  0.00    +0.142 HD
ATOM      9  H   UNL     1      31.041 -22.944 -13.278  0.00  0.00    +0.142 HD
ENDBRANCH   4   7
BRANCH   2  10
ATOM     10  O   UNL     1      35.808 -23.420 -16.324  0.00  0.00    -0.505 OA
ATOM     11  H   UNL     1      36.256 -22.868 -16.934  0.00  0.00    +0.292 HD
ENDBRANCH   2  10
BRANCH   1  13
ATOM     12  O   UNL     1      33.817 -24.046 -19.512  0.00  0.00    -0.244 OA
ATOM     13  C   UNL     1      34.161 -23.244 -18.633  0.00  0.00    +0.349 C 
BRANCH  13  14
ATOM     14  O   UNL     1      35.121 -22.250 -18.797  0.00  0.00    -0.421 OA
BRANCH  14  15
ATOM     15  C   UNL     1      34.737 -21.225 -19.666  0.00  0.00    +0.149 C 
ATOM     16  C   UNL     1      35.714 -20.537 -20.349  0.00  0.00    +0.038 C 
ATOM     17  C   UNL     1      33.396 -20.945 -19.804  0.00  0.00    +0.038 C 
ATOM     18  C   UNL     1      35.330 -19.513 -21.216  0.00  0.00    +0.003 C 
ATOM     19  C   UNL     1      33.012 -19.923 -20.672  0.00  0.00    +0.003 C 
ATOM     20  C   UNL     1      33.979 -19.206 -21.377  0.00  0.00    +0.000 C 
ENDBRANCH  14  15
ENDBRANCH  13  14
ENDBRANCH   1  13
TORSDOF 5
ENDMDL
MODEL 8
REMARK VINA RESULT:      -8.4      5.328      8.506
REMARK  Name = 8609
REMARK  5 active torsions:
REMARK  status: ('A' for Active; 'I' for Inactive)
REMARK    1  A    between atoms: C_1  and  C_13
REMARK    2  A    between atoms: C_2  and  O_10
REMARK    3  A    between atoms: C_4  and  N_7
REMARK    4  A    between atoms: C_13  and  O_14
REMARK    5  A    between atoms: O_14  and  C_15
REMARK                            x       y       z     vdW  Elec       q    Type
REMARK                         _______ _______ _______ _____ _____    ______ ____
ROOT
ATOM      1  C   UNL     1      33.439 -23.159 -17.246  0.00  0.00    +0.110 C 
ATOM      2  C   UNL     1      32.254 -23.073 -16.516  0.00  0.00    +0.141 C 
ATOM      3  C   UNL     1      34.649 -23.384 -16.590  0.00  0.00    +0.011 C 
ATOM      4  C   UNL     1      33.488 -23.437 -14.471  0.00  0.00    +0.045 C 
ATOM      5  C   UNL     1      32.279 -23.211 -15.127  0.00  0.00    +0.051 C 
ATOM      6  C   UNL     1      34.673 -23.524 -15.202  0.00  0.00    +0.014 C 
ENDROOT
BRANCH   4   7
ATOM      7  N   UNL     1      33.514 -23.577 -13.068  0.00  0.00    -0.357 N 
ATOM      8  H   UNL     1      34.357 -23.797 -12.611  0.00  0.00    +0.142 HD
ATOM      9  H   UNL     1      32.687 -23.455 -12.546  0.00  0.00    +0.142 HD
ENDBRANCH   4   7
BRANCH   2  10
ATOM     10  O   UNL     1      31.062 -22.852 -17.140  0.00  0.00    -0.505 OA
ATOM     11  H   UNL     1      30.439 -23.547 -17.220  0.00  0.00    +0.292 HD
ENDBRANCH   2  10
BRANCH   1  13
ATOM     12  O   UNL     1      33.920 -23.845 -19.479  0.00  0.00    -0.244 OA
ATOM     13  C   UNL     1      33.434 -23.018 -18.697  0.00  0.00    +0.349 C 
BRANCH  13  14
ATOM     14  O   UNL     1      32.819 -21.829 -19.078  0.00  0.00    -0.421 OA
BRANCH  14  15
ATOM     15  C   UNL     1      33.641 -20.978 -19.824  0.00  0.00    +0.149 C 
ATOM     16  C   UNL     1      35.006 -21.113 -19.713  0.00  0.00    +0.038 C 
ATOM     17  C   UNL     1      33.050 -20.038 -20.639  0.00  0.00    +0.038 C 
ATOM     18  C   UNL     1      35.825 -20.263 -20.457  0.00  0.00    +0.003 C 
ATOM     19  C   UNL     1      33.869 -19.189 -21.383  0.00  0.00    +0.003 C 
ATOM     20  C   UNL     1      35.257 -19.300 -21.292  0.00  0.00    +0.000 C 
ENDBRANCH  14  15
ENDBRANCH  13  14
ENDBRANCH   1  13
TORSDOF 5
ENDMDL
MODEL 9
REMARK VINA RESULT:      -8.3      3.724      5.831
REMARK  Name = 8609
REMARK  5 active torsions:
REMARK  status: ('A' for Active; 'I' for Inactive)
REMARK    1  A    between atoms: C_1  and  C_13
REMARK    2  A    between atoms: C_2  and  O_10
REMARK    3  A    between atoms: C_4  and  N_7
REMARK    4  A    between atoms: C_13  and  O_14
REMARK    5  A    between atoms: O_14  and  C_15
REMARK                            x       y       z     vdW  Elec       q    Type
REMARK                         _______ _______ _______ _____ _____    ______ ____
ROOT
ATOM      1  C   UNL     1      34.337 -21.513 -19.756  0.00  0.00    +0.110 C 
ATOM      2  C   UNL     1      35.545 -20.894 -20.079  0.00  0.00    +0.141 C 
ATOM      3  C   UNL     1      33.128 -20.899 -20.083  0.00  0.00    +0.011 C 
ATOM      4  C   UNL     1      34.334 -19.045 -21.056  0.00  0.00    +0.045 C 
ATOM      5  C   UNL     1      35.542 -19.659 -20.729  0.00  0.00    +0.051 C 
ATOM      6  C   UNL     1      33.127 -19.665 -20.734  0.00  0.00    +0.014 C 
ENDROOT
BRANCH   4   7
ATOM      7  N   UNL     1      34.332 -17.797 -21.713  0.00  0.00    -0.357 N 
ATOM      8  H   UNL     1      34.393 -17.758 -22.695  0.00  0.00    +0.142 HD
ATOM      9  H   UNL     1      34.269 -16.965 -21.190  0.00  0.00    +0.142 HD
ENDBRANCH   4   7
BRANCH   2  10
ATOM     10  O   UNL     1      36.736 -21.478 -19.766  0.00  0.00    -0.505 OA
ATOM     11  H   UNL     1      37.319 -21.058 -19.165  0.00  0.00    +0.292 HD
ENDBRANCH   2  10
BRANCH   1  13
ATOM     12  O   UNL     1      33.929 -23.857 -19.598  0.00  0.00    -0.244 OA
ATOM     13  C   UNL     1      34.318 -22.803 -19.079  0.00  0.00    +0.349 C 
BRANCH  13  14
ATOM     14  O   UNL     1      34.786 -22.685 -17.773  0.00  0.00    -0.421 OA
BRANCH  14  15
ATOM     15  C   UNL     1      33.868 -23.092 -16.801  0.00  0.00    +0.149 C 
ATOM     16  C   UNL     1      32.524 -22.937 -17.054  0.00  0.00    +0.038 C 
ATOM     17  C   UNL     1      34.345 -23.634 -15.628  0.00  0.00    +0.038 C 
ATOM     18  C   UNL     1      31.608 -23.342 -16.083  0.00  0.00    +0.003 C 
ATOM     19  C   UNL     1      33.429 -24.040 -14.657  0.00  0.00    +0.003 C 
ATOM     20  C   UNL     1      32.061 -23.894 -14.884  0.00  0.00    +0.000 C 
ENDBRANCH  14  15
ENDBRANCH  13  14
ENDBRANCH   1  13
TORSDOF 5
ENDMDL
