MODEL 1
REMARK VINA RESULT:      -7.4      0.000      0.000
REMARK  Name = 5287714
REMARK  5 active torsions:
REMARK  status: ('A' for Active; 'I' for Inactive)
REMARK    1  A    between atoms: C_1  and  C_5
REMARK    2  A    between atoms: C_1  and  C_9
REMARK    3  A    between atoms: C_2  and  C_8
REMARK    4  A    between atoms: C_9  and  C_12
REMARK    5  A    between atoms: C_9  and  O_13
REMARK                            x       y       z     vdW  Elec       q    Type
REMARK                         _______ _______ _______ _____ _____    ______ ____
ROOT
ATOM      1  C   UNL     1      38.557 -25.348 -13.417  0.00  0.00    +0.102 C 
ATOM      2  C   UNL     1      39.833 -25.124 -13.769  0.00  0.00    +0.091 C 
ENDROOT
BRANCH   1   5
ATOM      3  O   UNL     1      37.791 -23.138 -13.068  0.00  0.00    -0.241 OA
ATOM      4  O   UNL     1      37.737 -24.616 -11.321  0.00  0.00    -0.241 OA
ATOM      5  C   UNL     1      37.967 -24.260 -12.512  0.00  0.00    +0.387 C 
ENDBRANCH   1   5
BRANCH   2   8
ATOM      6  O   UNL     1      40.439 -25.900 -15.905  0.00  0.00    -0.241 OA
ATOM      7  O   UNL     1      41.302 -26.953 -14.064  0.00  0.00    -0.241 OA
ATOM      8  C   UNL     1      40.594 -26.096 -14.666  0.00  0.00    +0.388 C 
ENDBRANCH   2   8
BRANCH   1   9
ATOM      9  C   UNL     1      37.689 -26.508 -13.816  0.00  0.00    +0.243 C 
BRANCH   9  12
ATOM     10  O   UNL     1      36.697 -24.993 -15.357  0.00  0.00    -0.243 OA
ATOM     11  O   UNL     1      36.884 -27.198 -15.919  0.00  0.00    -0.243 OA
ATOM     12  C   UNL     1      37.027 -26.197 -15.160  0.00  0.00    +0.396 C 
ENDBRANCH   9  12
BRANCH   9  13
ATOM     13  O   UNL     1      36.687 -26.716 -12.825  0.00  0.00    -0.370 OA
ATOM     14  H   UNL     1      36.324 -27.612 -12.915  0.00  0.00    +0.211 HD
ENDBRANCH   9  13
ENDBRANCH   1   9
TORSDOF 5
ENDMDL
MODEL 2
REMARK VINA RESULT:      -6.8      1.753      4.197
REMARK  Name = 5287714
REMARK  5 active torsions:
REMARK  status: ('A' for Active; 'I' for Inactive)
REMARK    1  A    between atoms: C_1  and  C_5
REMARK    2  A    between atoms: C_1  and  C_9
REMARK    3  A    between atoms: C_2  and  C_8
REMARK    4  A    between atoms: C_9  and  C_12
REMARK    5  A    between atoms: C_9  and  O_13
REMARK                            x       y       z     vdW  Elec       q    Type
REMARK                         _______ _______ _______ _____ _____    ______ ____
ROOT
ATOM      1  C   UNL     1      36.559 -24.920 -13.495  0.00  0.00    +0.102 C 
ATOM      2  C   UNL     1      35.894 -24.100 -12.666  0.00  0.00    +0.091 C 
ENDROOT
BRANCH   1   5
ATOM      3  O   UNL     1      35.790 -25.640 -15.612  0.00  0.00    -0.241 OA
ATOM      4  O   UNL     1      36.571 -23.500 -15.389  0.00  0.00    -0.241 OA
ATOM      5  C   UNL     1      36.275 -24.660 -14.980  0.00  0.00    +0.387 C 
ENDBRANCH   1   5
BRANCH   2   8
ATOM      6  O   UNL     1      36.917 -23.436 -10.655  0.00  0.00    -0.241 OA
ATOM      7  O   UNL     1      35.265 -25.019 -10.582  0.00  0.00    -0.241 OA
ATOM      8  C   UNL     1      36.045 -24.204 -11.152  0.00  0.00    +0.388 C 
ENDBRANCH   2   8
BRANCH   1   9
ATOM      9  C   UNL     1      37.519 -26.014 -13.122  0.00  0.00    +0.243 C 
BRANCH   9  12
ATOM     10  O   UNL     1      39.457 -24.657 -13.359  0.00  0.00    -0.243 OA
ATOM     11  O   UNL     1      39.275 -26.572 -14.589  0.00  0.00    -0.243 OA
ATOM     12  C   UNL     1      38.884 -25.714 -13.745  0.00  0.00    +0.396 C 
ENDBRANCH   9  12
BRANCH   9  13
ATOM     13  O   UNL     1      37.033 -27.261 -13.610  0.00  0.00    -0.370 OA
ATOM     14  H   UNL     1      37.692 -27.652 -14.207  0.00  0.00    +0.211 HD
ENDBRANCH   9  13
ENDBRANCH   1   9
TORSDOF 5
ENDMDL
MODEL 3
REMARK VINA RESULT:      -6.7      1.560      3.890
REMARK  Name = 5287714
REMARK  5 active torsions:
REMARK  status: ('A' for Active; 'I' for Inactive)
REMARK    1  A    between atoms: C_1  and  C_5
REMARK    2  A    between atoms: C_1  and  C_9
REMARK    3  A    between atoms: C_2  and  C_8
REMARK    4  A    between atoms: C_9  and  C_12
REMARK    5  A    between atoms: C_9  and  O_13
REMARK                            x       y       z     vdW  Elec       q    Type
REMARK                         _______ _______ _______ _____ _____    ______ ____
ROOT
ATOM      1  C   UNL     1      38.485 -24.719 -13.649  0.00  0.00    +0.102 C 
ATOM      2  C   UNL     1      38.343 -24.854 -12.321  0.00  0.00    +0.091 C 
ENDROOT
BRANCH   1   5
ATOM      3  O   UNL     1      39.403 -26.717 -14.518  0.00  0.00    -0.241 OA
ATOM      4  O   UNL     1      40.746 -24.873 -14.332  0.00  0.00    -0.241 OA
ATOM      5  C   UNL     1      39.662 -25.515 -14.227  0.00  0.00    +0.387 C 
ENDBRANCH   1   5
BRANCH   2   8
ATOM      6  O   UNL     1      36.206 -24.845 -11.337  0.00  0.00    -0.241 OA
ATOM      7  O   UNL     1      37.476 -22.943 -11.232  0.00  0.00    -0.241 OA
ATOM      8  C   UNL     1      37.229 -24.138 -11.563  0.00  0.00    +0.388 C 
ENDBRANCH   2   8
BRANCH   1   9
ATOM      9  C   UNL     1      37.633 -23.905 -14.582  0.00  0.00    +0.243 C 
BRANCH   9  12
ATOM     10  O   UNL     1      36.548 -25.775 -15.573  0.00  0.00    -0.243 OA
ATOM     11  O   UNL     1      35.294 -24.179 -14.527  0.00  0.00    -0.243 OA
ATOM     12  C   UNL     1      36.374 -24.702 -14.929  0.00  0.00    +0.396 C 
ENDBRANCH   9  12
BRANCH   9  13
ATOM     13  O   UNL     1      38.364 -23.624 -15.772  0.00  0.00    -0.370 OA
ATOM     14  H   UNL     1      39.243 -23.283 -15.538  0.00  0.00    +0.211 HD
ENDBRANCH   9  13
ENDBRANCH   1   9
TORSDOF 5
ENDMDL
MODEL 4
REMARK VINA RESULT:      -6.6      1.557      2.069
REMARK  Name = 5287714
REMARK  5 active torsions:
REMARK  status: ('A' for Active; 'I' for Inactive)
REMARK    1  A    between atoms: C_1  and  C_5
REMARK    2  A    between atoms: C_1  and  C_9
REMARK    3  A    between atoms: C_2  and  C_8
REMARK    4  A    between atoms: C_9  and  C_12
REMARK    5  A    between atoms: C_9  and  O_13
REMARK                            x       y       z     vdW  Elec       q    Type
REMARK                         _______ _______ _______ _____ _____    ______ ____
ROOT
ATOM      1  C   UNL     1      38.007 -25.087 -13.336  0.00  0.00    +0.102 C 
ATOM      2  C   UNL     1      39.311 -25.364 -13.177  0.00  0.00    +0.091 C 
ENDROOT
BRANCH   1   5
ATOM      3  O   UNL     1      36.409 -25.636 -11.681  0.00  0.00    -0.241 OA
ATOM      4  O   UNL     1      37.626 -23.711 -11.448  0.00  0.00    -0.241 OA
ATOM      5  C   UNL     1      37.277 -24.782 -12.022  0.00  0.00    +0.387 C 
ENDBRANCH   1   5
BRANCH   2   8
ATOM      6  O   UNL     1      40.978 -24.758 -14.721  0.00  0.00    -0.241 OA
ATOM      7  O   UNL     1      40.087 -26.863 -14.832  0.00  0.00    -0.241 OA
ATOM      8  C   UNL     1      40.206 -25.694 -14.367  0.00  0.00    +0.388 C 
ENDBRANCH   2   8
BRANCH   1   9
ATOM      9  C   UNL     1      37.234 -25.041 -14.623  0.00  0.00    +0.243 C 
BRANCH   9  12
ATOM     10  O   UNL     1      35.975 -23.033 -14.822  0.00  0.00    -0.243 OA
ATOM     11  O   UNL     1      38.110 -23.099 -15.629  0.00  0.00    -0.243 OA
ATOM     12  C   UNL     1      37.087 -23.583 -15.064  0.00  0.00    +0.396 C 
ENDBRANCH   9  12
BRANCH   9  13
ATOM     13  O   UNL     1      35.944 -25.613 -14.424  0.00  0.00    -0.370 OA
ATOM     14  H   UNL     1      35.267 -24.924 -14.520  0.00  0.00    +0.211 HD
ENDBRANCH   9  13
ENDBRANCH   1   9
TORSDOF 5
ENDMDL
MODEL 5
REMARK VINA RESULT:      -6.5      1.360      2.830
REMARK  Name = 5287714
REMARK  5 active torsions:
REMARK  status: ('A' for Active; 'I' for Inactive)
REMARK    1  A    between atoms: C_1  and  C_5
REMARK    2  A    between atoms: C_1  and  C_9
REMARK    3  A    between atoms: C_2  and  C_8
REMARK    4  A    between atoms: C_9  and  C_12
REMARK    5  A    between atoms: C_9  and  O_13
REMARK                            x       y       z     vdW  Elec       q    Type
REMARK                         _______ _______ _______ _____ _____    ______ ____
ROOT
ATOM      1  C   UNL     1      37.997 -24.654 -14.132  0.00  0.00    +0.102 C 
ATOM      2  C   UNL     1      38.863 -25.118 -15.046  0.00  0.00    +0.091 C 
ENDROOT
BRANCH   1   5
ATOM      3  O   UNL     1      36.280 -23.051 -14.408  0.00  0.00    -0.241 OA
ATOM      4  O   UNL     1      36.073 -25.083 -15.442  0.00  0.00    -0.241 OA
ATOM      5  C   UNL     1      36.650 -24.218 -14.722  0.00  0.00    +0.387 C 
ENDBRANCH   1   5
BRANCH   2   8
ATOM      6  O   UNL     1      41.121 -24.685 -14.554  0.00  0.00    -0.241 OA
ATOM      7  O   UNL     1      40.365 -26.842 -14.447  0.00  0.00    -0.241 OA
ATOM      8  C   UNL     1      40.255 -25.600 -14.652  0.00  0.00    +0.388 C 
ENDBRANCH   2   8
BRANCH   1   9
ATOM      9  C   UNL     1      38.210 -24.535 -12.649  0.00  0.00    +0.243 C 
BRANCH   9  12
ATOM     10  O   UNL     1      36.350 -24.604 -11.169  0.00  0.00    -0.243 OA
ATOM     11  O   UNL     1      37.058 -26.532 -12.166  0.00  0.00    -0.243 OA
ATOM     12  C   UNL     1      37.096 -25.291 -11.923  0.00  0.00    +0.396 C 
ENDBRANCH   9  12
BRANCH   9  13
ATOM     13  O   UNL     1      38.181 -23.162 -12.272  0.00  0.00    -0.370 OA
ATOM     14  H   UNL     1      39.089 -22.828 -12.197  0.00  0.00    +0.211 HD
ENDBRANCH   9  13
ENDBRANCH   1   9
TORSDOF 5
ENDMDL
MODEL 6
REMARK VINA RESULT:      -6.5      2.216      3.999
REMARK  Name = 5287714
REMARK  5 active torsions:
REMARK  status: ('A' for Active; 'I' for Inactive)
REMARK    1  A    between atoms: C_1  and  C_5
REMARK    2  A    between atoms: C_1  and  C_9
REMARK    3  A    between atoms: C_2  and  C_8
REMARK    4  A    between atoms: C_9  and  C_12
REMARK    5  A    between atoms: C_9  and  O_13
REMARK                            x       y       z     vdW  Elec       q    Type
REMARK                         _______ _______ _______ _____ _____    ______ ____
ROOT
ATOM      1  C   UNL     1      36.816 -24.417 -14.218  0.00  0.00    +0.102 C 
ATOM      2  C   UNL     1      36.824 -23.932 -12.966  0.00  0.00    +0.091 C 
ENDROOT
BRANCH   1   5
ATOM      3  O   UNL     1      39.024 -24.085 -14.997  0.00  0.00    -0.241 OA
ATOM      4  O   UNL     1      37.322 -22.890 -15.954  0.00  0.00    -0.241 OA
ATOM      5  C   UNL     1      37.821 -23.731 -15.152  0.00  0.00    +0.387 C 
ENDBRANCH   1   5
BRANCH   2   8
ATOM      6  O   UNL     1      36.332 -25.509 -11.292  0.00  0.00    -0.241 OA
ATOM      7  O   UNL     1      34.821 -23.843 -11.715  0.00  0.00    -0.241 OA
ATOM      8  C   UNL     1      35.894 -24.486 -11.892  0.00  0.00    +0.388 C 
ENDBRANCH   2   8
BRANCH   1   9
ATOM      9  C   UNL     1      35.961 -25.526 -14.763  0.00  0.00    +0.243 C 
BRANCH   9  12
ATOM     10  O   UNL     1      37.652 -27.085 -14.157  0.00  0.00    -0.243 OA
ATOM     11  O   UNL     1      36.667 -27.244 -16.211  0.00  0.00    -0.243 OA
ATOM     12  C   UNL     1      36.847 -26.736 -15.067  0.00  0.00    +0.396 C 
ENDBRANCH   9  12
BRANCH   9  13
ATOM     13  O   UNL     1      35.320 -25.090 -15.958  0.00  0.00    -0.370 OA
ATOM     14  H   UNL     1      34.375 -25.308 -15.916  0.00  0.00    +0.211 HD
ENDBRANCH   9  13
ENDBRANCH   1   9
TORSDOF 5
ENDMDL
MODEL 7
REMARK VINA RESULT:      -6.4      2.084      4.140
REMARK  Name = 5287714
REMARK  5 active torsions:
REMARK  status: ('A' for Active; 'I' for Inactive)
REMARK    1  A    between atoms: C_1  and  C_5
REMARK    2  A    between atoms: C_1  and  C_9
REMARK    3  A    between atoms: C_2  and  C_8
REMARK    4  A    between atoms: C_9  and  C_12
REMARK    5  A    between atoms: C_9  and  O_13
REMARK                            x       y       z     vdW  Elec       q    Type
REMARK                         _______ _______ _______ _____ _____    ______ ____
ROOT
ATOM      1  C   UNL     1      37.210 -24.762 -13.628  0.00  0.00    +0.102 C 
ATOM      2  C   UNL     1      37.545 -24.457 -14.891  0.00  0.00    +0.091 C 
ENDROOT
BRANCH   1   5
ATOM      3  O   UNL     1      37.181 -26.843 -12.505  0.00  0.00    -0.241 OA
ATOM      4  O   UNL     1      39.178 -26.025 -13.267  0.00  0.00    -0.241 OA
ATOM      5  C   UNL     1      37.928 -26.002 -13.082  0.00  0.00    +0.387 C 
ENDBRANCH   1   5
BRANCH   2   8
ATOM      6  O   UNL     1      35.854 -23.498 -16.215  0.00  0.00    -0.241 OA
ATOM      7  O   UNL     1      37.569 -22.169 -15.487  0.00  0.00    -0.241 OA
ATOM      8  C   UNL     1      36.936 -23.256 -15.609  0.00  0.00    +0.388 C 
ENDBRANCH   2   8
BRANCH   1   9
ATOM      9  C   UNL     1      36.247 -24.030 -12.736  0.00  0.00    +0.243 C 
BRANCH   9  12
ATOM     10  O   UNL     1      36.698 -23.844 -10.409  0.00  0.00    -0.243 OA
ATOM     11  O   UNL     1      37.891 -22.574 -11.884  0.00  0.00    -0.243 OA
ATOM     12  C   UNL     1      37.017 -23.429 -11.558  0.00  0.00    +0.396 C 
ENDBRANCH   9  12
BRANCH   9  13
ATOM     13  O   UNL     1      35.263 -24.939 -12.250  0.00  0.00    -0.370 OA
ATOM     14  H   UNL     1      34.391 -24.513 -12.273  0.00  0.00    +0.211 HD
ENDBRANCH   9  13
ENDBRANCH   1   9
TORSDOF 5
ENDMDL
MODEL 8
REMARK VINA RESULT:      -6.4      2.160      4.299
REMARK  Name = 5287714
REMARK  5 active torsions:
REMARK  status: ('A' for Active; 'I' for Inactive)
REMARK    1  A    between atoms: C_1  and  C_5
REMARK    2  A    between atoms: C_1  and  C_9
REMARK    3  A    between atoms: C_2  and  C_8
REMARK    4  A    between atoms: C_9  and  C_12
REMARK    5  A    between atoms: C_9  and  O_13
REMARK                            x       y       z     vdW  Elec       q    Type
REMARK                         _______ _______ _______ _____ _____    ______ ____
ROOT
ATOM      1  C   UNL     1      36.791 -25.549 -14.078  0.00  0.00    +0.102 C 
ATOM      2  C   UNL     1      36.818 -25.886 -12.779  0.00  0.00    +0.091 C 
ENDROOT
BRANCH   1   5
ATOM      3  O   UNL     1      38.341 -27.197 -14.766  0.00  0.00    -0.241 OA
ATOM      4  O   UNL     1      36.388 -26.959 -15.936  0.00  0.00    -0.241 OA
ATOM      5  C   UNL     1      37.214 -26.684 -15.019  0.00  0.00    +0.387 C 
ENDBRANCH   1   5
BRANCH   2   8
ATOM      6  O   UNL     1      37.386 -24.181 -11.261  0.00  0.00    -0.241 OA
ATOM      7  O   UNL     1      35.208 -24.878 -11.372  0.00  0.00    -0.241 OA
ATOM      8  C   UNL     1      36.432 -24.890 -11.690  0.00  0.00    +0.388 C 
ENDBRANCH   2   8
BRANCH   1   9
ATOM      9  C   UNL     1      36.395 -24.226 -14.671  0.00  0.00    +0.243 C 
BRANCH   9  12
ATOM     10  O   UNL     1      34.083 -24.643 -14.303  0.00  0.00    -0.243 OA
ATOM     11  O   UNL     1      34.794 -24.046 -16.389  0.00  0.00    -0.243 OA
ATOM     12  C   UNL     1      34.948 -24.314 -15.162  0.00  0.00    +0.396 C 
ENDBRANCH   9  12
BRANCH   9  13
ATOM     13  O   UNL     1      37.254 -23.918 -15.765  0.00  0.00    -0.370 OA
ATOM     14  H   UNL     1      37.923 -23.274 -15.479  0.00  0.00    +0.211 HD
ENDBRANCH   9  13
ENDBRANCH   1   9
TORSDOF 5
ENDMDL
MODEL 9
REMARK VINA RESULT:      -6.4      1.424      2.144
REMARK  Name = 5287714
REMARK  5 active torsions:
REMARK  status: ('A' for Active; 'I' for Inactive)
REMARK    1  A    between atoms: C_1  and  C_5
REMARK    2  A    between atoms: C_1  and  C_9
REMARK    3  A    between atoms: C_2  and  C_8
REMARK    4  A    between atoms: C_9  and  C_12
REMARK    5  A    between atoms: C_9  and  O_13
REMARK                            x       y       z     vdW  Elec       q    Type
REMARK                         _______ _______ _______ _____ _____    ______ ____
ROOT
ATOM      1  C   UNL     1      38.066 -24.587 -13.202  0.00  0.00    +0.102 C 
ATOM      2  C   UNL     1      39.193 -25.306 -13.079  0.00  0.00    +0.091 C 
ENDROOT
BRANCH   1   5
ATOM      3  O   UNL     1      36.547 -25.278 -11.526  0.00  0.00    -0.241 OA
ATOM      4  O   UNL     1      37.606 -23.261 -11.295  0.00  0.00    -0.241 OA
ATOM      5  C   UNL     1      37.336 -24.353 -11.873  0.00  0.00    +0.387 C 
ENDBRANCH   1   5
BRANCH   2   8
ATOM      6  O   UNL     1      40.990 -24.821 -14.516  0.00  0.00    -0.241 OA
ATOM      7  O   UNL     1      39.755 -26.710 -14.895  0.00  0.00    -0.241 OA
ATOM      8  C   UNL     1      40.058 -25.643 -14.289  0.00  0.00    +0.388 C 
ENDBRANCH   2   8
BRANCH   1   9
ATOM      9  C   UNL     1      37.484 -24.007 -14.460  0.00  0.00    +0.243 C 
BRANCH   9  12
ATOM     10  O   UNL     1      36.695 -25.980 -15.528  0.00  0.00    -0.243 OA
ATOM     11  O   UNL     1      35.189 -24.471 -14.711  0.00  0.00    -0.243 OA
ATOM     12  C   UNL     1      36.350 -24.912 -14.948  0.00  0.00    +0.396 C 
ENDBRANCH   9  12
BRANCH   9  13
ATOM     13  O   UNL     1      38.496 -23.928 -15.460  0.00  0.00    -0.370 OA
ATOM     14  H   UNL     1      38.284 -24.539 -16.184  0.00  0.00    +0.211 HD
ENDBRANCH   9  13
ENDBRANCH   1   9
TORSDOF 5
ENDMDL
