MODEL 1
REMARK VINA RESULT:     -10.7      0.000      0.000
REMARK  Name = 52934180
REMARK  2 active torsions:
REMARK  status: ('A' for Active; 'I' for Inactive)
REMARK    1  A    between atoms: N_4  and  C_30
REMARK    2  A    between atoms: C_17  and  C_20
REMARK                            x       y       z     vdW  Elec       q    Type
REMARK                         _______ _______ _______ _____ _____    ______ ____
ROOT
ATOM      1  O   UNL     1      32.951 -20.299 -21.335  0.00  0.00    -0.290 OA
ATOM      2  O   UNL     1      33.324 -13.458 -25.208  0.00  0.00    -0.270 OA
ATOM      3  N   UNL     1      33.401 -15.258 -23.713  0.00  0.00    -0.276 N 
ATOM      4  N   UNL     1      35.581 -20.480 -19.930  0.00  0.00    -0.211 N 
ATOM      5  N   UNL     1      36.865 -20.305 -19.565  0.00  0.00    -0.177 NA
ATOM      6  C   UNL     1      34.959 -17.641 -22.948  0.00  0.00    +0.015 C 
ATOM      7  C   UNL     1      35.032 -16.986 -24.353  0.00  0.00    +0.022 C 
ATOM      8  C   UNL     1      34.509 -16.553 -21.929  0.00  0.00    +0.022 C 
ATOM      9  C   UNL     1      36.392 -18.153 -22.578  0.00  0.00    +0.030 C 
ATOM     10  C   UNL     1      33.956 -18.843 -22.973  0.00  0.00    +0.071 C 
ATOM     11  C   UNL     1      33.757 -16.238 -24.736  0.00  0.00    +0.094 C 
ATOM     12  C   UNL     1      33.247 -15.803 -22.360  0.00  0.00    +0.094 C 
ATOM     13  C   UNL     1      36.353 -19.067 -21.411  0.00  0.00    +0.016 C 
ATOM     14  C   UNL     1      33.955 -19.693 -21.699  0.00  0.00    +0.188 C 
ATOM     15  C   UNL     1      35.227 -19.762 -21.035  0.00  0.00    +0.101 C 
ATOM     16  C   UNL     1      37.332 -19.441 -20.472  0.00  0.00    +0.115 C 
ATOM     17  C   UNL     1      33.199 -13.924 -24.077  0.00  0.00    +0.249 C 
ENDROOT
BRANCH  17  20
ATOM     18  N   UNL     1      32.557  -9.389 -22.102  0.00  0.00    -0.318 N 
ATOM     19  N   UNL     1      31.732 -10.152 -20.185  0.00  0.00    -0.318 N 
ATOM     20  C   UNL     1      32.801 -12.979 -23.029  0.00  0.00    +0.055 C 
ATOM     21  C   UNL     1      32.949 -11.606 -23.255  0.00  0.00    +0.020 C 
ATOM     22  C   UNL     1      32.283 -13.464 -21.826  0.00  0.00    +0.006 C 
ATOM     23  C   UNL     1      32.554 -10.755 -22.223  0.00  0.00    +0.059 C 
ATOM     24  C   UNL     1      31.893 -12.590 -20.803  0.00  0.00    +0.016 C 
ATOM     25  C   UNL     1      32.034 -11.207 -21.013  0.00  0.00    +0.059 C 
ATOM     26  C   UNL     1      32.057  -9.077 -20.868  0.00  0.00    +0.144 C 
ATOM     27  C   UNL     1      31.927  -7.677 -20.425  0.00  0.00    +0.044 C 
ATOM     28  H   UNL     1      32.864  -8.747 -22.783  0.00  0.00    +0.148 HD
ATOM     29  H   UNL     1      31.353 -10.192 -19.276  0.00  0.00    +0.148 HD
ENDBRANCH  17  20
BRANCH   4  30
ATOM     30  C   UNL     1      34.746 -21.366 -19.155  0.00  0.00    +0.096 C 
ATOM     31  C   UNL     1      34.308 -22.585 -19.971  0.00  0.00    +0.024 C 
ATOM     32  C   UNL     1      35.434 -21.797 -17.858  0.00  0.00    +0.024 C 
ENDBRANCH   4  30
TORSDOF 2
ENDMDL
MODEL 2
REMARK VINA RESULT:      -9.7      2.055      3.183
REMARK  Name = 52934180
REMARK  2 active torsions:
REMARK  status: ('A' for Active; 'I' for Inactive)
REMARK    1  A    between atoms: N_4  and  C_30
REMARK    2  A    between atoms: C_17  and  C_20
REMARK                            x       y       z     vdW  Elec       q    Type
REMARK                         _______ _______ _______ _____ _____    ______ ____
ROOT
ATOM      1  O   UNL     1      33.070 -22.596 -19.855  0.00  0.00    -0.290 OA
ATOM      2  O   UNL     1      35.163 -16.307 -24.100  0.00  0.00    -0.270 OA
ATOM      3  N   UNL     1      34.600 -17.901 -22.480  0.00  0.00    -0.276 N 
ATOM      4  N   UNL     1      34.987 -22.594 -17.565  0.00  0.00    -0.211 N 
ATOM      5  N   UNL     1      36.053 -22.373 -16.773  0.00  0.00    -0.177 NA
ATOM      6  C   UNL     1      35.652 -20.166 -20.913  0.00  0.00    +0.015 C 
ATOM      7  C   UNL     1      36.269 -19.696 -22.258  0.00  0.00    +0.022 C 
ATOM      8  C   UNL     1      34.911 -18.957 -20.271  0.00  0.00    +0.022 C 
ATOM      9  C   UNL     1      36.823 -20.625 -19.980  0.00  0.00    +0.030 C 
ATOM     10  C   UNL     1      34.674 -21.361 -21.165  0.00  0.00    +0.071 C 
ATOM     11  C   UNL     1      35.260 -19.004 -23.173  0.00  0.00    +0.094 C 
ATOM     12  C   UNL     1      33.933 -18.268 -21.225  0.00  0.00    +0.094 C 
ATOM     13  C   UNL     1      36.315 -21.382 -18.810  0.00  0.00    +0.016 C 
ATOM     14  C   UNL     1      34.165 -22.041 -19.891  0.00  0.00    +0.188 C 
ATOM     15  C   UNL     1      35.098 -22.024 -18.799  0.00  0.00    +0.101 C 
ATOM     16  C   UNL     1      36.861 -21.632 -17.538  0.00  0.00    +0.115 C 
ATOM     17  C   UNL     1      34.609 -16.625 -23.049  0.00  0.00    +0.249 C 
ENDROOT
BRANCH  17  20
ATOM     18  N   UNL     1      31.865 -12.469 -22.749  0.00  0.00    -0.318 N 
ATOM     19  N   UNL     1      31.835 -12.443 -20.527  0.00  0.00    -0.318 N 
ATOM     20  C   UNL     1      33.898 -15.554 -22.343  0.00  0.00    +0.055 C 
ATOM     21  C   UNL     1      33.248 -14.561 -23.085  0.00  0.00    +0.020 C 
ATOM     22  C   UNL     1      33.882 -15.542 -20.947  0.00  0.00    +0.006 C 
ATOM     23  C   UNL     1      32.588 -13.568 -22.361  0.00  0.00    +0.059 C 
ATOM     24  C   UNL     1      33.213 -14.535 -20.241  0.00  0.00    +0.016 C 
ATOM     25  C   UNL     1      32.555 -13.529 -20.970  0.00  0.00    +0.059 C 
ATOM     26  C   UNL     1      31.437 -11.830 -21.619  0.00  0.00    +0.144 C 
ATOM     27  C   UNL     1      30.625 -10.601 -21.695  0.00  0.00    +0.044 C 
ATOM     28  H   UNL     1      31.687 -12.191 -23.677  0.00  0.00    +0.148 HD
ATOM     29  H   UNL     1      31.657 -12.182 -19.595  0.00  0.00    +0.148 HD
ENDBRANCH  17  20
BRANCH   4  30
ATOM     30  C   UNL     1      33.884 -23.374 -17.055  0.00  0.00    +0.096 C 
ATOM     31  C   UNL     1      34.187 -23.935 -15.663  0.00  0.00    +0.024 C 
ATOM     32  C   UNL     1      32.582 -22.570 -17.048  0.00  0.00    +0.024 C 
ENDBRANCH   4  30
TORSDOF 2
ENDMDL
MODEL 3
REMARK VINA RESULT:      -9.0      1.689      9.096
REMARK  Name = 52934180
REMARK  2 active torsions:
REMARK  status: ('A' for Active; 'I' for Inactive)
REMARK    1  A    between atoms: N_4  and  C_30
REMARK    2  A    between atoms: C_17  and  C_20
REMARK                            x       y       z     vdW  Elec       q    Type
REMARK                         _______ _______ _______ _____ _____    ______ ____
ROOT
ATOM      1  O   UNL     1      35.022 -10.496 -23.948  0.00  0.00    -0.290 OA
ATOM      2  O   UNL     1      34.119 -18.150 -25.543  0.00  0.00    -0.270 OA
ATOM      3  N   UNL     1      34.260 -15.992 -24.647  0.00  0.00    -0.276 N 
ATOM      4  N   UNL     1      32.650  -9.823 -22.263  0.00  0.00    -0.211 N 
ATOM      5  N   UNL     1      31.443  -9.839 -21.664  0.00  0.00    -0.177 NA
ATOM      6  C   UNL     1      32.815 -13.436 -24.376  0.00  0.00    +0.015 C 
ATOM      7  C   UNL     1      32.525 -14.468 -25.499  0.00  0.00    +0.022 C 
ATOM      8  C   UNL     1      33.437 -14.196 -23.168  0.00  0.00    +0.022 C 
ATOM      9  C   UNL     1      31.454 -12.790 -23.952  0.00  0.00    +0.030 C 
ATOM     10  C   UNL     1      33.785 -12.330 -24.910  0.00  0.00    +0.071 C 
ATOM     11  C   UNL     1      33.732 -15.339 -25.842  0.00  0.00    +0.094 C 
ATOM     12  C   UNL     1      34.623 -15.082 -23.554  0.00  0.00    +0.094 C 
ATOM     13  C   UNL     1      31.668 -11.577 -23.124  0.00  0.00    +0.016 C 
ATOM     14  C   UNL     1      33.980 -11.146 -23.957  0.00  0.00    +0.188 C 
ATOM     15  C   UNL     1      32.830 -10.843 -23.150  0.00  0.00    +0.101 C 
ATOM     16  C   UNL     1      30.848 -10.913 -22.194  0.00  0.00    +0.115 C 
ATOM     17  C   UNL     1      34.418 -17.380 -24.632  0.00  0.00    +0.249 C 
ENDROOT
BRANCH  17  20
ATOM     18  N   UNL     1      34.516 -20.594 -20.818  0.00  0.00    -0.318 N 
ATOM     19  N   UNL     1      36.453 -19.853 -20.019  0.00  0.00    -0.318 N 
ATOM     20  C   UNL     1      34.991 -17.992 -23.429  0.00  0.00    +0.055 C 
ATOM     21  C   UNL     1      34.305 -19.039 -22.803  0.00  0.00    +0.020 C 
ATOM     22  C   UNL     1      36.209 -17.523 -22.930  0.00  0.00    +0.006 C 
ATOM     23  C   UNL     1      34.898 -19.584 -21.663  0.00  0.00    +0.059 C 
ATOM     24  C   UNL     1      36.785 -18.086 -21.785  0.00  0.00    +0.016 C 
ATOM     25  C   UNL     1      36.109 -19.138 -21.142  0.00  0.00    +0.059 C 
ATOM     26  C   UNL     1      35.476 -20.717 -19.853  0.00  0.00    +0.144 C 
ATOM     27  C   UNL     1      35.363 -21.725 -18.782  0.00  0.00    +0.044 C 
ATOM     28  H   UNL     1      33.697 -21.135 -20.894  0.00  0.00    +0.148 HD
ATOM     29  H   UNL     1      37.256 -19.742 -19.459  0.00  0.00    +0.148 HD
ENDBRANCH  17  20
BRANCH   4  30
ATOM     30  C   UNL     1      33.588  -8.779 -21.922  0.00  0.00    +0.096 C 
ATOM     31  C   UNL     1      33.819  -7.825 -23.096  0.00  0.00    +0.024 C 
ATOM     32  C   UNL     1      33.147  -8.012 -20.674  0.00  0.00    +0.024 C 
ENDBRANCH   4  30
TORSDOF 2
ENDMDL
MODEL 4
REMARK VINA RESULT:      -8.8      2.704      9.129
REMARK  Name = 52934180
REMARK  2 active torsions:
REMARK  status: ('A' for Active; 'I' for Inactive)
REMARK    1  A    between atoms: N_4  and  C_30
REMARK    2  A    between atoms: C_17  and  C_20
REMARK                            x       y       z     vdW  Elec       q    Type
REMARK                         _______ _______ _______ _____ _____    ______ ____
ROOT
ATOM      1  O   UNL     1      34.813 -14.389 -22.124  0.00  0.00    -0.290 OA
ATOM      2  O   UNL     1      36.910 -21.710 -20.137  0.00  0.00    -0.270 OA
ATOM      3  N   UNL     1      35.879 -19.719 -20.812  0.00  0.00    -0.276 N 
ATOM      4  N   UNL     1      33.201 -14.748 -24.612  0.00  0.00    -0.211 N 
ATOM      5  N   UNL     1      32.661 -15.245 -25.742  0.00  0.00    -0.177 NA
ATOM      6  C   UNL     1      35.520 -17.889 -23.095  0.00  0.00    +0.015 C 
ATOM      7  C   UNL     1      36.716 -18.871 -22.965  0.00  0.00    +0.022 C 
ATOM      8  C   UNL     1      34.334 -18.458 -22.264  0.00  0.00    +0.022 C 
ATOM      9  C   UNL     1      35.120 -17.814 -24.607  0.00  0.00    +0.030 C 
ATOM     10  C   UNL     1      35.940 -16.470 -22.585  0.00  0.00    +0.071 C 
ATOM     11  C   UNL     1      37.055 -19.217 -21.517  0.00  0.00    +0.094 C 
ATOM     12  C   UNL     1      34.717 -18.823 -20.829  0.00  0.00    +0.094 C 
ATOM     13  C   UNL     1      34.211 -16.671 -24.868  0.00  0.00    +0.016 C 
ATOM     14  C   UNL     1      34.910 -15.370 -22.856  0.00  0.00    +0.188 C 
ATOM     15  C   UNL     1      34.139 -15.565 -24.053  0.00  0.00    +0.101 C 
ATOM     16  C   UNL     1      33.282 -16.419 -25.892  0.00  0.00    +0.115 C 
ATOM     17  C   UNL     1      35.941 -20.952 -20.158  0.00  0.00    +0.249 C 
ENDROOT
BRANCH  17  20
ATOM     18  N   UNL     1      33.532 -23.401 -16.540  0.00  0.00    -0.318 N 
ATOM     19  N   UNL     1      31.513 -22.773 -17.224  0.00  0.00    -0.318 N 
ATOM     20  C   UNL     1      34.753 -21.402 -19.426  0.00  0.00    +0.055 C 
ATOM     21  C   UNL     1      34.912 -22.222 -18.303  0.00  0.00    +0.020 C 
ATOM     22  C   UNL     1      33.486 -21.005 -19.859  0.00  0.00    +0.006 C 
ATOM     23  C   UNL     1      33.747 -22.619 -17.646  0.00  0.00    +0.059 C 
ATOM     24  C   UNL     1      32.330 -21.414 -19.183  0.00  0.00    +0.016 C 
ATOM     25  C   UNL     1      32.471 -22.239 -18.054  0.00  0.00    +0.059 C 
ATOM     26  C   UNL     1      32.183 -23.464 -16.328  0.00  0.00    +0.144 C 
ATOM     27  C   UNL     1      31.618 -24.236 -15.206  0.00  0.00    +0.044 C 
ATOM     28  H   UNL     1      34.226 -23.840 -15.996  0.00  0.00    +0.148 HD
ATOM     29  H   UNL     1      30.536 -22.663 -17.287  0.00  0.00    +0.148 HD
ENDBRANCH  17  20
BRANCH   4  30
ATOM     30  C   UNL     1      32.755 -13.463 -24.128  0.00  0.00    +0.096 C 
ATOM     31  C   UNL     1      32.320 -13.534 -22.661  0.00  0.00    +0.024 C 
ATOM     32  C   UNL     1      33.821 -12.385 -24.329  0.00  0.00    +0.024 C 
ENDBRANCH   4  30
TORSDOF 2
ENDMDL
MODEL 5
REMARK VINA RESULT:      -8.2      2.573      4.840
REMARK  Name = 52934180
REMARK  2 active torsions:
REMARK  status: ('A' for Active; 'I' for Inactive)
REMARK    1  A    between atoms: N_4  and  C_30
REMARK    2  A    between atoms: C_17  and  C_20
REMARK                            x       y       z     vdW  Elec       q    Type
REMARK                         _______ _______ _______ _____ _____    ______ ____
ROOT
ATOM      1  O   UNL     1      32.609 -23.251 -18.374  0.00  0.00    -0.290 OA
ATOM      2  O   UNL     1      35.923 -18.323 -23.539  0.00  0.00    -0.270 OA
ATOM      3  N   UNL     1      35.016 -19.456 -21.702  0.00  0.00    -0.276 N 
ATOM      4  N   UNL     1      34.353 -23.049 -15.958  0.00  0.00    -0.211 N 
ATOM      5  N   UNL     1      35.389 -22.822 -15.128  0.00  0.00    -0.177 NA
ATOM      6  C   UNL     1      35.601 -21.476 -19.635  0.00  0.00    +0.015 C 
ATOM      7  C   UNL     1      36.367 -21.383 -20.982  0.00  0.00    +0.022 C 
ATOM      8  C   UNL     1      35.018 -20.069 -19.312  0.00  0.00    +0.022 C 
ATOM      9  C   UNL     1      36.624 -21.894 -18.526  0.00  0.00    +0.030 C 
ATOM     10  C   UNL     1      34.466 -22.548 -19.742  0.00  0.00    +0.071 C 
ATOM     11  C   UNL     1      35.539 -20.759 -22.104  0.00  0.00    +0.094 C 
ATOM     12  C   UNL     1      34.222 -19.461 -20.468  0.00  0.00    +0.094 C 
ATOM     13  C   UNL     1      35.930 -22.316 -17.285  0.00  0.00    +0.016 C 
ATOM     14  C   UNL     1      33.777 -22.875 -18.414  0.00  0.00    +0.188 C 
ATOM     15  C   UNL     1      34.631 -22.765 -17.263  0.00  0.00    +0.101 C 
ATOM     16  C   UNL     1      36.349 -22.374 -15.943  0.00  0.00    +0.115 C 
ATOM     17  C   UNL     1      35.260 -18.338 -22.503  0.00  0.00    +0.249 C 
ENDROOT
BRANCH  17  20
ATOM     18  N   UNL     1      32.703 -14.110 -23.190  0.00  0.00    -0.318 N 
ATOM     19  N   UNL     1      32.973 -13.405 -21.100  0.00  0.00    -0.318 N 
ATOM     20  C   UNL     1      34.682 -17.056 -22.087  0.00  0.00    +0.055 C 
ATOM     21  C   UNL     1      33.967 -16.295 -23.019  0.00  0.00    +0.020 C 
ATOM     22  C   UNL     1      34.854 -16.617 -20.773  0.00  0.00    +0.006 C 
ATOM     23  C   UNL     1      33.440 -15.085 -22.567  0.00  0.00    +0.059 C 
ATOM     24  C   UNL     1      34.315 -15.399 -20.341  0.00  0.00    +0.016 C 
ATOM     25  C   UNL     1      33.594 -14.621 -21.264  0.00  0.00    +0.059 C 
ATOM     26  C   UNL     1      32.448 -13.129 -22.273  0.00  0.00    +0.144 C 
ATOM     27  C   UNL     1      31.670 -11.928 -22.631  0.00  0.00    +0.044 C 
ATOM     28  H   UNL     1      32.409 -14.116 -24.130  0.00  0.00    +0.148 HD
ATOM     29  H   UNL     1      32.929 -12.860 -20.281  0.00  0.00    +0.148 HD
ENDBRANCH  17  20
BRANCH   4  30
ATOM     30  C   UNL     1      33.112 -23.545 -15.413  0.00  0.00    +0.096 C 
ATOM     31  C   UNL     1      33.352 -24.467 -14.215  0.00  0.00    +0.024 C 
ATOM     32  C   UNL     1      32.164 -22.403 -15.041  0.00  0.00    +0.024 C 
ENDBRANCH   4  30
TORSDOF 2
ENDMDL
