MODEL 1
REMARK VINA RESULT:     -10.0      0.000      0.000
REMARK  Name = 71188
REMARK  5 active torsions:
REMARK  status: ('A' for Active; 'I' for Inactive)
REMARK    1  A    between atoms: N_3  and  C_22
REMARK    2  A    between atoms: C_7  and  N_13
REMARK    3  A    between atoms: C_9  and  C_26
REMARK    4  A    between atoms: N_14  and  C_20
REMARK    5  A    between atoms: C_26  and  O_27
REMARK                            x       y       z     vdW  Elec       q    Type
REMARK                         _______ _______ _______ _____ _____    ______ ____
ROOT
ATOM      1  F   UNL     1      35.144 -19.944 -24.091  0.00  0.00    -0.203 F 
ATOM      2  O   UNL     1      33.830 -15.843 -26.698  0.00  0.00    -0.286 OA
ATOM      3  N   UNL     1      33.719 -14.702 -22.784  0.00  0.00    -0.287 N 
ATOM      4  C   UNL     1      34.085 -16.045 -23.087  0.00  0.00    +0.056 C 
ATOM      5  C   UNL     1      33.414 -13.831 -23.812  0.00  0.00    +0.075 C 
ATOM      6  C   UNL     1      34.131 -16.467 -24.434  0.00  0.00    +0.055 C 
ATOM      7  C   UNL     1      34.762 -18.293 -22.430  0.00  0.00    +0.077 C 
ATOM      8  C   UNL     1      34.407 -16.983 -22.093  0.00  0.00    +0.032 C 
ATOM      9  C   UNL     1      33.427 -14.127 -25.118  0.00  0.00    +0.129 C 
ATOM     10  C   UNL     1      33.798 -15.508 -25.520  0.00  0.00    +0.204 C 
ATOM     11  C   UNL     1      34.802 -18.689 -23.763  0.00  0.00    +0.153 C 
ATOM     12  C   UNL     1      34.488 -17.779 -24.769  0.00  0.00    +0.035 C 
ENDROOT
BRANCH   7  13
ATOM     13  N   UNL     1      35.077 -19.208 -21.419  0.00  0.00    -0.310 N 
ATOM     14  N   UNL     1      35.730 -20.873 -19.192  0.00  0.00    +0.389 N 
ATOM     15  C   UNL     1      34.012 -19.745 -20.566  0.00  0.00    +0.068 C 
ATOM     16  C   UNL     1      36.404 -19.119 -20.797  0.00  0.00    +0.068 C 
ATOM     17  C   UNL     1      34.460 -21.051 -19.906  0.00  0.00    -0.055 C 
ATOM     18  C   UNL     1      36.775 -20.446 -20.130  0.00  0.00    -0.055 C 
ATOM     19  H   UNL     1      35.610 -20.152 -18.482  0.00  0.00    -0.080 HD
BRANCH  14  20
ATOM     20  C   UNL     1      36.119 -22.114 -18.521  0.00  0.00    -0.077 C 
ATOM     21  C   UNL     1      36.851 -21.837 -17.224  0.00  0.00    -0.025 C 
ENDBRANCH  14  20
ENDBRANCH   7  13
BRANCH   3  22
ATOM     22  C   UNL     1      33.656 -14.209 -21.392  0.00  0.00    +0.077 C 
ATOM     23  C   UNL     1      32.507 -13.378 -20.926  0.00  0.00    +0.022 C 
ATOM     24  C   UNL     1      32.676 -14.781 -20.421  0.00  0.00    +0.022 C 
ENDBRANCH   3  22
BRANCH   9  26
ATOM     25  O   UNL     1      33.564 -11.960 -26.085  0.00  0.00    -0.245 OA
ATOM     26  C   UNL     1      33.074 -13.076 -26.073  0.00  0.00    +0.342 C 
BRANCH  26  27
ATOM     27  O   UNL     1      32.132 -13.534 -26.925  0.00  0.00    -0.477 OA
ATOM     28  H   UNL     1      32.348 -14.200 -27.546  0.00  0.00    +0.295 HD
ENDBRANCH  26  27
ENDBRANCH   9  26
TORSDOF 5
ENDMDL
MODEL 2
REMARK VINA RESULT:      -9.9      4.541      7.142
REMARK  Name = 71188
REMARK  5 active torsions:
REMARK  status: ('A' for Active; 'I' for Inactive)
REMARK    1  A    between atoms: N_3  and  C_22
REMARK    2  A    between atoms: C_7  and  N_13
REMARK    3  A    between atoms: C_9  and  C_26
REMARK    4  A    between atoms: N_14  and  C_20
REMARK    5  A    between atoms: C_26  and  O_27
REMARK                            x       y       z     vdW  Elec       q    Type
REMARK                         _______ _______ _______ _____ _____    ______ ____
ROOT
ATOM      1  F   UNL     1      35.013 -11.541 -25.885  0.00  0.00    -0.203 F 
ATOM      2  O   UNL     1      33.695  -7.093 -23.931  0.00  0.00    -0.286 OA
ATOM      3  N   UNL     1      31.824  -9.876 -21.611  0.00  0.00    -0.287 N 
ATOM      4  C   UNL     1      32.629 -10.330 -22.694  0.00  0.00    +0.056 C 
ATOM      5  C   UNL     1      31.697  -8.520 -21.377  0.00  0.00    +0.075 C 
ATOM      6  C   UNL     1      33.289  -9.388 -23.514  0.00  0.00    +0.055 C 
ATOM      7  C   UNL     1      33.602 -12.099 -24.061  0.00  0.00    +0.077 C 
ATOM      8  C   UNL     1      32.802 -11.692 -22.989  0.00  0.00    +0.032 C 
ATOM      9  C   UNL     1      32.277  -7.546 -22.091  0.00  0.00    +0.129 C 
ATOM     10  C   UNL     1      33.135  -7.935 -23.240  0.00  0.00    +0.204 C 
ATOM     11  C   UNL     1      34.243 -11.154 -24.857  0.00  0.00    +0.153 C 
ATOM     12  C   UNL     1      34.089  -9.798 -24.586  0.00  0.00    +0.035 C 
ENDROOT
BRANCH   7  13
ATOM     13  N   UNL     1      33.755 -13.463 -24.334  0.00  0.00    -0.310 N 
ATOM     14  N   UNL     1      33.871 -16.290 -24.724  0.00  0.00    +0.389 N 
ATOM     15  C   UNL     1      32.926 -14.097 -25.363  0.00  0.00    +0.068 C 
ATOM     16  C   UNL     1      34.189 -14.340 -23.239  0.00  0.00    +0.068 C 
ATOM     17  C   UNL     1      33.573 -15.396 -25.849  0.00  0.00    -0.055 C 
ATOM     18  C   UNL     1      34.796 -15.631 -23.794  0.00  0.00    -0.055 C 
ATOM     19  H   UNL     1      33.003 -16.501 -24.232  0.00  0.00    -0.080 HD
BRANCH  14  20
ATOM     20  C   UNL     1      34.439 -17.549 -25.206  0.00  0.00    -0.077 C 
ATOM     21  C   UNL     1      34.901 -18.424 -24.059  0.00  0.00    -0.025 C 
ENDBRANCH  14  20
ENDBRANCH   7  13
BRANCH   3  22
ATOM     22  C   UNL     1      31.113 -10.820 -20.722  0.00  0.00    +0.077 C 
ATOM     23  C   UNL     1      31.839 -11.540 -19.635  0.00  0.00    +0.022 C 
ATOM     24  C   UNL     1      30.843 -10.471 -19.295  0.00  0.00    +0.022 C 
ENDBRANCH   3  22
BRANCH   9  26
ATOM     25  O   UNL     1      31.563  -5.305 -22.434  0.00  0.00    -0.245 OA
ATOM     26  C   UNL     1      32.031  -6.158 -21.700  0.00  0.00    +0.342 C 
BRANCH  26  27
ATOM     27  O   UNL     1      32.400  -5.976 -20.414  0.00  0.00    -0.477 OA
ATOM     28  H   UNL     1      31.774  -5.677 -19.785  0.00  0.00    +0.295 HD
ENDBRANCH  26  27
ENDBRANCH   9  26
TORSDOF 5
ENDMDL
MODEL 3
REMARK VINA RESULT:      -9.0      7.076     11.483
REMARK  Name = 71188
REMARK  5 active torsions:
REMARK  status: ('A' for Active; 'I' for Inactive)
REMARK    1  A    between atoms: N_3  and  C_22
REMARK    2  A    between atoms: C_7  and  N_13
REMARK    3  A    between atoms: C_9  and  C_26
REMARK    4  A    between atoms: N_14  and  C_20
REMARK    5  A    between atoms: C_26  and  O_27
REMARK                            x       y       z     vdW  Elec       q    Type
REMARK                         _______ _______ _______ _____ _____    ______ ____
ROOT
ATOM      1  F   UNL     1      37.839 -21.408 -17.677  0.00  0.00    -0.203 F 
ATOM      2  O   UNL     1      37.896 -23.793 -13.244  0.00  0.00    -0.286 OA
ATOM      3  N   UNL     1      34.023 -23.974 -14.505  0.00  0.00    -0.287 N 
ATOM      4  C   UNL     1      34.973 -23.313 -15.334  0.00  0.00    +0.056 C 
ATOM      5  C   UNL     1      34.432 -24.530 -13.309  0.00  0.00    +0.075 C 
ATOM      6  C   UNL     1      36.322 -23.235 -14.922  0.00  0.00    +0.055 C 
ATOM      7  C   UNL     1      35.589 -22.085 -17.349  0.00  0.00    +0.077 C 
ATOM      8  C   UNL     1      34.627 -22.725 -16.562  0.00  0.00    +0.032 C 
ATOM      9  C   UNL     1      35.681 -24.513 -12.825  0.00  0.00    +0.129 C 
ATOM     10  C   UNL     1      36.734 -23.842 -13.629  0.00  0.00    +0.204 C 
ATOM     11  C   UNL     1      36.913 -22.019 -16.924  0.00  0.00    +0.153 C 
ATOM     12  C   UNL     1      37.283 -22.594 -15.711  0.00  0.00    +0.035 C 
ENDROOT
BRANCH   7  13
ATOM     13  N   UNL     1      35.216 -21.507 -18.567  0.00  0.00    -0.310 N 
ATOM     14  N   UNL     1      34.524 -20.550 -21.168  0.00  0.00    +0.389 N 
ATOM     15  C   UNL     1      33.871 -21.741 -19.102  0.00  0.00    +0.068 C 
ATOM     16  C   UNL     1      36.265 -21.269 -19.567  0.00  0.00    +0.068 C 
ATOM     17  C   UNL     1      33.502 -20.659 -20.120  0.00  0.00    -0.055 C 
ATOM     18  C   UNL     1      35.818 -20.202 -20.569  0.00  0.00    -0.055 C 
ATOM     19  H   UNL     1      34.610 -21.451 -21.638  0.00  0.00    -0.080 HD
BRANCH  14  20
ATOM     20  C   UNL     1      34.134 -19.551 -22.163  0.00  0.00    -0.077 C 
ATOM     21  C   UNL     1      35.324 -18.741 -22.632  0.00  0.00    -0.025 C 
ENDBRANCH  14  20
ENDBRANCH   7  13
BRANCH   3  22
ATOM     22  C   UNL     1      32.599 -24.084 -14.891  0.00  0.00    +0.077 C 
ATOM     23  C   UNL     1      31.601 -24.692 -13.962  0.00  0.00    +0.022 C 
ATOM     24  C   UNL     1      31.564 -23.220 -14.250  0.00  0.00    +0.022 C 
ENDBRANCH   3  22
BRANCH   9  26
ATOM     25  O   UNL     1      35.336 -24.897 -10.505  0.00  0.00    -0.245 OA
ATOM     26  C   UNL     1      35.935 -25.154 -11.535  0.00  0.00    +0.342 C 
BRANCH  26  27
ATOM     27  O   UNL     1      36.926 -26.062 -11.666  0.00  0.00    -0.477 OA
ATOM     28  H   UNL     1      36.780 -26.845 -12.158  0.00  0.00    +0.295 HD
ENDBRANCH  26  27
ENDBRANCH   9  26
TORSDOF 5
ENDMDL
MODEL 4
REMARK VINA RESULT:      -8.7      3.880      8.283
REMARK  Name = 71188
REMARK  5 active torsions:
REMARK  status: ('A' for Active; 'I' for Inactive)
REMARK    1  A    between atoms: N_3  and  C_22
REMARK    2  A    between atoms: C_7  and  N_13
REMARK    3  A    between atoms: C_9  and  C_26
REMARK    4  A    between atoms: N_14  and  C_20
REMARK    5  A    between atoms: C_26  and  O_27
REMARK                            x       y       z     vdW  Elec       q    Type
REMARK                         _______ _______ _______ _____ _____    ______ ____
ROOT
ATOM      1  F   UNL     1      33.257 -11.490 -26.536  0.00  0.00    -0.203 F 
ATOM      2  O   UNL     1      34.068 -16.455 -26.353  0.00  0.00    -0.286 OA
ATOM      3  N   UNL     1      34.297 -15.191 -22.483  0.00  0.00    -0.287 N 
ATOM      4  C   UNL     1      34.032 -14.225 -23.494  0.00  0.00    +0.056 C 
ATOM      5  C   UNL     1      34.469 -16.516 -22.834  0.00  0.00    +0.075 C 
ATOM      6  C   UNL     1      33.947 -14.635 -24.844  0.00  0.00    +0.055 C 
ATOM      7  C   UNL     1      33.587 -11.943 -24.231  0.00  0.00    +0.077 C 
ATOM      8  C   UNL     1      33.847 -12.862 -23.210  0.00  0.00    +0.032 C 
ATOM      9  C   UNL     1      34.409 -17.010 -24.078  0.00  0.00    +0.129 C 
ATOM     10  C   UNL     1      34.137 -16.067 -25.193  0.00  0.00    +0.204 C 
ATOM     11  C   UNL     1      33.508 -12.368 -25.554  0.00  0.00    +0.153 C 
ATOM     12  C   UNL     1      33.686 -13.713 -25.864  0.00  0.00    +0.035 C 
ENDROOT
BRANCH   7  13
ATOM     13  N   UNL     1      33.408 -10.591 -23.918  0.00  0.00    -0.310 N 
ATOM     14  N   UNL     1      33.122  -7.889 -23.039  0.00  0.00    +0.389 N 
ATOM     15  C   UNL     1      34.549  -9.672 -23.986  0.00  0.00    +0.068 C 
ATOM     16  C   UNL     1      32.367 -10.241 -22.944  0.00  0.00    +0.068 C 
ATOM     17  C   UNL     1      34.065  -8.225 -24.112  0.00  0.00    -0.055 C 
ATOM     18  C   UNL     1      31.954  -8.776 -23.104  0.00  0.00    -0.055 C 
ATOM     19  H   UNL     1      33.585  -8.021 -22.140  0.00  0.00    -0.080 HD
BRANCH  14  20
ATOM     20  C   UNL     1      32.709  -6.489 -23.138  0.00  0.00    -0.077 C 
ATOM     21  C   UNL     1      32.062  -6.009 -21.856  0.00  0.00    -0.025 C 
ENDBRANCH  14  20
ENDBRANCH   7  13
BRANCH   3  22
ATOM     22  C   UNL     1      34.395 -14.815 -21.056  0.00  0.00    +0.077 C 
ATOM     23  C   UNL     1      33.213 -14.932 -20.152  0.00  0.00    +0.022 C 
ATOM     24  C   UNL     1      34.382 -15.859 -19.987  0.00  0.00    +0.022 C 
ENDBRANCH   3  22
BRANCH   9  26
ATOM     25  O   UNL     1      35.424 -19.115 -23.645  0.00  0.00    -0.245 OA
ATOM     26  C   UNL     1      34.618 -18.446 -24.266  0.00  0.00    +0.342 C 
BRANCH  26  27
ATOM     27  O   UNL     1      33.784 -18.904 -25.225  0.00  0.00    -0.477 OA
ATOM     28  H   UNL     1      33.051 -19.438 -24.991  0.00  0.00    +0.295 HD
ENDBRANCH  26  27
ENDBRANCH   9  26
TORSDOF 5
ENDMDL
MODEL 5
REMARK VINA RESULT:      -8.7      3.255      5.254
REMARK  Name = 71188
REMARK  5 active torsions:
REMARK  status: ('A' for Active; 'I' for Inactive)
REMARK    1  A    between atoms: N_3  and  C_22
REMARK    2  A    between atoms: C_7  and  N_13
REMARK    3  A    between atoms: C_9  and  C_26
REMARK    4  A    between atoms: N_14  and  C_20
REMARK    5  A    between atoms: C_26  and  O_27
REMARK                            x       y       z     vdW  Elec       q    Type
REMARK                         _______ _______ _______ _____ _____    ______ ____
ROOT
ATOM      1  F   UNL     1      32.184 -15.214 -20.169  0.00  0.00    -0.203 F 
ATOM      2  O   UNL     1      30.787 -10.465 -21.083  0.00  0.00    -0.286 OA
ATOM      3  N   UNL     1      33.591 -11.318 -23.919  0.00  0.00    -0.287 N 
ATOM      4  C   UNL     1      33.254 -12.330 -22.976  0.00  0.00    +0.056 C 
ATOM      5  C   UNL     1      32.968 -10.087 -23.849  0.00  0.00    +0.075 C 
ATOM      6  C   UNL     1      32.286 -12.061 -21.983  0.00  0.00    +0.055 C 
ATOM      7  C   UNL     1      33.488 -14.571 -22.045  0.00  0.00    +0.077 C 
ATOM      8  C   UNL     1      33.847 -13.603 -22.987  0.00  0.00    +0.032 C 
ATOM      9  C   UNL     1      32.041  -9.729 -22.952  0.00  0.00    +0.129 C 
ATOM     10  C   UNL     1      31.632 -10.728 -21.931  0.00  0.00    +0.204 C 
ATOM     11  C   UNL     1      32.532 -14.287 -21.074  0.00  0.00    +0.153 C 
ATOM     12  C   UNL     1      31.928 -13.033 -21.040  0.00  0.00    +0.035 C 
ENDROOT
BRANCH   7  13
ATOM     13  N   UNL     1      34.097 -15.831 -22.079  0.00  0.00    -0.310 N 
ATOM     14  N   UNL     1      35.552 -18.283 -22.238  0.00  0.00    +0.389 N 
ATOM     15  C   UNL     1      34.911 -16.276 -20.944  0.00  0.00    +0.068 C 
ATOM     16  C   UNL     1      34.478 -16.377 -23.387  0.00  0.00    +0.068 C 
ATOM     17  C   UNL     1      35.048 -17.801 -20.946  0.00  0.00    -0.055 C 
ATOM     18  C   UNL     1      34.628 -17.898 -23.311  0.00  0.00    -0.055 C 
ATOM     19  H   UNL     1      36.461 -17.856 -22.416  0.00  0.00    -0.080 HD
BRANCH  14  20
ATOM     20  C   UNL     1      35.729 -19.735 -22.209  0.00  0.00    -0.077 C 
ATOM     21  C   UNL     1      35.463 -20.299 -20.829  0.00  0.00    -0.025 C 
ENDBRANCH  14  20
ENDBRANCH   7  13
BRANCH   3  22
ATOM     22  C   UNL     1      34.597 -11.547 -24.978  0.00  0.00    +0.077 C 
ATOM     23  C   UNL     1      34.205 -11.536 -26.418  0.00  0.00    +0.022 C 
ATOM     24  C   UNL     1      35.049 -10.429 -25.859  0.00  0.00    +0.022 C 
ENDBRANCH   3  22
BRANCH   9  26
ATOM     25  O   UNL     1      30.979  -7.892 -24.023  0.00  0.00    -0.245 OA
ATOM     26  C   UNL     1      31.486  -8.377 -23.026  0.00  0.00    +0.342 C 
BRANCH  26  27
ATOM     27  O   UNL     1      31.624  -7.763 -21.832  0.00  0.00    -0.477 OA
ATOM     28  H   UNL     1      31.701  -6.831 -21.791  0.00  0.00    +0.295 HD
ENDBRANCH  26  27
ENDBRANCH   9  26
TORSDOF 5
ENDMDL
MODEL 6
REMARK VINA RESULT:      -8.5      4.449      6.771
REMARK  Name = 71188
REMARK  5 active torsions:
REMARK  status: ('A' for Active; 'I' for Inactive)
REMARK    1  A    between atoms: N_3  and  C_22
REMARK    2  A    between atoms: C_7  and  N_13
REMARK    3  A    between atoms: C_9  and  C_26
REMARK    4  A    between atoms: N_14  and  C_20
REMARK    5  A    between atoms: C_26  and  O_27
REMARK                            x       y       z     vdW  Elec       q    Type
REMARK                         _______ _______ _______ _____ _____    ______ ____
ROOT
ATOM      1  F   UNL     1      32.094 -14.769 -21.025  0.00  0.00    -0.203 F 
ATOM      2  O   UNL     1      31.139  -9.998 -19.734  0.00  0.00    -0.286 OA
ATOM      3  N   UNL     1      33.173  -9.764 -23.261  0.00  0.00    -0.287 N 
ATOM      4  C   UNL     1      32.913 -11.053 -22.715  0.00  0.00    +0.056 C 
ATOM      5  C   UNL     1      32.735  -8.639 -22.590  0.00  0.00    +0.075 C 
ATOM      6  C   UNL     1      32.211 -11.163 -21.494  0.00  0.00    +0.055 C 
ATOM      7  C   UNL     1      33.055 -13.486 -22.775  0.00  0.00    +0.077 C 
ATOM      8  C   UNL     1      33.329 -12.238 -23.342  0.00  0.00    +0.032 C 
ATOM      9  C   UNL     1      32.063  -8.631 -21.431  0.00  0.00    +0.129 C 
ATOM     10  C   UNL     1      31.752  -9.936 -20.793  0.00  0.00    +0.204 C 
ATOM     11  C   UNL     1      32.361 -13.574 -21.571  0.00  0.00    +0.153 C 
ATOM     12  C   UNL     1      31.937 -12.414 -20.928  0.00  0.00    +0.035 C 
ENDROOT
BRANCH   7  13
ATOM     13  N   UNL     1      33.482 -14.651 -23.422  0.00  0.00    -0.310 N 
ATOM     14  N   UNL     1      34.545 -16.886 -24.848  0.00  0.00    +0.389 N 
ATOM     15  C   UNL     1      34.539 -15.471 -22.821  0.00  0.00    +0.068 C 
ATOM     16  C   UNL     1      33.400 -14.696 -24.887  0.00  0.00    +0.068 C 
ATOM     17  C   UNL     1      34.498 -16.895 -23.381  0.00  0.00    -0.055 C 
ATOM     18  C   UNL     1      33.395 -16.145 -25.380  0.00  0.00    -0.055 C 
ATOM     19  H   UNL     1      35.403 -16.423 -25.147  0.00  0.00    -0.080 HD
BRANCH  14  20
ATOM     20  C   UNL     1      34.560 -18.253 -25.369  0.00  0.00    -0.077 C 
ATOM     21  C   UNL     1      34.807 -19.263 -24.267  0.00  0.00    -0.025 C 
ENDBRANCH  14  20
ENDBRANCH   7  13
BRANCH   3  22
ATOM     22  C   UNL     1      33.902  -9.593 -24.535  0.00  0.00    +0.077 C 
ATOM     23  C   UNL     1      34.842  -8.450 -24.730  0.00  0.00    +0.022 C 
ATOM     24  C   UNL     1      35.371  -9.849 -24.616  0.00  0.00    +0.022 C 
ENDBRANCH   3  22
BRANCH   9  26
ATOM     25  O   UNL     1      31.146  -6.439 -21.485  0.00  0.00    -0.245 OA
ATOM     26  C   UNL     1      31.676  -7.340 -20.860  0.00  0.00    +0.342 C 
BRANCH  26  27
ATOM     27  O   UNL     1      31.996  -7.310 -19.548  0.00  0.00    -0.477 OA
ATOM     28  H   UNL     1      32.557  -7.967 -19.188  0.00  0.00    +0.295 HD
ENDBRANCH  26  27
ENDBRANCH   9  26
TORSDOF 5
ENDMDL
MODEL 7
REMARK VINA RESULT:      -8.1      5.476     10.071
REMARK  Name = 71188
REMARK  5 active torsions:
REMARK  status: ('A' for Active; 'I' for Inactive)
REMARK    1  A    between atoms: N_3  and  C_22
REMARK    2  A    between atoms: C_7  and  N_13
REMARK    3  A    between atoms: C_9  and  C_26
REMARK    4  A    between atoms: N_14  and  C_20
REMARK    5  A    between atoms: C_26  and  O_27
REMARK                            x       y       z     vdW  Elec       q    Type
REMARK                         _______ _______ _______ _____ _____    ______ ____
ROOT
ATOM      1  F   UNL     1      30.900 -10.110 -20.395  0.00  0.00    -0.203 F 
ATOM      2  O   UNL     1      32.474 -14.640 -21.925  0.00  0.00    -0.286 OA
ATOM      3  N   UNL     1      33.659 -12.055 -24.847  0.00  0.00    -0.287 N 
ATOM      4  C   UNL     1      32.957 -11.531 -23.725  0.00  0.00    +0.056 C 
ATOM      5  C   UNL     1      33.917 -13.411 -24.917  0.00  0.00    +0.075 C 
ATOM      6  C   UNL     1      32.534 -12.404 -22.698  0.00  0.00    +0.055 C 
ATOM      7  C   UNL     1      31.969  -9.687 -22.471  0.00  0.00    +0.077 C 
ATOM      8  C   UNL     1      32.660 -10.165 -23.589  0.00  0.00    +0.032 C 
ATOM      9  C   UNL     1      33.562 -14.322 -24.002  0.00  0.00    +0.129 C 
ATOM     10  C   UNL     1      32.825 -13.858 -22.799  0.00  0.00    +0.204 C 
ATOM     11  C   UNL     1      31.561 -10.564 -21.470  0.00  0.00    +0.153 C 
ATOM     12  C   UNL     1      31.842 -11.923 -21.579  0.00  0.00    +0.035 C 
ENDROOT
BRANCH   7  13
ATOM     13  N   UNL     1      31.685  -8.321 -22.362  0.00  0.00    -0.310 N 
ATOM     14  N   UNL     1      31.347  -5.489 -22.229  0.00  0.00    +0.389 N 
ATOM     15  C   UNL     1      31.196  -7.584 -23.531  0.00  0.00    +0.068 C 
ATOM     16  C   UNL     1      32.454  -7.533 -21.390  0.00  0.00    +0.068 C 
ATOM     17  C   UNL     1      30.486  -6.300 -23.097  0.00  0.00    -0.055 C 
ATOM     18  C   UNL     1      31.703  -6.251 -21.026  0.00  0.00    -0.055 C 
ATOM     19  H   UNL     1      32.201  -5.256 -22.736  0.00  0.00    -0.080 HD
BRANCH  14  20
ATOM     20  C   UNL     1      30.678  -4.239 -21.865  0.00  0.00    -0.077 C 
ATOM     21  C   UNL     1      30.907  -3.164 -22.907  0.00  0.00    -0.025 C 
ENDBRANCH  14  20
ENDBRANCH   7  13
BRANCH   3  22
ATOM     22  C   UNL     1      34.123 -11.185 -25.949  0.00  0.00    +0.077 C 
ATOM     23  C   UNL     1      35.437 -10.482 -25.864  0.00  0.00    +0.022 C 
ATOM     24  C   UNL     1      35.247 -11.609 -26.836  0.00  0.00    +0.022 C 
ENDBRANCH   3  22
BRANCH   9  26
ATOM     25  O   UNL     1      33.733 -16.313 -25.289  0.00  0.00    -0.245 OA
ATOM     26  C   UNL     1      33.919 -15.721 -24.240  0.00  0.00    +0.342 C 
BRANCH  26  27
ATOM     27  O   UNL     1      34.481 -16.243 -23.129  0.00  0.00    -0.477 OA
ATOM     28  H   UNL     1      35.404 -16.167 -22.991  0.00  0.00    +0.295 HD
ENDBRANCH  26  27
ENDBRANCH   9  26
TORSDOF 5
ENDMDL
MODEL 8
REMARK VINA RESULT:      -8.0      5.389     10.103
REMARK  Name = 71188
REMARK  5 active torsions:
REMARK  status: ('A' for Active; 'I' for Inactive)
REMARK    1  A    between atoms: N_3  and  C_22
REMARK    2  A    between atoms: C_7  and  N_13
REMARK    3  A    between atoms: C_9  and  C_26
REMARK    4  A    between atoms: N_14  and  C_20
REMARK    5  A    between atoms: C_26  and  O_27
REMARK                            x       y       z     vdW  Elec       q    Type
REMARK                         _______ _______ _______ _____ _____    ______ ____
ROOT
ATOM      1  F   UNL     1      34.290 -10.052 -25.631  0.00  0.00    -0.203 F 
ATOM      2  O   UNL     1      33.997 -14.518 -23.325  0.00  0.00    -0.286 OA
ATOM      3  N   UNL     1      31.829 -11.968 -20.995  0.00  0.00    -0.287 N 
ATOM      4  C   UNL     1      32.445 -11.451 -22.170  0.00  0.00    +0.056 C 
ATOM      5  C   UNL     1      31.980 -13.304 -20.678  0.00  0.00    +0.075 C 
ATOM      6  C   UNL     1      33.203 -12.312 -22.995  0.00  0.00    +0.055 C 
ATOM      7  C   UNL     1      32.954  -9.634 -23.715  0.00  0.00    +0.077 C 
ATOM      8  C   UNL     1      32.334 -10.105 -22.553  0.00  0.00    +0.032 C 
ATOM      9  C   UNL     1      32.673 -14.203 -21.388  0.00  0.00    +0.129 C 
ATOM     10  C   UNL     1      33.349 -13.745 -22.630  0.00  0.00    +0.204 C 
ATOM     11  C   UNL     1      33.696 -10.499 -24.515  0.00  0.00    +0.153 C 
ATOM     12  C   UNL     1      33.822 -11.839 -24.158  0.00  0.00    +0.035 C 
ENDROOT
BRANCH   7  13
ATOM     13  N   UNL     1      32.827  -8.287 -24.072  0.00  0.00    -0.310 N 
ATOM     14  N   UNL     1      32.549  -5.485 -24.546  0.00  0.00    +0.389 N 
ATOM     15  C   UNL     1      34.011  -7.422 -24.077  0.00  0.00    +0.068 C 
ATOM     16  C   UNL     1      31.552  -7.617 -23.791  0.00  0.00    +0.068 C 
ATOM     17  C   UNL     1      33.771  -6.189 -24.952  0.00  0.00    -0.055 C 
ATOM     18  C   UNL     1      31.391  -6.378 -24.675  0.00  0.00    -0.055 C 
ATOM     19  H   UNL     1      32.640  -5.203 -23.570  0.00  0.00    -0.080 HD
BRANCH  14  20
ATOM     20  C   UNL     1      32.359  -4.279 -25.353  0.00  0.00    -0.077 C 
ATOM     21  C   UNL     1      32.879  -4.469 -26.763  0.00  0.00    -0.025 C 
ENDBRANCH  14  20
ENDBRANCH   7  13
BRANCH   3  22
ATOM     22  C   UNL     1      31.025 -11.111 -20.098  0.00  0.00    +0.077 C 
ATOM     23  C   UNL     1      31.296 -11.074 -18.631  0.00  0.00    +0.022 C 
ATOM     24  C   UNL     1      31.613  -9.882 -19.486  0.00  0.00    +0.022 C 
ENDBRANCH   3  22
BRANCH   9  26
ATOM     25  O   UNL     1      31.750 -16.277 -20.681  0.00  0.00    -0.245 OA
ATOM     26  C   UNL     1      32.727 -15.582 -20.901  0.00  0.00    +0.342 C 
BRANCH  26  27
ATOM     27  O   UNL     1      34.015 -15.956 -20.737  0.00  0.00    -0.477 OA
ATOM     28  H   UNL     1      34.628 -15.841 -21.435  0.00  0.00    +0.295 HD
ENDBRANCH  26  27
ENDBRANCH   9  26
TORSDOF 5
ENDMDL
MODEL 9
REMARK VINA RESULT:      -7.8      4.065      8.239
REMARK  Name = 71188
REMARK  5 active torsions:
REMARK  status: ('A' for Active; 'I' for Inactive)
REMARK    1  A    between atoms: N_3  and  C_22
REMARK    2  A    between atoms: C_7  and  N_13
REMARK    3  A    between atoms: C_9  and  C_26
REMARK    4  A    between atoms: N_14  and  C_20
REMARK    5  A    between atoms: C_26  and  O_27
REMARK                            x       y       z     vdW  Elec       q    Type
REMARK                         _______ _______ _______ _____ _____    ______ ____
ROOT
ATOM      1  F   UNL     1      32.650 -12.871 -20.026  0.00  0.00    -0.203 F 
ATOM      2  O   UNL     1      34.237 -17.568 -20.896  0.00  0.00    -0.286 OA
ATOM      3  N   UNL     1      33.985 -15.828 -24.575  0.00  0.00    -0.287 N 
ATOM      4  C   UNL     1      33.637 -15.050 -23.434  0.00  0.00    +0.056 C 
ATOM      5  C   UNL     1      34.393 -17.137 -24.408  0.00  0.00    +0.075 C 
ATOM      6  C   UNL     1      33.716 -15.628 -22.147  0.00  0.00    +0.055 C 
ATOM      7  C   UNL     1      32.882 -12.982 -22.385  0.00  0.00    +0.077 C 
ATOM      8  C   UNL     1      33.214 -13.714 -23.529  0.00  0.00    +0.032 C 
ATOM      9  C   UNL     1      34.502 -17.779 -23.238  0.00  0.00    +0.129 C 
ATOM     10  C   UNL     1      34.157 -17.039 -21.997  0.00  0.00    +0.204 C 
ATOM     11  C   UNL     1      32.966 -13.570 -21.126  0.00  0.00    +0.153 C 
ATOM     12  C   UNL     1      33.383 -14.893 -21.003  0.00  0.00    +0.035 C 
ENDROOT
BRANCH   7  13
ATOM     13  N   UNL     1      32.462 -11.653 -22.509  0.00  0.00    -0.310 N 
ATOM     14  N   UNL     1      31.475  -9.014 -22.977  0.00  0.00    +0.389 N 
ATOM     15  C   UNL     1      31.169 -11.244 -21.953  0.00  0.00    +0.068 C 
ATOM     16  C   UNL     1      32.921 -10.892 -23.678  0.00  0.00    +0.068 C 
ATOM     17  C   UNL     1      31.131  -9.728 -21.741  0.00  0.00    -0.055 C 
ATOM     18  C   UNL     1      32.827  -9.388 -23.410  0.00  0.00    -0.055 C 
ATOM     19  H   UNL     1      30.811  -9.277 -23.705  0.00  0.00    -0.080 HD
BRANCH  14  20
ATOM     20  C   UNL     1      31.383  -7.568 -22.775  0.00  0.00    -0.077 C 
ATOM     21  C   UNL     1      31.817  -7.173 -21.379  0.00  0.00    -0.025 C 
ENDBRANCH  14  20
ENDBRANCH   7  13
BRANCH   3  22
ATOM     22  C   UNL     1      33.921 -15.271 -25.943  0.00  0.00    +0.077 C 
ATOM     23  C   UNL     1      32.705 -15.456 -26.788  0.00  0.00    +0.022 C 
ATOM     24  C   UNL     1      33.051 -14.098 -26.252  0.00  0.00    +0.022 C 
ENDBRANCH   3  22
BRANCH   9  26
ATOM     25  O   UNL     1      34.956 -19.889 -24.235  0.00  0.00    -0.245 OA
ATOM     26  C   UNL     1      34.951 -19.172 -23.249  0.00  0.00    +0.342 C 
BRANCH  26  27
ATOM     27  O   UNL     1      35.353 -19.529 -22.011  0.00  0.00    -0.477 OA
ATOM     28  H   UNL     1      34.808 -20.076 -21.481  0.00  0.00    +0.295 HD
ENDBRANCH  26  27
ENDBRANCH   9  26
TORSDOF 5
ENDMDL
