MODEL 1
REMARK VINA RESULT:      -9.4      0.000      0.000
REMARK  Name = 3256857
REMARK  9 active torsions:
REMARK  status: ('A' for Active; 'I' for Inactive)
REMARK    1  A    between atoms: C_1  and  C_18
REMARK    2  A    between atoms: C_6  and  N_8
REMARK    3  A    between atoms: C_9  and  C_11
REMARK    4  A    between atoms: C_11  and  C_12
REMARK    5  A    between atoms: C_12  and  C_13
REMARK    6  A    between atoms: C_13  and  C_15
REMARK    7  A    between atoms: C_15  and  O_16
REMARK    8  A    between atoms: C_18  and  C_19
REMARK    9  A    between atoms: C_19  and  N_21
REMARK                            x       y       z     vdW  Elec       q    Type
REMARK                         _______ _______ _______ _____ _____    ______ ____
ROOT
ATOM      1  C   UNL     1      35.366 -21.718 -19.079  0.00  0.00    -0.024 C 
ATOM      2  C   UNL     1      36.558 -21.545 -18.376  0.00  0.00    -0.003 C 
ATOM      3  C   UNL     1      34.310 -22.423 -18.502  0.00  0.00    -0.003 C 
ATOM      4  C   UNL     1      36.694 -22.077 -17.092  0.00  0.00    +0.014 C 
ATOM      5  C   UNL     1      34.446 -22.955 -17.220  0.00  0.00    +0.014 C 
ATOM      6  C   UNL     1      35.637 -22.783 -16.516  0.00  0.00    +0.050 C 
ENDROOT
BRANCH   6   8
ATOM      7  O   UNL     1      36.308 -25.572 -15.627  0.00  0.00    -0.275 OA
ATOM      8  N   UNL     1      35.773 -23.315 -15.232  0.00  0.00    -0.284 N 
ATOM      9  C   UNL     1      36.091 -24.633 -14.868  0.00  0.00    +0.226 C 
ATOM     10  H   UNL     1      35.627 -22.686 -14.489  0.00  0.00    +0.155 HD
BRANCH   9  11
ATOM     11  C   UNL     1      36.139 -24.789 -13.354  0.00  0.00    +0.086 C 
BRANCH  11  12
ATOM     12  C   UNL     1      37.285 -25.688 -12.893  0.00  0.00    +0.021 C 
BRANCH  12  13
ATOM     13  C   UNL     1      38.628 -24.967 -12.876  0.00  0.00    +0.110 C 
BRANCH  13  15
ATOM     14  O   UNL     1      40.681 -25.052 -14.143  0.00  0.00    -0.250 OA
ATOM     15  C   UNL     1      39.573 -25.519 -13.914  0.00  0.00    +0.314 C 
BRANCH  15  16
ATOM     16  O   UNL     1      39.058 -26.576 -14.588  0.00  0.00    -0.480 OA
ATOM     17  H   UNL     1      38.881 -26.506 -15.505  0.00  0.00    +0.295 HD
ENDBRANCH  15  16
ENDBRANCH  13  15
ENDBRANCH  12  13
ENDBRANCH  11  12
ENDBRANCH   9  11
ENDBRANCH   6   8
BRANCH   1  18
ATOM     18  C   UNL     1      35.221 -21.143 -20.466  0.00  0.00    +0.009 C 
BRANCH  18  19
ATOM     19  C   UNL     1      34.423 -19.847 -20.494  0.00  0.00    -0.023 C 
BRANCH  19  21
ATOM     20  O   UNL     1      36.379 -18.790 -21.187  0.00  0.00    -0.290 OA
ATOM     21  N   UNL     1      35.031 -18.845 -21.436  0.00  0.00    +0.430 N 
ATOM     22  C   UNL     1      34.397 -17.489 -21.204  0.00  0.00    -0.028 C 
ATOM     23  C   UNL     1      34.779 -19.284 -22.866  0.00  0.00    -0.028 C 
ATOM     24  C   UNL     1      34.901 -16.442 -22.191  0.00  0.00    -0.017 C 
ATOM     25  C   UNL     1      35.290 -18.266 -23.877  0.00  0.00    -0.017 C 
ATOM     26  C   UNL     1      34.680 -16.889 -23.632  0.00  0.00    -0.004 C 
ENDBRANCH  19  21
ENDBRANCH  18  19
ENDBRANCH   1  18
TORSDOF 9
ENDMDL
MODEL 2
REMARK VINA RESULT:      -9.3      4.054      5.985
REMARK  Name = 3256857
REMARK  9 active torsions:
REMARK  status: ('A' for Active; 'I' for Inactive)
REMARK    1  A    between atoms: C_1  and  C_18
REMARK    2  A    between atoms: C_6  and  N_8
REMARK    3  A    between atoms: C_9  and  C_11
REMARK    4  A    between atoms: C_11  and  C_12
REMARK    5  A    between atoms: C_12  and  C_13
REMARK    6  A    between atoms: C_13  and  C_15
REMARK    7  A    between atoms: C_15  and  O_16
REMARK    8  A    between atoms: C_18  and  C_19
REMARK    9  A    between atoms: C_19  and  N_21
REMARK                            x       y       z     vdW  Elec       q    Type
REMARK                         _______ _______ _______ _____ _____    ______ ____
ROOT
ATOM      1  C   UNL     1      34.747 -19.491 -21.327  0.00  0.00    -0.024 C 
ATOM      2  C   UNL     1      35.477 -20.438 -20.610  0.00  0.00    -0.003 C 
ATOM      3  C   UNL     1      33.366 -19.401 -21.161  0.00  0.00    -0.003 C 
ATOM      4  C   UNL     1      34.824 -21.298 -19.725  0.00  0.00    +0.014 C 
ATOM      5  C   UNL     1      32.713 -20.261 -20.277  0.00  0.00    +0.014 C 
ATOM      6  C   UNL     1      33.442 -21.208 -19.560  0.00  0.00    +0.050 C 
ENDROOT
BRANCH   6   8
ATOM      7  O   UNL     1      34.543 -22.977 -17.396  0.00  0.00    -0.275 OA
ATOM      8  N   UNL     1      32.789 -22.068 -18.675  0.00  0.00    -0.284 N 
ATOM      9  C   UNL     1      33.353 -22.876 -17.675  0.00  0.00    +0.226 C 
ATOM     10  H   UNL     1      31.809 -22.112 -18.763  0.00  0.00    +0.155 HD
BRANCH   9  11
ATOM     11  C   UNL     1      32.280 -23.661 -16.933  0.00  0.00    +0.086 C 
BRANCH  11  12
ATOM     12  C   UNL     1      31.076 -22.799 -16.558  0.00  0.00    +0.021 C 
BRANCH  12  13
ATOM     13  C   UNL     1      29.886 -23.626 -16.083  0.00  0.00    +0.110 C 
BRANCH  13  15
ATOM     14  O   UNL     1      27.912 -24.050 -17.408  0.00  0.00    -0.250 OA
ATOM     15  C   UNL     1      28.617 -23.250 -16.807  0.00  0.00    +0.314 C 
BRANCH  15  16
ATOM     16  O   UNL     1      28.349 -21.922 -16.746  0.00  0.00    -0.480 OA
ATOM     17  H   UNL     1      28.862 -21.365 -16.195  0.00  0.00    +0.295 HD
ENDBRANCH  15  16
ENDBRANCH  13  15
ENDBRANCH  12  13
ENDBRANCH  11  12
ENDBRANCH   9  11
ENDBRANCH   6   8
BRANCH   1  18
ATOM     18  C   UNL     1      35.454 -18.562 -22.284  0.00  0.00    +0.009 C 
BRANCH  18  19
ATOM     19  C   UNL     1      34.521 -17.947 -23.317  0.00  0.00    -0.023 C 
BRANCH  19  21
ATOM     20  O   UNL     1      35.775 -15.993 -23.135  0.00  0.00    -0.290 OA
ATOM     21  N   UNL     1      34.482 -16.448 -23.201  0.00  0.00    +0.430 N 
ATOM     22  C   UNL     1      33.724 -16.062 -21.947  0.00  0.00    -0.028 C 
ATOM     23  C   UNL     1      33.783 -15.868 -24.415  0.00  0.00    -0.028 C 
ATOM     24  C   UNL     1      33.566 -14.551 -21.815  0.00  0.00    -0.017 C 
ATOM     25  C   UNL     1      33.627 -14.357 -24.320  0.00  0.00    -0.017 C 
ATOM     26  C   UNL     1      32.891 -13.956 -23.045  0.00  0.00    -0.004 C 
ENDBRANCH  19  21
ENDBRANCH  18  19
ENDBRANCH   1  18
TORSDOF 9
ENDMDL
MODEL 3
REMARK VINA RESULT:      -9.2      7.472     11.178
REMARK  Name = 3256857
REMARK  9 active torsions:
REMARK  status: ('A' for Active; 'I' for Inactive)
REMARK    1  A    between atoms: C_1  and  C_18
REMARK    2  A    between atoms: C_6  and  N_8
REMARK    3  A    between atoms: C_9  and  C_11
REMARK    4  A    between atoms: C_11  and  C_12
REMARK    5  A    between atoms: C_12  and  C_13
REMARK    6  A    between atoms: C_13  and  C_15
REMARK    7  A    between atoms: C_15  and  O_16
REMARK    8  A    between atoms: C_18  and  C_19
REMARK    9  A    between atoms: C_19  and  N_21
REMARK                            x       y       z     vdW  Elec       q    Type
REMARK                         _______ _______ _______ _____ _____    ______ ____
ROOT
ATOM      1  C   UNL     1      32.051 -12.254 -21.640  0.00  0.00    -0.024 C 
ATOM      2  C   UNL     1      32.094 -13.041 -20.489  0.00  0.00    -0.003 C 
ATOM      3  C   UNL     1      32.494 -12.772 -22.856  0.00  0.00    -0.003 C 
ATOM      4  C   UNL     1      32.579 -14.347 -20.555  0.00  0.00    +0.014 C 
ATOM      5  C   UNL     1      32.980 -14.077 -22.922  0.00  0.00    +0.014 C 
ATOM      6  C   UNL     1      33.023 -14.865 -21.773  0.00  0.00    +0.050 C 
ENDROOT
BRANCH   6   8
ATOM      7  O   UNL     1      35.174 -16.224 -20.178  0.00  0.00    -0.275 OA
ATOM      8  N   UNL     1      33.508 -16.172 -21.839  0.00  0.00    -0.284 N 
ATOM      9  C   UNL     1      34.520 -16.762 -21.066  0.00  0.00    +0.226 C 
ATOM     10  H   UNL     1      33.087 -16.753 -22.513  0.00  0.00    +0.155 HD
BRANCH   9  11
ATOM     11  C   UNL     1      34.739 -18.215 -21.463  0.00  0.00    +0.086 C 
BRANCH  11  12
ATOM     12  C   UNL     1      35.689 -18.362 -22.651  0.00  0.00    +0.021 C 
BRANCH  12  13
ATOM     13  C   UNL     1      34.963 -18.716 -23.945  0.00  0.00    +0.110 C 
BRANCH  13  15
ATOM     14  O   UNL     1      33.937 -17.482 -25.748  0.00  0.00    -0.250 OA
ATOM     15  C   UNL     1      34.702 -17.497 -24.793  0.00  0.00    +0.314 C 
BRANCH  15  16
ATOM     16  O   UNL     1      35.426 -16.419 -24.404  0.00  0.00    -0.480 OA
ATOM     17  H   UNL     1      36.209 -16.536 -23.902  0.00  0.00    +0.295 HD
ENDBRANCH  15  16
ENDBRANCH  13  15
ENDBRANCH  12  13
ENDBRANCH  11  12
ENDBRANCH   9  11
ENDBRANCH   6   8
BRANCH   1  18
ATOM     18  C   UNL     1      31.526 -10.841 -21.566  0.00  0.00    +0.009 C 
BRANCH  18  19
ATOM     19  C   UNL     1      31.567 -10.119 -22.906  0.00  0.00    -0.023 C 
BRANCH  19  21
ATOM     20  O   UNL     1      32.679  -8.595 -21.540  0.00  0.00    -0.290 OA
ATOM     21  N   UNL     1      32.473  -8.919 -22.857  0.00  0.00    +0.430 N 
ATOM     22  C   UNL     1      31.816  -7.765 -23.586  0.00  0.00    -0.028 C 
ATOM     23  C   UNL     1      33.791  -9.257 -23.527  0.00  0.00    -0.028 C 
ATOM     24  C   UNL     1      32.720  -6.540 -23.656  0.00  0.00    -0.017 C 
ATOM     25  C   UNL     1      34.724  -8.056 -23.595  0.00  0.00    -0.017 C 
ATOM     26  C   UNL     1      34.060  -6.879 -24.301  0.00  0.00    -0.004 C 
ENDBRANCH  19  21
ENDBRANCH  18  19
ENDBRANCH   1  18
TORSDOF 9
ENDMDL
MODEL 4
REMARK VINA RESULT:      -9.1      2.076     10.229
REMARK  Name = 3256857
REMARK  9 active torsions:
REMARK  status: ('A' for Active; 'I' for Inactive)
REMARK    1  A    between atoms: C_1  and  C_18
REMARK    2  A    between atoms: C_6  and  N_8
REMARK    3  A    between atoms: C_9  and  C_11
REMARK    4  A    between atoms: C_11  and  C_12
REMARK    5  A    between atoms: C_12  and  C_13
REMARK    6  A    between atoms: C_13  and  C_15
REMARK    7  A    between atoms: C_15  and  O_16
REMARK    8  A    between atoms: C_18  and  C_19
REMARK    9  A    between atoms: C_19  and  N_21
REMARK                            x       y       z     vdW  Elec       q    Type
REMARK                         _______ _______ _______ _____ _____    ______ ____
ROOT
ATOM      1  C   UNL     1      34.851 -22.343 -17.801  0.00  0.00    -0.024 C 
ATOM      2  C   UNL     1      33.775 -22.088 -18.652  0.00  0.00    -0.003 C 
ATOM      3  C   UNL     1      36.123 -21.870 -18.123  0.00  0.00    -0.003 C 
ATOM      4  C   UNL     1      33.972 -21.359 -19.826  0.00  0.00    +0.014 C 
ATOM      5  C   UNL     1      36.319 -21.143 -19.297  0.00  0.00    +0.014 C 
ATOM      6  C   UNL     1      35.245 -20.887 -20.148  0.00  0.00    +0.050 C 
ENDROOT
BRANCH   6   8
ATOM      7  O   UNL     1      35.482 -17.925 -20.582  0.00  0.00    -0.275 OA
ATOM      8  N   UNL     1      35.441 -20.159 -21.322  0.00  0.00    -0.284 N 
ATOM      9  C   UNL     1      35.547 -18.767 -21.472  0.00  0.00    +0.226 C 
ATOM     10  H   UNL     1      35.515 -20.688 -22.149  0.00  0.00    +0.155 HD
BRANCH   9  11
ATOM     11  C   UNL     1      35.759 -18.386 -22.931  0.00  0.00    +0.086 C 
BRANCH  11  12
ATOM     12  C   UNL     1      34.901 -17.196 -23.357  0.00  0.00    +0.021 C 
BRANCH  12  13
ATOM     13  C   UNL     1      34.780 -17.071 -24.873  0.00  0.00    +0.110 C 
BRANCH  13  15
ATOM     14  O   UNL     1      33.568 -15.680 -26.429  0.00  0.00    -0.250 OA
ATOM     15  C   UNL     1      33.870 -15.937 -25.271  0.00  0.00    +0.314 C 
BRANCH  15  16
ATOM     16  O   UNL     1      33.436 -15.211 -24.212  0.00  0.00    -0.480 OA
ATOM     17  H   UNL     1      32.611 -14.771 -24.251  0.00  0.00    +0.295 HD
ENDBRANCH  15  16
ENDBRANCH  13  15
ENDBRANCH  12  13
ENDBRANCH  11  12
ENDBRANCH   9  11
ENDBRANCH   6   8
BRANCH   1  18
ATOM     18  C   UNL     1      34.637 -23.131 -16.533  0.00  0.00    +0.009 C 
BRANCH  18  19
ATOM     19  C   UNL     1      35.663 -22.815 -15.454  0.00  0.00    -0.023 C 
BRANCH  19  21
ATOM     20  O   UNL     1      35.842 -25.128 -15.661  0.00  0.00    -0.290 OA
ATOM     21  N   UNL     1      36.333 -24.064 -14.948  0.00  0.00    +0.430 N 
ATOM     22  C   UNL     1      36.029 -24.233 -13.473  0.00  0.00    -0.028 C 
ATOM     23  C   UNL     1      37.831 -23.945 -15.146  0.00  0.00    -0.028 C 
ATOM     24  C   UNL     1      36.753 -25.432 -12.872  0.00  0.00    -0.017 C 
ATOM     25  C   UNL     1      38.582 -25.139 -14.571  0.00  0.00    -0.017 C 
ATOM     26  C   UNL     1      38.259 -25.336 -13.094  0.00  0.00    -0.004 C 
ENDBRANCH  19  21
ENDBRANCH  18  19
ENDBRANCH   1  18
TORSDOF 9
ENDMDL
MODEL 5
REMARK VINA RESULT:      -9.1      1.517      2.360
REMARK  Name = 3256857
REMARK  9 active torsions:
REMARK  status: ('A' for Active; 'I' for Inactive)
REMARK    1  A    between atoms: C_1  and  C_18
REMARK    2  A    between atoms: C_6  and  N_8
REMARK    3  A    between atoms: C_9  and  C_11
REMARK    4  A    between atoms: C_11  and  C_12
REMARK    5  A    between atoms: C_12  and  C_13
REMARK    6  A    between atoms: C_13  and  C_15
REMARK    7  A    between atoms: C_15  and  O_16
REMARK    8  A    between atoms: C_18  and  C_19
REMARK    9  A    between atoms: C_19  and  N_21
REMARK                            x       y       z     vdW  Elec       q    Type
REMARK                         _______ _______ _______ _____ _____    ______ ____
ROOT
ATOM      1  C   UNL     1      34.236 -20.564 -20.344  0.00  0.00    -0.024 C 
ATOM      2  C   UNL     1      35.615 -20.553 -20.138  0.00  0.00    -0.003 C 
ATOM      3  C   UNL     1      33.412 -21.325 -19.515  0.00  0.00    -0.003 C 
ATOM      4  C   UNL     1      36.171 -21.305 -19.102  0.00  0.00    +0.014 C 
ATOM      5  C   UNL     1      33.968 -22.077 -18.481  0.00  0.00    +0.014 C 
ATOM      6  C   UNL     1      35.347 -22.067 -18.274  0.00  0.00    +0.050 C 
ENDROOT
BRANCH   6   8
ATOM      7  O   UNL     1      37.538 -21.387 -16.336  0.00  0.00    -0.275 OA
ATOM      8  N   UNL     1      35.903 -22.819 -17.238  0.00  0.00    -0.284 N 
ATOM      9  C   UNL     1      36.931 -22.452 -16.355  0.00  0.00    +0.226 C 
ATOM     10  H   UNL     1      35.527 -23.720 -17.110  0.00  0.00    +0.155 HD
BRANCH   9  11
ATOM     11  C   UNL     1      37.235 -23.573 -15.370  0.00  0.00    +0.086 C 
BRANCH  11  12
ATOM     12  C   UNL     1      36.051 -24.519 -15.173  0.00  0.00    +0.021 C 
BRANCH  12  13
ATOM     13  C   UNL     1      36.405 -25.734 -14.321  0.00  0.00    +0.110 C 
BRANCH  13  15
ATOM     14  O   UNL     1      38.423 -27.009 -14.682  0.00  0.00    -0.250 OA
ATOM     15  C   UNL     1      37.302 -26.695 -15.060  0.00  0.00    +0.314 C 
BRANCH  15  16
ATOM     16  O   UNL     1      36.747 -27.159 -16.207  0.00  0.00    -0.480 OA
ATOM     17  H   UNL     1      36.145 -27.876 -16.179  0.00  0.00    +0.295 HD
ENDBRANCH  15  16
ENDBRANCH  13  15
ENDBRANCH  12  13
ENDBRANCH  11  12
ENDBRANCH   9  11
ENDBRANCH   6   8
BRANCH   1  18
ATOM     18  C   UNL     1      33.636 -19.750 -21.464  0.00  0.00    +0.009 C 
BRANCH  18  19
ATOM     19  C   UNL     1      34.641 -19.402 -22.553  0.00  0.00    -0.023 C 
BRANCH  19  21
ATOM     20  O   UNL     1      36.393 -17.888 -22.296  0.00  0.00    -0.290 OA
ATOM     21  N   UNL     1      35.036 -17.952 -22.494  0.00  0.00    +0.430 N 
ATOM     22  C   UNL     1      34.305 -17.279 -21.351  0.00  0.00    -0.028 C 
ATOM     23  C   UNL     1      34.665 -17.278 -23.800  0.00  0.00    -0.028 C 
ATOM     24  C   UNL     1      34.589 -15.782 -21.290  0.00  0.00    -0.017 C 
ATOM     25  C   UNL     1      34.954 -15.783 -23.777  0.00  0.00    -0.017 C 
ATOM     26  C   UNL     1      34.246 -15.101 -22.611  0.00  0.00    -0.004 C 
ENDBRANCH  19  21
ENDBRANCH  18  19
ENDBRANCH   1  18
TORSDOF 9
ENDMDL
MODEL 6
REMARK VINA RESULT:      -9.0      7.677     11.618
REMARK  Name = 3256857
REMARK  9 active torsions:
REMARK  status: ('A' for Active; 'I' for Inactive)
REMARK    1  A    between atoms: C_1  and  C_18
REMARK    2  A    between atoms: C_6  and  N_8
REMARK    3  A    between atoms: C_9  and  C_11
REMARK    4  A    between atoms: C_11  and  C_12
REMARK    5  A    between atoms: C_12  and  C_13
REMARK    6  A    between atoms: C_13  and  C_15
REMARK    7  A    between atoms: C_15  and  O_16
REMARK    8  A    between atoms: C_18  and  C_19
REMARK    9  A    between atoms: C_19  and  N_21
REMARK                            x       y       z     vdW  Elec       q    Type
REMARK                         _______ _______ _______ _____ _____    ______ ____
ROOT
ATOM      1  C   UNL     1      32.349 -11.877 -22.508  0.00  0.00    -0.024 C 
ATOM      2  C   UNL     1      31.927 -12.663 -21.435  0.00  0.00    -0.003 C 
ATOM      3  C   UNL     1      33.247 -12.395 -23.441  0.00  0.00    -0.003 C 
ATOM      4  C   UNL     1      32.402 -13.967 -21.296  0.00  0.00    +0.014 C 
ATOM      5  C   UNL     1      33.723 -13.698 -23.302  0.00  0.00    +0.014 C 
ATOM      6  C   UNL     1      33.301 -14.484 -22.230  0.00  0.00    +0.050 C 
ENDROOT
BRANCH   6   8
ATOM      7  O   UNL     1      35.030 -15.708 -20.102  0.00  0.00    -0.275 OA
ATOM      8  N   UNL     1      33.777 -15.789 -22.091  0.00  0.00    -0.284 N 
ATOM      9  C   UNL     1      34.585 -16.314 -21.071  0.00  0.00    +0.226 C 
ATOM     10  H   UNL     1      33.511 -16.421 -22.798  0.00  0.00    +0.155 HD
BRANCH   9  11
ATOM     11  C   UNL     1      34.874 -17.791 -21.303  0.00  0.00    +0.086 C 
BRANCH  11  12
ATOM     12  C   UNL     1      35.804 -18.028 -22.492  0.00  0.00    +0.021 C 
BRANCH  12  13
ATOM     13  C   UNL     1      35.101 -18.709 -23.661  0.00  0.00    +0.110 C 
BRANCH  13  15
ATOM     14  O   UNL     1      33.897 -17.960 -25.614  0.00  0.00    -0.250 OA
ATOM     15  C   UNL     1      34.714 -17.723 -24.734  0.00  0.00    +0.314 C 
BRANCH  15  16
ATOM     16  O   UNL     1      35.387 -16.550 -24.641  0.00  0.00    -0.480 OA
ATOM     17  H   UNL     1      36.274 -16.494 -24.938  0.00  0.00    +0.295 HD
ENDBRANCH  15  16
ENDBRANCH  13  15
ENDBRANCH  12  13
ENDBRANCH  11  12
ENDBRANCH   9  11
ENDBRANCH   6   8
BRANCH   1  18
ATOM     18  C   UNL     1      31.834 -10.467 -22.657  0.00  0.00    +0.009 C 
BRANCH  18  19
ATOM     19  C   UNL     1      32.818  -9.544 -23.361  0.00  0.00    -0.023 C 
BRANCH  19  21
ATOM     20  O   UNL     1      34.173  -7.761 -22.721  0.00  0.00    -0.290 OA
ATOM     21  N   UNL     1      32.871  -8.191 -22.704  0.00  0.00    +0.430 N 
ATOM     22  C   UNL     1      32.372  -8.306 -21.278  0.00  0.00    -0.028 C 
ATOM     23  C   UNL     1      31.989  -7.226 -23.473  0.00  0.00    -0.028 C 
ATOM     24  C   UNL     1      32.311  -6.952 -20.581  0.00  0.00    -0.017 C 
ATOM     25  C   UNL     1      31.923  -5.857 -22.810  0.00  0.00    -0.017 C 
ATOM     26  C   UNL     1      31.451  -5.965 -21.364  0.00  0.00    -0.004 C 
ENDBRANCH  19  21
ENDBRANCH  18  19
ENDBRANCH   1  18
TORSDOF 9
ENDMDL
MODEL 7
REMARK VINA RESULT:      -9.0      6.101     10.167
REMARK  Name = 3256857
REMARK  9 active torsions:
REMARK  status: ('A' for Active; 'I' for Inactive)
REMARK    1  A    between atoms: C_1  and  C_18
REMARK    2  A    between atoms: C_6  and  N_8
REMARK    3  A    between atoms: C_9  and  C_11
REMARK    4  A    between atoms: C_11  and  C_12
REMARK    5  A    between atoms: C_12  and  C_13
REMARK    6  A    between atoms: C_13  and  C_15
REMARK    7  A    between atoms: C_15  and  O_16
REMARK    8  A    between atoms: C_18  and  C_19
REMARK    9  A    between atoms: C_19  and  N_21
REMARK                            x       y       z     vdW  Elec       q    Type
REMARK                         _______ _______ _______ _____ _____    ______ ____
ROOT
ATOM      1  C   UNL     1      31.965 -12.629 -21.467  0.00  0.00    -0.024 C 
ATOM      2  C   UNL     1      32.244 -13.497 -20.412  0.00  0.00    -0.003 C 
ATOM      3  C   UNL     1      32.333 -12.970 -22.768  0.00  0.00    -0.003 C 
ATOM      4  C   UNL     1      32.891 -14.709 -20.659  0.00  0.00    +0.014 C 
ATOM      5  C   UNL     1      32.980 -14.181 -23.015  0.00  0.00    +0.014 C 
ATOM      6  C   UNL     1      33.259 -15.050 -21.961  0.00  0.00    +0.050 C 
ENDROOT
BRANCH   6   8
ATOM      7  O   UNL     1      35.231 -16.578 -20.289  0.00  0.00    -0.275 OA
ATOM      8  N   UNL     1      33.906 -16.262 -22.207  0.00  0.00    -0.284 N 
ATOM      9  C   UNL     1      34.823 -16.939 -21.388  0.00  0.00    +0.226 C 
ATOM     10  H   UNL     1      33.691 -16.697 -23.065  0.00  0.00    +0.155 HD
BRANCH   9  11
ATOM     11  C   UNL     1      35.289 -18.235 -22.038  0.00  0.00    +0.086 C 
BRANCH  11  12
ATOM     12  C   UNL     1      35.301 -19.410 -21.061  0.00  0.00    +0.021 C 
BRANCH  12  13
ATOM     13  C   UNL     1      33.904 -19.955 -20.782  0.00  0.00    +0.110 C 
BRANCH  13  15
ATOM     14  O   UNL     1      34.973 -21.634 -19.415  0.00  0.00    -0.250 OA
ATOM     15  C   UNL     1      33.940 -21.129 -19.836  0.00  0.00    +0.314 C 
BRANCH  15  16
ATOM     16  O   UNL     1      32.705 -21.588 -19.517  0.00  0.00    -0.480 OA
ATOM     17  H   UNL     1      32.062 -21.002 -19.169  0.00  0.00    +0.295 HD
ENDBRANCH  15  16
ENDBRANCH  13  15
ENDBRANCH  12  13
ENDBRANCH  11  12
ENDBRANCH   9  11
ENDBRANCH   6   8
BRANCH   1  18
ATOM     18  C   UNL     1      31.266 -11.319 -21.199  0.00  0.00    +0.009 C 
BRANCH  18  19
ATOM     19  C   UNL     1      31.198 -10.418 -22.424  0.00  0.00    -0.023 C 
BRANCH  19  21
ATOM     20  O   UNL     1      33.243  -9.349 -22.744  0.00  0.00    -0.290 OA
ATOM     21  N   UNL     1      31.989  -9.154 -22.222  0.00  0.00    +0.430 N 
ATOM     22  C   UNL     1      32.077  -8.848 -20.741  0.00  0.00    -0.028 C 
ATOM     23  C   UNL     1      31.296  -8.009 -22.936  0.00  0.00    -0.028 C 
ATOM     24  C   UNL     1      32.787  -7.527 -20.469  0.00  0.00    -0.017 C 
ATOM     25  C   UNL     1      31.995  -6.677 -22.698  0.00  0.00    -0.017 C 
ATOM     26  C   UNL     1      32.115  -6.375 -21.208  0.00  0.00    -0.004 C 
ENDBRANCH  19  21
ENDBRANCH  18  19
ENDBRANCH   1  18
TORSDOF 9
ENDMDL
MODEL 8
REMARK VINA RESULT:      -8.9      5.989     10.152
REMARK  Name = 3256857
REMARK  9 active torsions:
REMARK  status: ('A' for Active; 'I' for Inactive)
REMARK    1  A    between atoms: C_1  and  C_18
REMARK    2  A    between atoms: C_6  and  N_8
REMARK    3  A    between atoms: C_9  and  C_11
REMARK    4  A    between atoms: C_11  and  C_12
REMARK    5  A    between atoms: C_12  and  C_13
REMARK    6  A    between atoms: C_13  and  C_15
REMARK    7  A    between atoms: C_15  and  O_16
REMARK    8  A    between atoms: C_18  and  C_19
REMARK    9  A    between atoms: C_19  and  N_21
REMARK                            x       y       z     vdW  Elec       q    Type
REMARK                         _______ _______ _______ _____ _____    ______ ____
ROOT
ATOM      1  C   UNL     1      32.044 -12.549 -21.567  0.00  0.00    -0.024 C 
ATOM      2  C   UNL     1      32.281 -13.441 -20.521  0.00  0.00    -0.003 C 
ATOM      3  C   UNL     1      32.421 -12.883 -22.868  0.00  0.00    -0.003 C 
ATOM      4  C   UNL     1      32.895 -14.668 -20.776  0.00  0.00    +0.014 C 
ATOM      5  C   UNL     1      33.036 -14.109 -23.123  0.00  0.00    +0.014 C 
ATOM      6  C   UNL     1      33.273 -15.001 -22.078  0.00  0.00    +0.050 C 
ENDROOT
BRANCH   6   8
ATOM      7  O   UNL     1      35.242 -16.568 -20.439  0.00  0.00    -0.275 OA
ATOM      8  N   UNL     1      33.887 -16.228 -22.333  0.00  0.00    -0.284 N 
ATOM      9  C   UNL     1      34.805 -16.923 -21.529  0.00  0.00    +0.226 C 
ATOM     10  H   UNL     1      33.646 -16.661 -23.184  0.00  0.00    +0.155 HD
BRANCH   9  11
ATOM     11  C   UNL     1      35.229 -18.231 -22.184  0.00  0.00    +0.086 C 
BRANCH  11  12
ATOM     12  C   UNL     1      35.163 -19.416 -21.222  0.00  0.00    +0.021 C 
BRANCH  12  13
ATOM     13  C   UNL     1      33.735 -19.765 -20.816  0.00  0.00    +0.110 C 
BRANCH  13  15
ATOM     14  O   UNL     1      34.654 -21.609 -19.558  0.00  0.00    -0.250 OA
ATOM     15  C   UNL     1      33.696 -20.892 -19.815  0.00  0.00    +0.314 C 
BRANCH  15  16
ATOM     16  O   UNL     1      32.476 -21.048 -19.244  0.00  0.00    -0.480 OA
ATOM     17  H   UNL     1      32.059 -20.323 -18.823  0.00  0.00    +0.295 HD
ENDBRANCH  15  16
ENDBRANCH  13  15
ENDBRANCH  12  13
ENDBRANCH  11  12
ENDBRANCH   9  11
ENDBRANCH   6   8
BRANCH   1  18
ATOM     18  C   UNL     1      31.380 -11.223 -21.290  0.00  0.00    +0.009 C 
BRANCH  18  19
ATOM     19  C   UNL     1      31.240 -10.355 -22.532  0.00  0.00    -0.023 C 
BRANCH  19  21
ATOM     20  O   UNL     1      32.475  -8.951 -21.143  0.00  0.00    -0.290 OA
ATOM     21  N   UNL     1      32.121  -9.138 -22.456  0.00  0.00    +0.430 N 
ATOM     22  C   UNL     1      31.360  -7.934 -22.972  0.00  0.00    -0.028 C 
ATOM     23  C   UNL     1      33.357  -9.359 -23.306  0.00  0.00    -0.028 C 
ATOM     24  C   UNL     1      32.226  -6.680 -23.010  0.00  0.00    -0.017 C 
ATOM     25  C   UNL     1      34.253  -8.128 -23.348  0.00  0.00    -0.017 C 
ATOM     26  C   UNL     1      33.486  -6.903 -23.838  0.00  0.00    -0.004 C 
ENDBRANCH  19  21
ENDBRANCH  18  19
ENDBRANCH   1  18
TORSDOF 9
ENDMDL
MODEL 9
REMARK VINA RESULT:      -8.9      1.847      2.916
REMARK  Name = 3256857
REMARK  9 active torsions:
REMARK  status: ('A' for Active; 'I' for Inactive)
REMARK    1  A    between atoms: C_1  and  C_18
REMARK    2  A    between atoms: C_6  and  N_8
REMARK    3  A    between atoms: C_9  and  C_11
REMARK    4  A    between atoms: C_11  and  C_12
REMARK    5  A    between atoms: C_12  and  C_13
REMARK    6  A    between atoms: C_13  and  C_15
REMARK    7  A    between atoms: C_15  and  O_16
REMARK    8  A    between atoms: C_18  and  C_19
REMARK    9  A    between atoms: C_19  and  N_21
REMARK                            x       y       z     vdW  Elec       q    Type
REMARK                         _______ _______ _______ _____ _____    ______ ____
ROOT
ATOM      1  C   UNL     1      34.437 -20.251 -20.652  0.00  0.00    -0.024 C 
ATOM      2  C   UNL     1      35.692 -20.583 -20.141  0.00  0.00    -0.003 C 
ATOM      3  C   UNL     1      33.285 -20.784 -20.074  0.00  0.00    -0.003 C 
ATOM      4  C   UNL     1      35.795 -21.448 -19.050  0.00  0.00    +0.014 C 
ATOM      5  C   UNL     1      33.388 -21.649 -18.985  0.00  0.00    +0.014 C 
ATOM      6  C   UNL     1      34.642 -21.981 -18.473  0.00  0.00    +0.050 C 
ENDROOT
BRANCH   6   8
ATOM      7  O   UNL     1      32.516 -23.113 -16.680  0.00  0.00    -0.275 OA
ATOM      8  N   UNL     1      34.745 -22.846 -17.383  0.00  0.00    -0.284 N 
ATOM      9  C   UNL     1      33.714 -23.349 -16.574  0.00  0.00    +0.226 C 
ATOM     10  H   UNL     1      35.657 -23.140 -17.152  0.00  0.00    +0.155 HD
BRANCH   9  11
ATOM     11  C   UNL     1      34.264 -24.266 -15.489  0.00  0.00    +0.086 C 
BRANCH  11  12
ATOM     12  C   UNL     1      35.791 -24.249 -15.425  0.00  0.00    +0.021 C 
BRANCH  12  13
ATOM     13  C   UNL     1      36.356 -25.369 -14.558  0.00  0.00    +0.110 C 
BRANCH  13  15
ATOM     14  O   UNL     1      36.642 -27.262 -16.028  0.00  0.00    -0.250 OA
ATOM     15  C   UNL     1      37.147 -26.362 -15.370  0.00  0.00    +0.314 C 
BRANCH  15  16
ATOM     16  O   UNL     1      38.487 -26.173 -15.276  0.00  0.00    -0.480 OA
ATOM     17  H   UNL     1      38.845 -25.312 -15.358  0.00  0.00    +0.295 HD
ENDBRANCH  15  16
ENDBRANCH  13  15
ENDBRANCH  12  13
ENDBRANCH  11  12
ENDBRANCH   9  11
ENDBRANCH   6   8
BRANCH   1  18
ATOM     18  C   UNL     1      34.328 -19.316 -21.831  0.00  0.00    +0.009 C 
BRANCH  18  19
ATOM     19  C   UNL     1      35.360 -18.198 -21.802  0.00  0.00    -0.023 C 
BRANCH  19  21
ATOM     20  O   UNL     1      35.326 -16.452 -20.260  0.00  0.00    -0.290 OA
ATOM     21  N   UNL     1      34.736 -16.882 -21.422  0.00  0.00    +0.430 N 
ATOM     22  C   UNL     1      33.247 -17.073 -21.218  0.00  0.00    -0.028 C 
ATOM     23  C   UNL     1      34.971 -15.877 -22.533  0.00  0.00    -0.028 C 
ATOM     24  C   UNL     1      32.536 -15.759 -20.920  0.00  0.00    -0.017 C 
ATOM     25  C   UNL     1      34.286 -14.545 -22.255  0.00  0.00    -0.017 C 
ATOM     26  C   UNL     1      32.791 -14.731 -22.018  0.00  0.00    -0.004 C 
ENDBRANCH  19  21
ENDBRANCH  18  19
ENDBRANCH   1  18
TORSDOF 9
ENDMDL
