MODEL 1
REMARK VINA RESULT:      -8.3      0.000      0.000
REMARK  Name = 6011
REMARK  1 active torsions:
REMARK  status: ('A' for Active; 'I' for Inactive)
REMARK    1  A    between atoms: C_12  and  O_22
REMARK                            x       y       z     vdW  Elec       q    Type
REMARK                         _______ _______ _______ _____ _____    ______ ____
ROOT
ATOM      1  O   UNL     1      39.704 -24.860 -15.250  0.00  0.00    -0.296 OA
ATOM      2  C   UNL     1      34.237 -24.367 -14.785  0.00  0.00    +0.000 C 
ATOM      3  C   UNL     1      33.506 -23.255 -15.607  0.00  0.00    +0.000 C 
ATOM      4  C   UNL     1      32.100 -23.752 -15.958  0.00  0.00    +0.002 C 
ATOM      5  C   UNL     1      35.715 -23.957 -14.423  0.00  0.00    +0.001 C 
ATOM      6  C   UNL     1      31.253 -24.072 -14.711  0.00  0.00    +0.025 C 
ATOM      7  C   UNL     1      36.448 -23.615 -15.760  0.00  0.00    +0.007 C 
ATOM      8  C   UNL     1      33.391 -24.850 -13.577  0.00  0.00    +0.000 C 
ATOM      9  C   UNL     1      31.941 -25.212 -13.948  0.00  0.00    +0.002 C 
ATOM     10  C   UNL     1      34.300 -22.882 -16.866  0.00  0.00    +0.000 C 
ATOM     11  C   UNL     1      31.183 -22.861 -16.793  0.00  0.00    +0.003 C 
ATOM     12  C   UNL     1      29.931 -24.463 -15.400  0.00  0.00    +0.110 C 
ATOM     13  C   UNL     1      35.744 -22.505 -16.550  0.00  0.00    +0.000 C 
ATOM     14  C   UNL     1      36.468 -25.159 -13.778  0.00  0.00    +0.007 C 
ATOM     15  C   UNL     1      29.774 -23.422 -16.525  0.00  0.00    +0.029 C 
ATOM     16  C   UNL     1      37.931 -23.292 -15.567  0.00  0.00    +0.064 C 
ATOM     17  C   UNL     1      35.729 -22.769 -13.430  0.00  0.00    +0.000 C 
ATOM     18  C   UNL     1      31.027 -22.872 -13.756  0.00  0.00    +0.002 C 
ATOM     19  C   UNL     1      37.971 -24.919 -13.563  0.00  0.00    +0.058 C 
ATOM     20  C   UNL     1      38.622 -24.430 -14.851  0.00  0.00    +0.150 C 
ATOM     21  C   UNL     1      38.641 -26.191 -13.048  0.00  0.00    +0.008 C 
ENDROOT
BRANCH  12  22
ATOM     22  O   UNL     1      28.825 -24.456 -14.520  0.00  0.00    -0.384 OA
ATOM     23  H   UNL     1      29.139 -24.523 -13.605  0.00  0.00    +0.210 HD
ENDBRANCH  12  22
TORSDOF 1
ENDMDL
MODEL 2
REMARK VINA RESULT:      -8.0      2.740      5.034
REMARK  Name = 6011
REMARK  1 active torsions:
REMARK  status: ('A' for Active; 'I' for Inactive)
REMARK    1  A    between atoms: C_12  and  O_22
REMARK                            x       y       z     vdW  Elec       q    Type
REMARK                         _______ _______ _______ _____ _____    ______ ____
ROOT
ATOM      1  O   UNL     1      36.459 -19.681 -20.174  0.00  0.00    -0.296 OA
ATOM      2  C   UNL     1      32.816 -22.512 -17.165  0.00  0.00    +0.000 C 
ATOM      3  C   UNL     1      33.342 -23.558 -16.128  0.00  0.00    +0.000 C 
ATOM      4  C   UNL     1      32.361 -23.617 -14.952  0.00  0.00    +0.002 C 
ATOM      5  C   UNL     1      33.795 -22.351 -18.388  0.00  0.00    +0.001 C 
ATOM      6  C   UNL     1      30.941 -24.031 -15.383  0.00  0.00    +0.025 C 
ATOM      7  C   UNL     1      35.202 -21.978 -17.818  0.00  0.00    +0.007 C 
ATOM      8  C   UNL     1      31.337 -22.774 -17.557  0.00  0.00    +0.000 C 
ATOM      9  C   UNL     1      30.405 -22.963 -16.345  0.00  0.00    +0.002 C 
ATOM     10  C   UNL     1      34.760 -23.209 -15.658  0.00  0.00    +0.000 C 
ATOM     11  C   UNL     1      32.662 -24.545 -13.778  0.00  0.00    +0.003 C 
ATOM     12  C   UNL     1      30.258 -24.054 -14.002  0.00  0.00    +0.110 C 
ATOM     13  C   UNL     1      35.727 -23.020 -16.824  0.00  0.00    +0.000 C 
ATOM     14  C   UNL     1      33.338 -21.169 -19.296  0.00  0.00    +0.007 C 
ATOM     15  C   UNL     1      31.300 -24.717 -13.081  0.00  0.00    +0.029 C 
ATOM     16  C   UNL     1      36.237 -21.694 -18.908  0.00  0.00    +0.064 C 
ATOM     17  C   UNL     1      33.834 -23.646 -19.237  0.00  0.00    +0.000 C 
ATOM     18  C   UNL     1      30.847 -25.425 -16.053  0.00  0.00    +0.002 C 
ATOM     19  C   UNL     1      34.333 -20.810 -20.412  0.00  0.00    +0.058 C 
ATOM     20  C   UNL     1      35.730 -20.613 -19.837  0.00  0.00    +0.150 C 
ATOM     21  C   UNL     1      33.859 -19.567 -21.162  0.00  0.00    +0.008 C 
ENDROOT
BRANCH  12  22
ATOM     22  O   UNL     1      29.033 -24.761 -14.002  0.00  0.00    -0.384 OA
ATOM     23  H   UNL     1      28.775 -24.962 -13.089  0.00  0.00    +0.210 HD
ENDBRANCH  12  22
TORSDOF 1
ENDMDL
MODEL 3
REMARK VINA RESULT:      -7.9      3.464      6.085
REMARK  Name = 6011
REMARK  1 active torsions:
REMARK  status: ('A' for Active; 'I' for Inactive)
REMARK    1  A    between atoms: C_12  and  O_22
REMARK                            x       y       z     vdW  Elec       q    Type
REMARK                         _______ _______ _______ _____ _____    ______ ____
ROOT
ATOM      1  O   UNL     1      34.801 -18.981 -21.510  0.00  0.00    -0.296 OA
ATOM      2  C   UNL     1      34.520 -22.259 -17.092  0.00  0.00    +0.000 C 
ATOM      3  C   UNL     1      35.834 -22.907 -16.547  0.00  0.00    +0.000 C 
ATOM      4  C   UNL     1      35.706 -23.070 -15.028  0.00  0.00    +0.002 C 
ATOM      5  C   UNL     1      34.587 -22.008 -18.646  0.00  0.00    +0.001 C 
ATOM      6  C   UNL     1      34.518 -23.965 -14.625  0.00  0.00    +0.025 C 
ATOM      7  C   UNL     1      35.851 -21.133 -18.926  0.00  0.00    +0.007 C 
ATOM      8  C   UNL     1      33.254 -23.023 -16.619  0.00  0.00    +0.000 C 
ATOM      9  C   UNL     1      33.227 -23.287 -15.102  0.00  0.00    +0.002 C 
ATOM     10  C   UNL     1      37.063 -22.067 -16.918  0.00  0.00    +0.000 C 
ATOM     11  C   UNL     1      36.876 -23.655 -14.241  0.00  0.00    +0.003 C 
ATOM     12  C   UNL     1      34.717 -23.970 -13.097  0.00  0.00    +0.110 C 
ATOM     13  C   UNL     1      37.142 -21.785 -18.416  0.00  0.00    +0.000 C 
ATOM     14  C   UNL     1      33.346 -21.190 -19.116  0.00  0.00    +0.007 C 
ATOM     15  C   UNL     1      36.240 -24.120 -12.918  0.00  0.00    +0.029 C 
ATOM     16  C   UNL     1      35.988 -20.728 -20.395  0.00  0.00    +0.064 C 
ATOM     17  C   UNL     1      34.622 -23.350 -19.419  0.00  0.00    +0.000 C 
ATOM     18  C   UNL     1      34.579 -25.411 -15.180  0.00  0.00    +0.002 C 
ATOM     19  C   UNL     1      33.413 -20.732 -20.582  0.00  0.00    +0.058 C 
ATOM     20  C   UNL     1      34.733 -20.024 -20.859  0.00  0.00    +0.150 C 
ATOM     21  C   UNL     1      32.220 -19.836 -20.910  0.00  0.00    +0.008 C 
ENDROOT
BRANCH  12  22
ATOM     22  O   UNL     1      34.008 -25.008 -12.450  0.00  0.00    -0.384 OA
ATOM     23  H   UNL     1      33.100 -25.040 -12.788  0.00  0.00    +0.210 HD
ENDBRANCH  12  22
TORSDOF 1
ENDMDL
MODEL 4
REMARK VINA RESULT:      -7.8     13.799     15.736
REMARK  Name = 6011
REMARK  1 active torsions:
REMARK  status: ('A' for Active; 'I' for Inactive)
REMARK    1  A    between atoms: C_12  and  O_22
REMARK                            x       y       z     vdW  Elec       q    Type
REMARK                         _______ _______ _______ _____ _____    ______ ____
ROOT
ATOM      1  O   UNL     1      33.946 -16.273 -21.073  0.00  0.00    -0.296 OA
ATOM      2  C   UNL     1      33.101 -11.047 -22.597  0.00  0.00    +0.000 C 
ATOM      3  C   UNL     1      32.076 -10.183 -21.794  0.00  0.00    +0.000 C 
ATOM      4  C   UNL     1      32.541  -8.722 -21.822  0.00  0.00    +0.002 C 
ATOM      5  C   UNL     1      32.724 -12.577 -22.577  0.00  0.00    +0.001 C 
ATOM      6  C   UNL     1      32.639  -8.157 -23.252  0.00  0.00    +0.025 C 
ATOM      7  C   UNL     1      32.611 -13.013 -21.081  0.00  0.00    +0.007 C 
ATOM      8  C   UNL     1      33.365 -10.470 -24.014  0.00  0.00    +0.000 C 
ATOM      9  C   UNL     1      33.697  -8.967 -24.013  0.00  0.00    +0.002 C 
ATOM     10  C   UNL     1      31.924 -10.694 -20.355  0.00  0.00    +0.000 C 
ATOM     11  C   UNL     1      31.726  -7.667 -21.077  0.00  0.00    +0.003 C 
ATOM     12  C   UNL     1      33.051  -6.709 -22.921  0.00  0.00    +0.110 C 
ATOM     13  C   UNL     1      31.585 -12.181 -20.302  0.00  0.00    +0.000 C 
ATOM     14  C   UNL     1      33.864 -13.424 -23.219  0.00  0.00    +0.007 C 
ATOM     15  C   UNL     1      32.169  -6.337 -21.713  0.00  0.00    +0.029 C 
ATOM     16  C   UNL     1      32.344 -14.509 -20.909  0.00  0.00    +0.064 C 
ATOM     17  C   UNL     1      31.412 -12.832 -23.360  0.00  0.00    +0.000 C 
ATOM     18  C   UNL     1      31.308  -8.169 -24.046  0.00  0.00    +0.002 C 
ATOM     19  C   UNL     1      33.677 -14.943 -23.077  0.00  0.00    +0.058 C 
ATOM     20  C   UNL     1      33.407 -15.313 -21.623  0.00  0.00    +0.150 C 
ATOM     21  C   UNL     1      34.900 -15.680 -23.621  0.00  0.00    +0.008 C 
ENDROOT
BRANCH  12  22
ATOM     22  O   UNL     1      32.862  -5.819 -24.003  0.00  0.00    -0.384 OA
ATOM     23  H   UNL     1      32.255  -5.111 -23.737  0.00  0.00    +0.210 HD
ENDBRANCH  12  22
TORSDOF 1
ENDMDL
MODEL 5
REMARK VINA RESULT:      -7.7     14.685     16.614
REMARK  Name = 6011
REMARK  1 active torsions:
REMARK  status: ('A' for Active; 'I' for Inactive)
REMARK    1  A    between atoms: C_12  and  O_22
REMARK                            x       y       z     vdW  Elec       q    Type
REMARK                         _______ _______ _______ _____ _____    ______ ____
ROOT
ATOM      1  O   UNL     1      33.373 -15.021 -20.407  0.00  0.00    -0.296 OA
ATOM      2  C   UNL     1      32.423  -9.939 -22.309  0.00  0.00    +0.000 C 
ATOM      3  C   UNL     1      31.745  -8.893 -21.365  0.00  0.00    +0.000 C 
ATOM      4  C   UNL     1      32.266  -7.498 -21.726  0.00  0.00    +0.002 C 
ATOM      5  C   UNL     1      31.978 -11.412 -21.972  0.00  0.00    +0.001 C 
ATOM      6  C   UNL     1      31.959  -7.107 -23.184  0.00  0.00    +0.025 C 
ATOM      7  C   UNL     1      32.299 -11.666 -20.464  0.00  0.00    +0.007 C 
ATOM      8  C   UNL     1      32.278  -9.551 -23.806  0.00  0.00    +0.000 C 
ATOM      9  C   UNL     1      32.685  -8.097 -24.105  0.00  0.00    +0.002 C 
ATOM     10  C   UNL     1      32.007  -9.224 -19.890  0.00  0.00    +0.000 C 
ATOM     11  C   UNL     1      31.783  -6.292 -20.925  0.00  0.00    +0.003 C 
ATOM     12  C   UNL     1      32.539  -5.680 -23.188  0.00  0.00    +0.110 C 
ATOM     13  C   UNL     1      31.610 -10.656 -19.538  0.00  0.00    +0.000 C 
ATOM     14  C   UNL     1      32.815 -12.433 -22.800  0.00  0.00    +0.007 C 
ATOM     15  C   UNL     1      32.090  -5.091 -21.837  0.00  0.00    +0.029 C 
ATOM     16  C   UNL     1      32.007 -13.100 -20.020  0.00  0.00    +0.064 C 
ATOM     17  C   UNL     1      30.477 -11.622 -22.292  0.00  0.00    +0.000 C 
ATOM     18  C   UNL     1      30.452  -7.077 -23.543  0.00  0.00    +0.002 C 
ATOM     19  C   UNL     1      32.589 -13.901 -22.404  0.00  0.00    +0.058 C 
ATOM     20  C   UNL     1      32.752 -14.079 -20.899  0.00  0.00    +0.150 C 
ATOM     21  C   UNL     1      33.541 -14.811 -23.178  0.00  0.00    +0.008 C 
ENDROOT
BRANCH  12  22
ATOM     22  O   UNL     1      32.084  -4.901 -24.278  0.00  0.00    -0.384 OA
ATOM     23  H   UNL     1      31.559  -4.156 -23.946  0.00  0.00    +0.210 HD
ENDBRANCH  12  22
TORSDOF 1
ENDMDL
MODEL 6
REMARK VINA RESULT:      -7.6     10.800     13.160
REMARK  Name = 6011
REMARK  1 active torsions:
REMARK  status: ('A' for Active; 'I' for Inactive)
REMARK    1  A    between atoms: C_12  and  O_22
REMARK                            x       y       z     vdW  Elec       q    Type
REMARK                         _______ _______ _______ _____ _____    ______ ____
ROOT
ATOM      1  O   UNL     1      34.140 -10.925 -26.432  0.00  0.00    -0.296 OA
ATOM      2  C   UNL     1      34.476 -15.380 -23.208  0.00  0.00    +0.000 C 
ATOM      3  C   UNL     1      34.117 -16.777 -23.811  0.00  0.00    +0.000 C 
ATOM      4  C   UNL     1      34.970 -17.843 -23.114  0.00  0.00    +0.002 C 
ATOM      5  C   UNL     1      33.676 -14.215 -23.906  0.00  0.00    +0.001 C 
ATOM      6  C   UNL     1      34.732 -17.894 -21.593  0.00  0.00    +0.025 C 
ATOM      7  C   UNL     1      33.964 -14.301 -25.440  0.00  0.00    +0.007 C 
ATOM      8  C   UNL     1      34.393 -15.376 -21.658  0.00  0.00    +0.000 C 
ATOM      9  C   UNL     1      35.152 -16.543 -21.000  0.00  0.00    +0.002 C 
ATOM     10  C   UNL     1      34.327 -16.797 -25.331  0.00  0.00    +0.000 C 
ATOM     11  C   UNL     1      34.836 -19.302 -23.545  0.00  0.00    +0.003 C 
ATOM     12  C   UNL     1      35.660 -19.071 -21.234  0.00  0.00    +0.110 C 
ATOM     13  C   UNL     1      33.585 -15.663 -26.033  0.00  0.00    +0.000 C 
ATOM     14  C   UNL     1      34.199 -12.831 -23.416  0.00  0.00    +0.007 C 
ATOM     15  C   UNL     1      35.416 -20.095 -22.360  0.00  0.00    +0.029 C 
ATOM     16  C   UNL     1      33.325 -13.162 -26.236  0.00  0.00    +0.064 C 
ATOM     17  C   UNL     1      32.163 -14.318 -23.589  0.00  0.00    +0.000 C 
ATOM     18  C   UNL     1      33.274 -18.211 -21.175  0.00  0.00    +0.002 C 
ATOM     19  C   UNL     1      33.613 -11.631 -24.178  0.00  0.00    +0.058 C 
ATOM     20  C   UNL     1      33.768 -11.827 -25.681  0.00  0.00    +0.150 C 
ATOM     21  C   UNL     1      34.277 -10.335 -23.714  0.00  0.00    +0.008 C 
ENDROOT
BRANCH  12  22
ATOM     22  O   UNL     1      35.390 -19.619 -19.958  0.00  0.00    -0.384 OA
ATOM     23  H   UNL     1      34.614 -20.198 -20.013  0.00  0.00    +0.210 HD
ENDBRANCH  12  22
TORSDOF 1
ENDMDL
MODEL 7
REMARK VINA RESULT:      -7.5     15.232     17.440
REMARK  Name = 6011
REMARK  1 active torsions:
REMARK  status: ('A' for Active; 'I' for Inactive)
REMARK    1  A    between atoms: C_12  and  O_22
REMARK                            x       y       z     vdW  Elec       q    Type
REMARK                         _______ _______ _______ _____ _____    ______ ____
ROOT
ATOM      1  O   UNL     1      30.782  -4.385 -22.600  0.00  0.00    -0.296 OA
ATOM      2  C   UNL     1      32.330  -9.639 -23.192  0.00  0.00    +0.000 C 
ATOM      3  C   UNL     1      32.514 -10.520 -21.914  0.00  0.00    +0.000 C 
ATOM      4  C   UNL     1      32.163 -11.970 -22.265  0.00  0.00    +0.002 C 
ATOM      5  C   UNL     1      32.624  -8.117 -22.905  0.00  0.00    +0.001 C 
ATOM      6  C   UNL     1      33.053 -12.543 -23.384  0.00  0.00    +0.025 C 
ATOM      7  C   UNL     1      31.696  -7.674 -21.728  0.00  0.00    +0.007 C 
ATOM      8  C   UNL     1      33.090 -10.220 -24.415  0.00  0.00    +0.000 C 
ATOM      9  C   UNL     1      32.815 -11.716 -24.654  0.00  0.00    +0.002 C 
ATOM     10  C   UNL     1      31.656 -10.002 -20.752  0.00  0.00    +0.000 C 
ATOM     11  C   UNL     1      32.229 -13.037 -21.175  0.00  0.00    +0.003 C 
ATOM     12  C   UNL     1      32.496 -13.979 -23.436  0.00  0.00    +0.110 C 
ATOM     13  C   UNL     1      31.899  -8.522 -20.468  0.00  0.00    +0.000 C 
ATOM     14  C   UNL     1      32.245  -7.250 -24.143  0.00  0.00    +0.007 C 
ATOM     15  C   UNL     1      32.311 -14.362 -21.955  0.00  0.00    +0.029 C 
ATOM     16  C   UNL     1      31.806  -6.182 -21.406  0.00  0.00    +0.064 C 
ATOM     17  C   UNL     1      34.123  -7.897 -22.582  0.00  0.00    +0.000 C 
ATOM     18  C   UNL     1      34.569 -12.566 -23.059  0.00  0.00    +0.002 C 
ATOM     19  C   UNL     1      32.316  -5.734 -23.897  0.00  0.00    +0.058 C 
ATOM     20  C   UNL     1      31.531  -5.361 -22.645  0.00  0.00    +0.150 C 
ATOM     21  C   UNL     1      31.808  -4.975 -25.121  0.00  0.00    +0.008 C 
ENDROOT
BRANCH  12  22
ATOM     22  O   UNL     1      33.353 -14.881 -24.109  0.00  0.00    -0.384 OA
ATOM     23  H   UNL     1      32.873 -15.297 -24.842  0.00  0.00    +0.210 HD
ENDBRANCH  12  22
TORSDOF 1
ENDMDL
MODEL 8
REMARK VINA RESULT:      -7.0      1.452      2.840
REMARK  Name = 6011
REMARK  1 active torsions:
REMARK  status: ('A' for Active; 'I' for Inactive)
REMARK    1  A    between atoms: C_12  and  O_22
REMARK                            x       y       z     vdW  Elec       q    Type
REMARK                         _______ _______ _______ _____ _____    ______ ____
ROOT
ATOM      1  O   UNL     1      39.557 -24.316 -12.867  0.00  0.00    -0.296 OA
ATOM      2  C   UNL     1      34.508 -23.730 -14.990  0.00  0.00    +0.000 C 
ATOM      3  C   UNL     1      33.269 -24.044 -14.090  0.00  0.00    +0.000 C 
ATOM      4  C   UNL     1      32.112 -23.134 -14.516  0.00  0.00    +0.002 C 
ATOM      5  C   UNL     1      35.764 -24.590 -14.585  0.00  0.00    +0.001 C 
ATOM      6  C   UNL     1      31.707 -23.337 -15.989  0.00  0.00    +0.025 C 
ATOM      7  C   UNL     1      36.040 -24.332 -13.068  0.00  0.00    +0.007 C 
ATOM      8  C   UNL     1      34.157 -23.779 -16.502  0.00  0.00    +0.000 C 
ATOM      9  C   UNL     1      32.907 -22.959 -16.869  0.00  0.00    +0.002 C 
ATOM     10  C   UNL     1      33.603 -23.866 -12.603  0.00  0.00    +0.000 C 
ATOM     11  C   UNL     1      30.784 -23.218 -13.768  0.00  0.00    +0.003 C 
ATOM     12  C   UNL     1      30.522 -22.355 -16.061  0.00  0.00    +0.110 C 
ATOM     13  C   UNL     1      34.832 -24.668 -12.186  0.00  0.00    +0.000 C 
ATOM     14  C   UNL     1      37.023 -24.115 -15.370  0.00  0.00    +0.007 C 
ATOM     15  C   UNL     1      29.770 -22.580 -14.735  0.00  0.00    +0.029 C 
ATOM     16  C   UNL     1      37.300 -25.034 -12.559  0.00  0.00    +0.064 C 
ATOM     17  C   UNL     1      35.525 -26.091 -14.887  0.00  0.00    +0.000 C 
ATOM     18  C   UNL     1      31.239 -24.772 -16.341  0.00  0.00    +0.002 C 
ATOM     19  C   UNL     1      38.337 -24.765 -14.907  0.00  0.00    +0.058 C 
ATOM     20  C   UNL     1      38.493 -24.635 -13.397  0.00  0.00    +0.150 C 
ATOM     21  C   UNL     1      39.522 -24.144 -15.645  0.00  0.00    +0.008 C 
ENDROOT
BRANCH  12  22
ATOM     22  O   UNL     1      29.688 -22.574 -17.181  0.00  0.00    -0.384 OA
ATOM     23  H   UNL     1      28.760 -22.562 -16.901  0.00  0.00    +0.210 HD
ENDBRANCH  12  22
TORSDOF 1
ENDMDL
MODEL 9
REMARK VINA RESULT:      -7.0      3.004      4.949
REMARK  Name = 6011
REMARK  1 active torsions:
REMARK  status: ('A' for Active; 'I' for Inactive)
REMARK    1  A    between atoms: C_12  and  O_22
REMARK                            x       y       z     vdW  Elec       q    Type
REMARK                         _______ _______ _______ _____ _____    ______ ____
ROOT
ATOM      1  O   UNL     1      35.297 -24.213 -11.005  0.00  0.00    -0.296 OA
ATOM      2  C   UNL     1      35.368 -22.595 -16.270  0.00  0.00    +0.000 C 
ATOM      3  C   UNL     1      34.106 -22.853 -17.157  0.00  0.00    +0.000 C 
ATOM      4  C   UNL     1      34.002 -21.732 -18.196  0.00  0.00    +0.002 C 
ATOM      5  C   UNL     1      35.524 -23.679 -15.137  0.00  0.00    +0.001 C 
ATOM      6  C   UNL     1      35.236 -21.657 -19.116  0.00  0.00    +0.025 C 
ATOM      7  C   UNL     1      34.198 -23.688 -14.310  0.00  0.00    +0.007 C 
ATOM      8  C   UNL     1      36.645 -22.372 -17.125  0.00  0.00    +0.000 C 
ATOM      9  C   UNL     1      36.459 -21.334 -18.247  0.00  0.00    +0.002 C 
ATOM     10  C   UNL     1      32.836 -22.944 -16.302  0.00  0.00    +0.000 C 
ATOM     11  C   UNL     1      32.829 -21.729 -19.174  0.00  0.00    +0.003 C 
ATOM     12  C   UNL     1      34.786 -20.513 -20.045  0.00  0.00    +0.110 C 
ATOM     13  C   UNL     1      32.965 -23.969 -15.178  0.00  0.00    +0.000 C 
ATOM     14  C   UNL     1      36.673 -23.282 -14.162  0.00  0.00    +0.007 C 
ATOM     15  C   UNL     1      33.301 -20.817 -20.320  0.00  0.00    +0.029 C 
ATOM     16  C   UNL     1      34.245 -24.632 -13.108  0.00  0.00    +0.064 C 
ATOM     17  C   UNL     1      35.842 -25.069 -15.744  0.00  0.00    +0.000 C 
ATOM     18  C   UNL     1      35.510 -22.942 -19.938  0.00  0.00    +0.002 C 
ATOM     19  C   UNL     1      36.779 -24.177 -12.917  0.00  0.00    +0.058 C 
ATOM     20  C   UNL     1      35.426 -24.293 -12.226  0.00  0.00    +0.150 C 
ATOM     21  C   UNL     1      37.845 -23.635 -11.966  0.00  0.00    +0.008 C 
ENDROOT
BRANCH  12  22
ATOM     22  O   UNL     1      35.538 -20.443 -21.241  0.00  0.00    -0.384 OA
ATOM     23  H   UNL     1      36.167 -19.707 -21.185  0.00  0.00    +0.210 HD
ENDBRANCH  12  22
TORSDOF 1
ENDMDL
