MODEL 1
REMARK VINA RESULT:      -8.4      0.000      0.000
REMARK  Name = 46937062
REMARK  13 active torsions:
REMARK  status: ('A' for Active; 'I' for Inactive)
REMARK    1  A    between atoms: CA_1  and  N_3
REMARK    2  A    between atoms: CA_1  and  C_16
REMARK    3  A    between atoms: CA_1  and  CB_27
REMARK    4  A    between atoms: C_4  and  C_7
REMARK    5  A    between atoms: C_8  and  C_10
REMARK    6  A    between atoms: C_10  and  O_11
REMARK    7  A    between atoms: O_11  and  C_12
REMARK    8  A    between atoms: N_15  and  CA_18
REMARK    9  A    between atoms: CA_18  and  C_20
REMARK   10  A    between atoms: CA_18  and  CB_23
REMARK   11  A    between atoms: C_20  and  O_21
REMARK   12  A    between atoms: CB_23  and  CG1_25
REMARK   13  A    between atoms: CB_27  and  CG1_29
REMARK                            x       y       z     vdW  Elec       q    Type
REMARK                         _______ _______ _______ _____ _____    ______ ____
ROOT
ATOM      1  CA  UNL     1      34.744 -23.631 -16.570  0.00  0.00    +0.149 C 
ENDROOT
BRANCH   1   3
ATOM      2  O   UNL     1      32.413 -22.959 -18.174  0.00  0.00    -0.272 OA
ATOM      3  N   UNL     1      33.412 -23.338 -16.104  0.00  0.00    -0.296 N 
ATOM      4  C   ACE A   0      32.363 -23.027 -16.951  0.00  0.00    +0.253 C 
ATOM      5  H   UNL     1      33.240 -23.361 -15.135  0.00  0.00    +0.150 HD
BRANCH   4   7
ATOM      6  O   UNL     1      30.015 -22.378 -17.143  0.00  0.00    -0.333 OA
ATOM      7  C   UNL     1      31.071 -22.761 -16.252  0.00  0.00    +0.229 C 
ATOM      8  C   UNL     1      29.888 -23.653 -16.500  0.00  0.00    +0.250 C 
BRANCH   8  10
ATOM      9  O   UNL     1      27.895 -22.872 -15.529  0.00  0.00    -0.247 OA
ATOM     10  C   UNL     1      28.792 -23.704 -15.527  0.00  0.00    +0.347 C 
BRANCH  10  11
ATOM     11  O   UNL     1      28.927 -24.759 -14.679  0.00  0.00    -0.447 OA
BRANCH  11  12
ATOM     12  C   UNL     1      30.196 -25.420 -14.719  0.00  0.00    +0.209 C 
ATOM     13  C   UNL     1      31.003 -25.013 -13.505  0.00  0.00    +0.051 C 
ENDBRANCH  11  12
ENDBRANCH  10  11
ENDBRANCH   8  10
ENDBRANCH   4   7
ENDBRANCH   1   3
BRANCH   1  16
ATOM     14  O   UNL     1      35.951 -25.589 -15.800  0.00  0.00    -0.273 OA
ATOM     15  N   UNL     1      35.421 -23.931 -14.265  0.00  0.00    -0.295 N 
ATOM     16  C   UNL     1      35.432 -24.510 -15.525  0.00  0.00    +0.241 C 
ATOM     17  H   UNL     1      34.975 -23.061 -14.154  0.00  0.00    +0.150 HD
BRANCH  15  18
ATOM     18  CA  UNL     1      36.034 -24.542 -13.107  0.00  0.00    +0.171 C 
BRANCH  18  20
ATOM     19  OXT UNL     1      35.313 -25.062 -10.855  0.00  0.00    -0.248 OA
ATOM     20  C   UNL     1      35.166 -24.384 -11.866  0.00  0.00    +0.332 C 
BRANCH  20  21
ATOM     21  O   UNL     1      34.203 -23.437 -11.967  0.00  0.00    -0.479 OA
ATOM     22  H   UNL     1      33.541 -23.370 -11.307  0.00  0.00    +0.295 HD
ENDBRANCH  20  21
ENDBRANCH  18  20
BRANCH  18  23
ATOM     23  CB  UNL     1      37.478 -24.041 -12.857  0.00  0.00    +0.029 C 
ATOM     24  CG2 UNL     1      37.544 -22.957 -11.772  0.00  0.00    +0.002 C 
BRANCH  23  25
ATOM     25  CG1 UNL     1      38.405 -25.232 -12.532  0.00  0.00    +0.002 C 
ATOM     26  CD1 UNL     1      39.413 -25.539 -13.631  0.00  0.00    +0.000 C 
ENDBRANCH  23  25
ENDBRANCH  18  23
ENDBRANCH  15  18
ENDBRANCH   1  16
BRANCH   1  27
ATOM     27  CB  UNL     1      35.561 -22.359 -16.905  0.00  0.00    +0.027 C 
ATOM     28  CG2 UNL     1      37.007 -22.517 -16.417  0.00  0.00    +0.002 C 
BRANCH  27  29
ATOM     29  CG1 UNL     1      35.501 -22.006 -18.407  0.00  0.00    +0.002 C 
ATOM     30  CD1 UNL     1      36.694 -21.187 -18.886  0.00  0.00    +0.000 C 
ENDBRANCH  27  29
ENDBRANCH   1  27
TORSDOF 13
ENDMDL
MODEL 2
REMARK VINA RESULT:      -8.3      2.330      6.702
REMARK  Name = 46937062
REMARK  13 active torsions:
REMARK  status: ('A' for Active; 'I' for Inactive)
REMARK    1  A    between atoms: CA_1  and  N_3
REMARK    2  A    between atoms: CA_1  and  C_16
REMARK    3  A    between atoms: CA_1  and  CB_27
REMARK    4  A    between atoms: C_4  and  C_7
REMARK    5  A    between atoms: C_8  and  C_10
REMARK    6  A    between atoms: C_10  and  O_11
REMARK    7  A    between atoms: O_11  and  C_12
REMARK    8  A    between atoms: N_15  and  CA_18
REMARK    9  A    between atoms: CA_18  and  C_20
REMARK   10  A    between atoms: CA_18  and  CB_23
REMARK   11  A    between atoms: C_20  and  O_21
REMARK   12  A    between atoms: CB_23  and  CG1_25
REMARK   13  A    between atoms: CB_27  and  CG1_29
REMARK                            x       y       z     vdW  Elec       q    Type
REMARK                         _______ _______ _______ _____ _____    ______ ____
ROOT
ATOM      1  CA  UNL     1      35.186 -24.544 -14.912  0.00  0.00    +0.149 C 
ENDROOT
BRANCH   1   3
ATOM      2  O   UNL     1      34.119 -23.882 -17.535  0.00  0.00    -0.272 OA
ATOM      3  N   UNL     1      35.515 -23.407 -15.733  0.00  0.00    -0.296 N 
ATOM      4  C   ACE A   0      34.951 -23.178 -16.975  0.00  0.00    +0.253 C 
ATOM      5  H   UNL     1      36.176 -22.760 -15.393  0.00  0.00    +0.150 HD
BRANCH   4   7
ATOM      6  O   UNL     1      36.773 -22.056 -18.154  0.00  0.00    -0.333 OA
ATOM      7  C   UNL     1      35.437 -21.938 -17.649  0.00  0.00    +0.229 C 
ATOM      8  C   UNL     1      35.722 -21.948 -19.123  0.00  0.00    +0.250 C 
BRANCH   8  10
ATOM      9  O   UNL     1      36.711 -19.932 -19.815  0.00  0.00    -0.247 OA
ATOM     10  C   UNL     1      35.752 -20.688 -19.873  0.00  0.00    +0.347 C 
BRANCH  10  11
ATOM     11  O   UNL     1      34.614 -20.512 -20.597  0.00  0.00    -0.447 OA
BRANCH  11  12
ATOM     12  C   UNL     1      34.411 -19.191 -21.109  0.00  0.00    +0.209 C 
ATOM     13  C   UNL     1      34.634 -19.202 -22.606  0.00  0.00    +0.051 C 
ENDBRANCH  11  12
ENDBRANCH  10  11
ENDBRANCH   8  10
ENDBRANCH   4   7
ENDBRANCH   1   3
BRANCH   1  16
ATOM     14  O   UNL     1      34.045 -24.033 -12.833  0.00  0.00    -0.273 OA
ATOM     15  N   UNL     1      32.829 -24.000 -14.809  0.00  0.00    -0.295 N 
ATOM     16  C   UNL     1      33.977 -24.177 -14.051  0.00  0.00    +0.241 C 
ATOM     17  H   UNL     1      32.884 -24.142 -15.782  0.00  0.00    +0.150 HD
BRANCH  15  18
ATOM     18  CA  UNL     1      31.556 -23.617 -14.242  0.00  0.00    +0.171 C 
BRANCH  18  20
ATOM     19  OXT UNL     1      30.408 -25.703 -14.686  0.00  0.00    -0.248 OA
ATOM     20  C   UNL     1      30.718 -24.835 -13.876  0.00  0.00    +0.332 C 
BRANCH  20  21
ATOM     21  O   UNL     1      30.327 -24.884 -12.580  0.00  0.00    -0.479 OA
ATOM     22  H   UNL     1      29.416 -24.869 -12.365  0.00  0.00    +0.295 HD
ENDBRANCH  20  21
ENDBRANCH  18  20
BRANCH  18  23
ATOM     23  CB  UNL     1      30.767 -22.636 -15.143  0.00  0.00    +0.029 C 
ATOM     24  CG2 UNL     1      31.055 -22.848 -16.636  0.00  0.00    +0.002 C 
BRANCH  23  25
ATOM     25  CG1 UNL     1      29.257 -22.727 -14.834  0.00  0.00    +0.002 C 
ATOM     26  CD1 UNL     1      28.382 -22.788 -16.078  0.00  0.00    +0.000 C 
ENDBRANCH  23  25
ENDBRANCH  18  23
ENDBRANCH  15  18
ENDBRANCH   1  16
BRANCH   1  27
ATOM     27  CB  UNL     1      36.382 -25.049 -14.069  0.00  0.00    +0.027 C 
ATOM     28  CG2 UNL     1      37.012 -26.282 -14.730  0.00  0.00    +0.002 C 
BRANCH  27  29
ATOM     29  CG1 UNL     1      37.428 -23.940 -13.817  0.00  0.00    +0.002 C 
ATOM     30  CD1 UNL     1      37.477 -23.470 -12.369  0.00  0.00    +0.000 C 
ENDBRANCH  27  29
ENDBRANCH   1  27
TORSDOF 13
ENDMDL
MODEL 3
REMARK VINA RESULT:      -8.2      2.087      6.270
REMARK  Name = 46937062
REMARK  13 active torsions:
REMARK  status: ('A' for Active; 'I' for Inactive)
REMARK    1  A    between atoms: CA_1  and  N_3
REMARK    2  A    between atoms: CA_1  and  C_16
REMARK    3  A    between atoms: CA_1  and  CB_27
REMARK    4  A    between atoms: C_4  and  C_7
REMARK    5  A    between atoms: C_8  and  C_10
REMARK    6  A    between atoms: C_10  and  O_11
REMARK    7  A    between atoms: O_11  and  C_12
REMARK    8  A    between atoms: N_15  and  CA_18
REMARK    9  A    between atoms: CA_18  and  C_20
REMARK   10  A    between atoms: CA_18  and  CB_23
REMARK   11  A    between atoms: C_20  and  O_21
REMARK   12  A    between atoms: CB_23  and  CG1_25
REMARK   13  A    between atoms: CB_27  and  CG1_29
REMARK                            x       y       z     vdW  Elec       q    Type
REMARK                         _______ _______ _______ _____ _____    ______ ____
ROOT
ATOM      1  CA  UNL     1      34.729 -22.114 -17.982  0.00  0.00    +0.149 C 
ENDROOT
BRANCH   1   3
ATOM      2  O   UNL     1      35.589 -21.972 -15.207  0.00  0.00    -0.272 OA
ATOM      3  N   UNL     1      35.956 -22.614 -17.416  0.00  0.00    -0.296 N 
ATOM      4  C   ACE A   0      36.277 -22.497 -16.075  0.00  0.00    +0.253 C 
ATOM      5  H   UNL     1      36.599 -23.061 -18.013  0.00  0.00    +0.150 HD
BRANCH   4   7
ATOM      6  O   UNL     1      37.887 -22.997 -14.307  0.00  0.00    -0.333 OA
ATOM      7  C   UNL     1      37.598 -23.087 -15.708  0.00  0.00    +0.229 C 
ATOM      8  C   UNL     1      37.656 -24.309 -14.837  0.00  0.00    +0.250 C 
BRANCH   8  10
ATOM      9  O   UNL     1      39.973 -24.678 -14.988  0.00  0.00    -0.247 OA
ATOM     10  C   UNL     1      38.856 -25.153 -14.837  0.00  0.00    +0.347 C 
BRANCH  10  11
ATOM     11  O   UNL     1      38.543 -26.464 -14.652  0.00  0.00    -0.447 OA
BRANCH  11  12
ATOM     12  C   UNL     1      37.264 -26.711 -14.059  0.00  0.00    +0.209 C 
ATOM     13  C   UNL     1      37.330 -26.373 -12.584  0.00  0.00    +0.051 C 
ENDBRANCH  11  12
ENDBRANCH  10  11
ENDBRANCH   8  10
ENDBRANCH   4   7
ENDBRANCH   1   3
BRANCH   1  16
ATOM     14  O   UNL     1      33.415 -24.121 -18.346  0.00  0.00    -0.273 OA
ATOM     15  N   UNL     1      32.904 -22.767 -16.531  0.00  0.00    -0.295 N 
ATOM     16  C   UNL     1      33.617 -23.115 -17.669  0.00  0.00    +0.241 C 
ATOM     17  H   UNL     1      33.148 -21.936 -16.063  0.00  0.00    +0.150 HD
BRANCH  15  18
ATOM     18  CA  UNL     1      31.821 -23.563 -16.000  0.00  0.00    +0.171 C 
BRANCH  18  20
ATOM     19  OXT UNL     1      29.974 -22.489 -17.140  0.00  0.00    -0.248 OA
ATOM     20  C   UNL     1      30.492 -22.823 -16.079  0.00  0.00    +0.332 C 
BRANCH  20  21
ATOM     21  O   UNL     1      29.925 -22.550 -14.880  0.00  0.00    -0.479 OA
ATOM     22  H   UNL     1      30.261 -21.854 -14.351  0.00  0.00    +0.295 HD
ENDBRANCH  20  21
ENDBRANCH  18  20
BRANCH  18  23
ATOM     23  CB  UNL     1      32.100 -24.077 -14.566  0.00  0.00    +0.029 C 
ATOM     24  CG2 UNL     1      31.153 -25.213 -14.154  0.00  0.00    +0.002 C 
BRANCH  23  25
ATOM     25  CG1 UNL     1      33.582 -24.489 -14.429  0.00  0.00    +0.002 C 
ATOM     26  CD1 UNL     1      34.145 -24.286 -13.029  0.00  0.00    +0.000 C 
ENDBRANCH  23  25
ENDBRANCH  18  23
ENDBRANCH  15  18
ENDBRANCH   1  16
BRANCH   1  27
ATOM     27  CB  UNL     1      34.842 -21.808 -19.495  0.00  0.00    +0.027 C 
ATOM     28  CG2 UNL     1      33.667 -20.930 -19.945  0.00  0.00    +0.002 C 
BRANCH  27  29
ATOM     29  CG1 UNL     1      36.202 -21.174 -19.863  0.00  0.00    +0.002 C 
ATOM     30  CD1 UNL     1      36.073 -19.859 -20.621  0.00  0.00    +0.000 C 
ENDBRANCH  27  29
ENDBRANCH   1  27
TORSDOF 13
ENDMDL
MODEL 4
REMARK VINA RESULT:      -8.1     12.265     15.274
REMARK  Name = 46937062
REMARK  13 active torsions:
REMARK  status: ('A' for Active; 'I' for Inactive)
REMARK    1  A    between atoms: CA_1  and  N_3
REMARK    2  A    between atoms: CA_1  and  C_16
REMARK    3  A    between atoms: CA_1  and  CB_27
REMARK    4  A    between atoms: C_4  and  C_7
REMARK    5  A    between atoms: C_8  and  C_10
REMARK    6  A    between atoms: C_10  and  O_11
REMARK    7  A    between atoms: O_11  and  C_12
REMARK    8  A    between atoms: N_15  and  CA_18
REMARK    9  A    between atoms: CA_18  and  C_20
REMARK   10  A    between atoms: CA_18  and  CB_23
REMARK   11  A    between atoms: C_20  and  O_21
REMARK   12  A    between atoms: CB_23  and  CG1_25
REMARK   13  A    between atoms: CB_27  and  CG1_29
REMARK                            x       y       z     vdW  Elec       q    Type
REMARK                         _______ _______ _______ _____ _____    ______ ____
ROOT
ATOM      1  CA  UNL     1      32.894 -11.887 -23.771  0.00  0.00    +0.149 C 
ENDROOT
BRANCH   1   3
ATOM      2  O   UNL     1      30.732 -10.359 -22.569  0.00  0.00    -0.272 OA
ATOM      3  N   UNL     1      33.003 -10.801 -22.830  0.00  0.00    -0.296 N 
ATOM      4  C   ACE A   0      31.909 -10.132 -22.312  0.00  0.00    +0.253 C 
ATOM      5  H   UNL     1      33.902 -10.521 -22.542  0.00  0.00    +0.150 HD
BRANCH   4   7
ATOM      6  O   UNL     1      33.349  -8.228 -21.794  0.00  0.00    -0.333 OA
ATOM      7  C   UNL     1      32.255  -9.042 -21.353  0.00  0.00    +0.229 C 
ATOM      8  C   UNL     1      32.058  -7.607 -21.747  0.00  0.00    +0.250 C 
BRANCH   8  10
ATOM      9  O   UNL     1      32.626  -6.611 -19.695  0.00  0.00    -0.247 OA
ATOM     10  C   UNL     1      31.951  -6.571 -20.714  0.00  0.00    +0.347 C 
BRANCH  10  11
ATOM     11  O   UNL     1      31.039  -5.621 -21.054  0.00  0.00    -0.447 OA
BRANCH  11  12
ATOM     12  C   UNL     1      30.721  -5.547 -22.447  0.00  0.00    +0.209 C 
ATOM     13  C   UNL     1      31.275  -4.256 -23.013  0.00  0.00    +0.051 C 
ENDBRANCH  11  12
ENDBRANCH  10  11
ENDBRANCH   8  10
ENDBRANCH   4   7
ENDBRANCH   1   3
BRANCH   1  16
ATOM     14  O   UNL     1      31.877 -13.422 -22.191  0.00  0.00    -0.273 OA
ATOM     15  N   UNL     1      33.813 -14.076 -23.291  0.00  0.00    -0.295 N 
ATOM     16  C   UNL     1      32.789 -13.193 -22.982  0.00  0.00    +0.241 C 
ATOM     17  H   UNL     1      34.496 -13.791 -23.941  0.00  0.00    +0.150 HD
BRANCH  15  18
ATOM     18  CA  UNL     1      33.927 -15.393 -22.708  0.00  0.00    +0.171 C 
BRANCH  18  20
ATOM     19  OXT UNL     1      35.027 -14.894 -20.609  0.00  0.00    -0.248 OA
ATOM     20  C   UNL     1      34.036 -15.326 -21.191  0.00  0.00    +0.332 C 
BRANCH  20  21
ATOM     21  O   UNL     1      32.953 -15.792 -20.525  0.00  0.00    -0.479 OA
ATOM     22  H   UNL     1      32.434 -16.478 -20.896  0.00  0.00    +0.295 HD
ENDBRANCH  20  21
ENDBRANCH  18  20
BRANCH  18  23
ATOM     23  CB  UNL     1      35.078 -16.225 -23.324  0.00  0.00    +0.029 C 
ATOM     24  CG2 UNL     1      35.375 -17.501 -22.523  0.00  0.00    +0.002 C 
BRANCH  23  25
ATOM     25  CG1 UNL     1      34.774 -16.539 -24.805  0.00  0.00    +0.002 C 
ATOM     26  CD1 UNL     1      34.459 -18.005 -25.067  0.00  0.00    +0.000 C 
ENDBRANCH  23  25
ENDBRANCH  18  23
ENDBRANCH  15  18
ENDBRANCH   1  16
BRANCH   1  27
ATOM     27  CB  UNL     1      34.047 -11.911 -24.804  0.00  0.00    +0.027 C 
ATOM     28  CG2 UNL     1      33.520 -12.360 -26.173  0.00  0.00    +0.002 C 
BRANCH  27  29
ATOM     29  CG1 UNL     1      34.781 -10.554 -24.891  0.00  0.00    +0.002 C 
ATOM     30  CD1 UNL     1      35.607 -10.392 -26.161  0.00  0.00    +0.000 C 
ENDBRANCH  27  29
ENDBRANCH   1  27
TORSDOF 13
ENDMDL
MODEL 5
REMARK VINA RESULT:      -8.0      2.790      5.712
REMARK  Name = 46937062
REMARK  13 active torsions:
REMARK  status: ('A' for Active; 'I' for Inactive)
REMARK    1  A    between atoms: CA_1  and  N_3
REMARK    2  A    between atoms: CA_1  and  C_16
REMARK    3  A    between atoms: CA_1  and  CB_27
REMARK    4  A    between atoms: C_4  and  C_7
REMARK    5  A    between atoms: C_8  and  C_10
REMARK    6  A    between atoms: C_10  and  O_11
REMARK    7  A    between atoms: O_11  and  C_12
REMARK    8  A    between atoms: N_15  and  CA_18
REMARK    9  A    between atoms: CA_18  and  C_20
REMARK   10  A    between atoms: CA_18  and  CB_23
REMARK   11  A    between atoms: C_20  and  O_21
REMARK   12  A    between atoms: CB_23  and  CG1_25
REMARK   13  A    between atoms: CB_27  and  CG1_29
REMARK                            x       y       z     vdW  Elec       q    Type
REMARK                         _______ _______ _______ _____ _____    ______ ____
ROOT
ATOM      1  CA  UNL     1      34.369 -23.217 -15.620  0.00  0.00    +0.149 C 
ENDROOT
BRANCH   1   3
ATOM      2  O   UNL     1      36.730 -21.644 -16.261  0.00  0.00    -0.272 OA
ATOM      3  N   UNL     1      34.831 -22.817 -16.925  0.00  0.00    -0.296 N 
ATOM      4  C   ACE A   0      35.973 -22.063 -17.129  0.00  0.00    +0.253 C 
ATOM      5  H   UNL     1      34.306 -23.093 -17.712  0.00  0.00    +0.150 HD
BRANCH   4   7
ATOM      6  O   UNL     1      35.318 -22.358 -19.464  0.00  0.00    -0.333 OA
ATOM      7  C   UNL     1      36.263 -21.767 -18.563  0.00  0.00    +0.229 C 
ATOM      8  C   UNL     1      35.309 -20.927 -19.362  0.00  0.00    +0.250 C 
BRANCH   8  10
ATOM      9  O   UNL     1      36.885 -19.766 -20.662  0.00  0.00    -0.247 OA
ATOM     10  C   UNL     1      35.768 -20.257 -20.583  0.00  0.00    +0.347 C 
BRANCH  10  11
ATOM     11  O   UNL     1      34.810 -20.271 -21.549  0.00  0.00    -0.447 OA
BRANCH  11  12
ATOM     12  C   UNL     1      34.587 -19.021 -22.210  0.00  0.00    +0.209 C 
ATOM     13  C   UNL     1      34.892 -19.181 -23.684  0.00  0.00    +0.051 C 
ENDBRANCH  11  12
ENDBRANCH  10  11
ENDBRANCH   8  10
ENDBRANCH   4   7
ENDBRANCH   1   3
BRANCH   1  16
ATOM     14  O   UNL     1      35.344 -25.438 -15.589  0.00  0.00    -0.273 OA
ATOM     15  N   UNL     1      36.093 -23.870 -14.051  0.00  0.00    -0.295 N 
ATOM     16  C   UNL     1      35.300 -24.311 -15.100  0.00  0.00    +0.241 C 
ATOM     17  H   UNL     1      35.977 -22.945 -13.734  0.00  0.00    +0.150 HD
BRANCH  15  18
ATOM     18  CA  UNL     1      37.082 -24.699 -13.401  0.00  0.00    +0.171 C 
BRANCH  18  20
ATOM     19  OXT UNL     1      37.779 -24.579 -11.085  0.00  0.00    -0.248 OA
ATOM     20  C   UNL     1      37.662 -24.017 -12.169  0.00  0.00    +0.332 C 
BRANCH  20  21
ATOM     21  O   UNL     1      38.032 -22.728 -12.358  0.00  0.00    -0.479 OA
ATOM     22  H   UNL     1      38.084 -22.143 -11.628  0.00  0.00    +0.295 HD
ENDBRANCH  20  21
ENDBRANCH  18  20
BRANCH  18  23
ATOM     23  CB  UNL     1      38.198 -25.172 -14.365  0.00  0.00    +0.029 C 
ATOM     24  CG2 UNL     1      38.743 -24.033 -15.237  0.00  0.00    +0.002 C 
BRANCH  23  25
ATOM     25  CG1 UNL     1      39.322 -25.874 -13.573  0.00  0.00    +0.002 C 
ATOM     26  CD1 UNL     1      40.675 -25.840 -14.272  0.00  0.00    +0.000 C 
ENDBRANCH  23  25
ENDBRANCH  18  23
ENDBRANCH  15  18
ENDBRANCH   1  16
BRANCH   1  27
ATOM     27  CB  UNL     1      32.883 -23.649 -15.610  0.00  0.00    +0.027 C 
ATOM     28  CG2 UNL     1      32.237 -23.292 -14.265  0.00  0.00    +0.002 C 
BRANCH  27  29
ATOM     29  CG1 UNL     1      32.094 -23.053 -16.798  0.00  0.00    +0.002 C 
ATOM     30  CD1 UNL     1      30.602 -22.909 -16.523  0.00  0.00    +0.000 C 
ENDBRANCH  27  29
ENDBRANCH   1  27
TORSDOF 13
ENDMDL
MODEL 6
REMARK VINA RESULT:      -8.0     11.189     14.595
REMARK  Name = 46937062
REMARK  13 active torsions:
REMARK  status: ('A' for Active; 'I' for Inactive)
REMARK    1  A    between atoms: CA_1  and  N_3
REMARK    2  A    between atoms: CA_1  and  C_16
REMARK    3  A    between atoms: CA_1  and  CB_27
REMARK    4  A    between atoms: C_4  and  C_7
REMARK    5  A    between atoms: C_8  and  C_10
REMARK    6  A    between atoms: C_10  and  O_11
REMARK    7  A    between atoms: O_11  and  C_12
REMARK    8  A    between atoms: N_15  and  CA_18
REMARK    9  A    between atoms: CA_18  and  C_20
REMARK   10  A    between atoms: CA_18  and  CB_23
REMARK   11  A    between atoms: C_20  and  O_21
REMARK   12  A    between atoms: CB_23  and  CG1_25
REMARK   13  A    between atoms: CB_27  and  CG1_29
REMARK                            x       y       z     vdW  Elec       q    Type
REMARK                         _______ _______ _______ _____ _____    ______ ____
ROOT
ATOM      1  CA  UNL     1      33.805 -12.259 -24.008  0.00  0.00    +0.149 C 
ENDROOT
BRANCH   1   3
ATOM      2  O   UNL     1      34.908 -14.072 -22.021  0.00  0.00    -0.272 OA
ATOM      3  N   UNL     1      33.651 -13.690 -23.943  0.00  0.00    -0.296 N 
ATOM      4  C   ACE A   0      34.219 -14.471 -22.953  0.00  0.00    +0.253 C 
ATOM      5  H   UNL     1      33.115 -14.134 -24.640  0.00  0.00    +0.150 HD
BRANCH   4   7
ATOM      6  O   UNL     1      34.485 -16.515 -24.264  0.00  0.00    -0.333 OA
ATOM      7  C   UNL     1      33.928 -15.929 -23.080  0.00  0.00    +0.229 C 
ATOM      8  C   UNL     1      35.048 -16.926 -23.011  0.00  0.00    +0.250 C 
BRANCH   8  10
ATOM      9  O   UNL     1      34.675 -19.184 -23.548  0.00  0.00    -0.247 OA
ATOM     10  C   UNL     1      34.764 -18.327 -22.680  0.00  0.00    +0.347 C 
BRANCH  10  11
ATOM     11  O   UNL     1      34.628 -18.504 -21.338  0.00  0.00    -0.447 OA
BRANCH  11  12
ATOM     12  C   UNL     1      34.352 -19.844 -20.921  0.00  0.00    +0.209 C 
ATOM     13  C   UNL     1      32.877 -19.969 -20.604  0.00  0.00    +0.051 C 
ENDBRANCH  11  12
ENDBRANCH  10  11
ENDBRANCH   8  10
ENDBRANCH   4   7
ENDBRANCH   1   3
BRANCH   1  16
ATOM     14  O   UNL     1      31.836 -12.280 -22.591  0.00  0.00    -0.273 OA
ATOM     15  N   UNL     1      32.812 -10.240 -23.113  0.00  0.00    -0.295 N 
ATOM     16  C   UNL     1      32.699 -11.622 -23.167  0.00  0.00    +0.241 C 
ATOM     17  H   UNL     1      33.543  -9.811 -23.613  0.00  0.00    +0.150 HD
BRANCH  15  18
ATOM     18  CA  UNL     1      31.911  -9.400 -22.357  0.00  0.00    +0.171 C 
BRANCH  18  20
ATOM     19  OXT UNL     1      30.702  -7.372 -22.898  0.00  0.00    -0.248 OA
ATOM     20  C   UNL     1      31.723  -8.042 -23.021  0.00  0.00    +0.332 C 
BRANCH  20  21
ATOM     21  O   UNL     1      32.771  -7.631 -23.772  0.00  0.00    -0.479 OA
ATOM     22  H   UNL     1      33.074  -6.746 -23.709  0.00  0.00    +0.295 HD
ENDBRANCH  20  21
ENDBRANCH  18  20
BRANCH  18  23
ATOM     23  CB  UNL     1      32.328  -9.254 -20.873  0.00  0.00    +0.029 C 
ATOM     24  CG2 UNL     1      32.647  -7.801 -20.493  0.00  0.00    +0.002 C 
BRANCH  23  25
ATOM     25  CG1 UNL     1      31.245  -9.860 -19.954  0.00  0.00    +0.002 C 
ATOM     26  CD1 UNL     1      31.661 -11.173 -19.305  0.00  0.00    +0.000 C 
ENDBRANCH  23  25
ENDBRANCH  18  23
ENDBRANCH  15  18
ENDBRANCH   1  16
BRANCH   1  27
ATOM     27  CB  UNL     1      33.832 -11.718 -25.458  0.00  0.00    +0.027 C 
ATOM     28  CG2 UNL     1      35.004 -10.744 -25.637  0.00  0.00    +0.002 C 
BRANCH  27  29
ATOM     29  CG1 UNL     1      33.869 -12.854 -26.505  0.00  0.00    +0.002 C 
ATOM     30  CD1 UNL     1      32.601 -12.948 -27.344  0.00  0.00    +0.000 C 
ENDBRANCH  27  29
ENDBRANCH   1  27
TORSDOF 13
ENDMDL
MODEL 7
REMARK VINA RESULT:      -7.8     11.222     14.913
REMARK  Name = 46937062
REMARK  13 active torsions:
REMARK  status: ('A' for Active; 'I' for Inactive)
REMARK    1  A    between atoms: CA_1  and  N_3
REMARK    2  A    between atoms: CA_1  and  C_16
REMARK    3  A    between atoms: CA_1  and  CB_27
REMARK    4  A    between atoms: C_4  and  C_7
REMARK    5  A    between atoms: C_8  and  C_10
REMARK    6  A    between atoms: C_10  and  O_11
REMARK    7  A    between atoms: O_11  and  C_12
REMARK    8  A    between atoms: N_15  and  CA_18
REMARK    9  A    between atoms: CA_18  and  C_20
REMARK   10  A    between atoms: CA_18  and  CB_23
REMARK   11  A    between atoms: C_20  and  O_21
REMARK   12  A    between atoms: CB_23  and  CG1_25
REMARK   13  A    between atoms: CB_27  and  CG1_29
REMARK                            x       y       z     vdW  Elec       q    Type
REMARK                         _______ _______ _______ _____ _____    ______ ____
ROOT
ATOM      1  CA  UNL     1      31.356 -11.177 -20.997  0.00  0.00    +0.149 C 
ENDROOT
BRANCH   1   3
ATOM      2  O   UNL     1      31.646 -13.701 -22.413  0.00  0.00    -0.272 OA
ATOM      3  N   UNL     1      32.276 -12.247 -20.705  0.00  0.00    -0.296 N 
ATOM      4  C   ACE A   0      32.338 -13.417 -21.441  0.00  0.00    +0.253 C 
ATOM      5  H   UNL     1      32.890 -12.141 -19.943  0.00  0.00    +0.150 HD
BRANCH   4   7
ATOM      6  O   UNL     1      32.810 -15.643 -20.551  0.00  0.00    -0.333 OA
ATOM      7  C   UNL     1      33.366 -14.387 -20.963  0.00  0.00    +0.229 C 
ATOM      8  C   UNL     1      33.621 -15.650 -21.734  0.00  0.00    +0.250 C 
BRANCH   8  10
ATOM      9  O   UNL     1      35.224 -16.825 -20.478  0.00  0.00    -0.247 OA
ATOM     10  C   UNL     1      34.887 -16.371 -21.563  0.00  0.00    +0.347 C 
BRANCH  10  11
ATOM     11  O   UNL     1      35.578 -16.448 -22.732  0.00  0.00    -0.447 OA
BRANCH  11  12
ATOM     12  C   UNL     1      34.934 -17.180 -23.779  0.00  0.00    +0.209 C 
ATOM     13  C   UNL     1      35.255 -18.652 -23.621  0.00  0.00    +0.051 C 
ENDBRANCH  11  12
ENDBRANCH  10  11
ENDBRANCH   8  10
ENDBRANCH   4   7
ENDBRANCH   1   3
BRANCH   1  16
ATOM     14  O   UNL     1      30.982  -9.798 -22.958  0.00  0.00    -0.273 OA
ATOM     15  N   UNL     1      32.822 -11.211 -22.924  0.00  0.00    -0.295 N 
ATOM     16  C   UNL     1      31.670 -10.647 -22.396  0.00  0.00    +0.241 C 
ATOM     17  H   UNL     1      33.299 -11.886 -22.389  0.00  0.00    +0.150 HD
BRANCH  15  18
ATOM     18  CA  UNL     1      33.357 -10.857 -24.219  0.00  0.00    +0.171 C 
BRANCH  18  20
ATOM     19  OXT UNL     1      33.619 -12.170 -26.238  0.00  0.00    -0.248 OA
ATOM     20  C   UNL     1      33.747 -12.093 -25.020  0.00  0.00    +0.332 C 
BRANCH  20  21
ATOM     21  O   UNL     1      34.240 -13.114 -24.279  0.00  0.00    -0.479 OA
ATOM     22  H   UNL     1      33.695 -13.540 -23.647  0.00  0.00    +0.295 HD
ENDBRANCH  20  21
ENDBRANCH  18  20
BRANCH  18  23
ATOM     23  CB  UNL     1      34.527  -9.846 -24.130  0.00  0.00    +0.029 C 
ATOM     24  CG2 UNL     1      35.522  -9.996 -25.289  0.00  0.00    +0.002 C 
BRANCH  23  25
ATOM     25  CG1 UNL     1      33.977  -8.406 -24.031  0.00  0.00    +0.002 C 
ATOM     26  CD1 UNL     1      34.818  -7.492 -23.150  0.00  0.00    +0.000 C 
ENDBRANCH  23  25
ENDBRANCH  18  23
ENDBRANCH  15  18
ENDBRANCH   1  16
BRANCH   1  27
ATOM     27  CB  UNL     1      31.366 -10.061 -19.925  0.00  0.00    +0.027 C 
ATOM     28  CG2 UNL     1      31.370 -10.678 -18.520  0.00  0.00    +0.002 C 
BRANCH  27  29
ATOM     29  CG1 UNL     1      32.541  -9.076 -20.119  0.00  0.00    +0.002 C 
ATOM     30  CD1 UNL     1      32.103  -7.619 -20.203  0.00  0.00    +0.000 C 
ENDBRANCH  27  29
ENDBRANCH   1  27
TORSDOF 13
ENDMDL
MODEL 8
REMARK VINA RESULT:      -7.7     11.735     15.182
REMARK  Name = 46937062
REMARK  13 active torsions:
REMARK  status: ('A' for Active; 'I' for Inactive)
REMARK    1  A    between atoms: CA_1  and  N_3
REMARK    2  A    between atoms: CA_1  and  C_16
REMARK    3  A    between atoms: CA_1  and  CB_27
REMARK    4  A    between atoms: C_4  and  C_7
REMARK    5  A    between atoms: C_8  and  C_10
REMARK    6  A    between atoms: C_10  and  O_11
REMARK    7  A    between atoms: O_11  and  C_12
REMARK    8  A    between atoms: N_15  and  CA_18
REMARK    9  A    between atoms: CA_18  and  C_20
REMARK   10  A    between atoms: CA_18  and  CB_23
REMARK   11  A    between atoms: C_20  and  O_21
REMARK   12  A    between atoms: CB_23  and  CG1_25
REMARK   13  A    between atoms: CB_27  and  CG1_29
REMARK                            x       y       z     vdW  Elec       q    Type
REMARK                         _______ _______ _______ _____ _____    ______ ____
ROOT
ATOM      1  CA  UNL     1      32.151 -11.883 -22.582  0.00  0.00    +0.149 C 
ENDROOT
BRANCH   1   3
ATOM      2  O   UNL     1      32.629 -14.374 -24.004  0.00  0.00    -0.272 OA
ATOM      3  N   UNL     1      33.087 -12.924 -22.240  0.00  0.00    -0.296 N 
ATOM      4  C   ACE A   0      33.242 -14.080 -22.984  0.00  0.00    +0.253 C 
ATOM      5  H   UNL     1      33.644 -12.807 -21.436  0.00  0.00    +0.150 HD
BRANCH   4   7
ATOM      6  O   UNL     1      34.512 -14.851 -21.045  0.00  0.00    -0.333 OA
ATOM      7  C   UNL     1      34.270 -15.020 -22.448  0.00  0.00    +0.229 C 
ATOM      8  C   UNL     1      33.876 -16.070 -21.450  0.00  0.00    +0.250 C 
BRANCH   8  10
ATOM      9  O   UNL     1      35.611 -17.278 -20.422  0.00  0.00    -0.247 OA
ATOM     10  C   UNL     1      34.721 -17.255 -21.260  0.00  0.00    +0.347 C 
BRANCH  10  11
ATOM     11  O   UNL     1      34.373 -18.256 -22.112  0.00  0.00    -0.447 OA
BRANCH  11  12
ATOM     12  C   UNL     1      34.386 -19.572 -21.550  0.00  0.00    +0.209 C 
ATOM     13  C   UNL     1      33.112 -19.784 -20.760  0.00  0.00    +0.051 C 
ENDBRANCH  11  12
ENDBRANCH  10  11
ENDBRANCH   8  10
ENDBRANCH   4   7
ENDBRANCH   1   3
BRANCH   1  16
ATOM     14  O   UNL     1      33.459 -11.240 -24.521  0.00  0.00    -0.273 OA
ATOM     15  N   UNL     1      32.704  -9.581 -23.085  0.00  0.00    -0.295 N 
ATOM     16  C   UNL     1      32.856 -10.893 -23.508  0.00  0.00    +0.241 C 
ATOM     17  H   UNL     1      32.201  -9.412 -22.256  0.00  0.00    +0.150 HD
BRANCH  15  18
ATOM     18  CA  UNL     1      33.246  -8.449 -23.802  0.00  0.00    +0.171 C 
BRANCH  18  20
ATOM     19  OXT UNL     1      35.329  -7.376 -23.188  0.00  0.00    -0.248 OA
ATOM     20  C   UNL     1      34.759  -8.361 -23.647  0.00  0.00    +0.332 C 
BRANCH  20  21
ATOM     21  O   UNL     1      35.434  -9.457 -24.066  0.00  0.00    -0.479 OA
ATOM     22  H   UNL     1      35.932  -9.963 -23.454  0.00  0.00    +0.295 HD
ENDBRANCH  20  21
ENDBRANCH  18  20
BRANCH  18  23
ATOM     23  CB  UNL     1      32.559  -7.114 -23.426  0.00  0.00    +0.029 C 
ATOM     24  CG2 UNL     1      31.824  -6.475 -24.613  0.00  0.00    +0.002 C 
BRANCH  23  25
ATOM     25  CG1 UNL     1      31.619  -7.322 -22.218  0.00  0.00    +0.002 C 
ATOM     26  CD1 UNL     1      32.192  -6.809 -20.903  0.00  0.00    +0.000 C 
ENDBRANCH  23  25
ENDBRANCH  18  23
ENDBRANCH  15  18
ENDBRANCH   1  16
BRANCH   1  27
ATOM     27  CB  UNL     1      31.531 -11.195 -21.341  0.00  0.00    +0.027 C 
ATOM     28  CG2 UNL     1      30.001 -11.195 -21.446  0.00  0.00    +0.002 C 
BRANCH  27  29
ATOM     29  CG1 UNL     1      32.012 -11.834 -20.018  0.00  0.00    +0.002 C 
ATOM     30  CD1 UNL     1      31.561 -11.073 -18.778  0.00  0.00    +0.000 C 
ENDBRANCH  27  29
ENDBRANCH   1  27
TORSDOF 13
ENDMDL
MODEL 9
REMARK VINA RESULT:      -7.7     11.853     14.793
REMARK  Name = 46937062
REMARK  13 active torsions:
REMARK  status: ('A' for Active; 'I' for Inactive)
REMARK    1  A    between atoms: CA_1  and  N_3
REMARK    2  A    between atoms: CA_1  and  C_16
REMARK    3  A    between atoms: CA_1  and  CB_27
REMARK    4  A    between atoms: C_4  and  C_7
REMARK    5  A    between atoms: C_8  and  C_10
REMARK    6  A    between atoms: C_10  and  O_11
REMARK    7  A    between atoms: O_11  and  C_12
REMARK    8  A    between atoms: N_15  and  CA_18
REMARK    9  A    between atoms: CA_18  and  C_20
REMARK   10  A    between atoms: CA_18  and  CB_23
REMARK   11  A    between atoms: C_20  and  O_21
REMARK   12  A    between atoms: CB_23  and  CG1_25
REMARK   13  A    between atoms: CB_27  and  CG1_29
REMARK                            x       y       z     vdW  Elec       q    Type
REMARK                         _______ _______ _______ _____ _____    ______ ____
ROOT
ATOM      1  CA  UNL     1      33.059 -11.724 -24.118  0.00  0.00    +0.149 C 
ENDROOT
BRANCH   1   3
ATOM      2  O   UNL     1      32.165  -8.971 -24.392  0.00  0.00    -0.272 OA
ATOM      3  N   UNL     1      33.214 -10.652 -23.169  0.00  0.00    -0.296 N 
ATOM      4  C   ACE A   0      32.752  -9.367 -23.392  0.00  0.00    +0.253 C 
ATOM      5  H   UNL     1      33.672 -10.843 -22.318  0.00  0.00    +0.150 HD
BRANCH   4   7
ATOM      6  O   UNL     1      32.297  -7.184 -22.392  0.00  0.00    -0.333 OA
ATOM      7  C   UNL     1      33.019  -8.417 -22.272  0.00  0.00    +0.229 C 
ATOM      8  C   UNL     1      31.919  -8.055 -21.318  0.00  0.00    +0.250 C 
BRANCH   8  10
ATOM      9  O   UNL     1      32.619  -6.361 -19.847  0.00  0.00    -0.247 OA
ATOM     10  C   UNL     1      32.244  -7.515 -19.993  0.00  0.00    +0.347 C 
BRANCH  10  11
ATOM     11  O   UNL     1      32.070  -8.449 -19.019  0.00  0.00    -0.447 OA
BRANCH  11  12
ATOM     12  C   UNL     1      32.234  -9.808 -19.435  0.00  0.00    +0.209 C 
ATOM     13  C   UNL     1      31.195 -10.664 -18.743  0.00  0.00    +0.051 C 
ENDBRANCH  11  12
ENDBRANCH  10  11
ENDBRANCH   8  10
ENDBRANCH   4   7
ENDBRANCH   1   3
BRANCH   1  16
ATOM     14  O   UNL     1      31.743 -13.267 -22.787  0.00  0.00    -0.273 OA
ATOM     15  N   UNL     1      33.909 -13.864 -23.369  0.00  0.00    -0.295 N 
ATOM     16  C   UNL     1      32.811 -13.017 -23.341  0.00  0.00    +0.241 C 
ATOM     17  H   UNL     1      34.719 -13.564 -23.842  0.00  0.00    +0.150 HD
BRANCH  15  18
ATOM     18  CA  UNL     1      33.923 -15.164 -22.738  0.00  0.00    +0.171 C 
BRANCH  18  20
ATOM     19  OXT UNL     1      35.028 -14.723 -20.629  0.00  0.00    -0.248 OA
ATOM     20  C   UNL     1      34.005 -15.050 -21.222  0.00  0.00    +0.332 C 
BRANCH  20  21
ATOM     21  O   UNL     1      32.856 -15.348 -20.570  0.00  0.00    -0.479 OA
ATOM     22  H   UNL     1      32.649 -14.917 -19.765  0.00  0.00    +0.295 HD
ENDBRANCH  20  21
ENDBRANCH  18  20
BRANCH  18  23
ATOM     23  CB  UNL     1      35.031 -16.091 -23.298  0.00  0.00    +0.029 C 
ATOM     24  CG2 UNL     1      35.166 -17.394 -22.498  0.00  0.00    +0.002 C 
BRANCH  23  25
ATOM     25  CG1 UNL     1      34.787 -16.364 -24.798  0.00  0.00    +0.002 C 
ATOM     26  CD1 UNL     1      34.507 -17.827 -25.114  0.00  0.00    +0.000 C 
ENDBRANCH  23  25
ENDBRANCH  18  23
ENDBRANCH  15  18
ENDBRANCH   1  16
BRANCH   1  27
ATOM     27  CB  UNL     1      34.252 -11.842 -25.098  0.00  0.00    +0.027 C 
ATOM     28  CG2 UNL     1      33.752 -12.230 -26.496  0.00  0.00    +0.002 C 
BRANCH  27  29
ATOM     29  CG1 UNL     1      35.106 -10.555 -25.135  0.00  0.00    +0.002 C 
ATOM     30  CD1 UNL     1      35.787 -10.317 -26.477  0.00  0.00    +0.000 C 
ENDBRANCH  27  29
ENDBRANCH   1  27
TORSDOF 13
ENDMDL
