MODEL 1
REMARK VINA RESULT:      -9.6      0.000      0.000
REMARK  Name = 25113157
REMARK  14 active torsions:
REMARK  status: ('A' for Active; 'I' for Inactive)
REMARK    1  A    between atoms: N_2  and  C_7
REMARK    2  A    between atoms: N_3  and  C_18
REMARK    3  A    between atoms: C_7  and  C_9
REMARK    4  A    between atoms: C_7  and  C_12
REMARK    5  A    between atoms: C_9  and  O_10
REMARK    6  A    between atoms: C_12  and  C_13
REMARK    7  A    between atoms: C_13  and  C_15
REMARK    8  A    between atoms: C_15  and  O_16
REMARK    9  A    between atoms: C_18  and  C_20
REMARK   10  A    between atoms: C_18  and  C_23
REMARK   11  A    between atoms: C_20  and  O_21
REMARK   12  A    between atoms: C_23  and  S_24
REMARK   13  A    between atoms: S_24  and  C_25
REMARK   14  A    between atoms: C_25  and  C_27
REMARK                            x       y       z     vdW  Elec       q    Type
REMARK                         _______ _______ _______ _____ _____    ______ ____
ROOT
ATOM      1  O   UNK A   0      35.609 -23.062 -14.686  0.00  0.00    -0.253 OA
ATOM      2  N   UNK A   1      35.568 -25.368 -14.412  0.00  0.00    -0.281 N 
ATOM      3  N   UNK A   1      33.638 -24.251 -14.984  0.00  0.00    -0.280 N 
ATOM      4  C   UNK A   0      34.995 -24.129 -14.693  0.00  0.00    +0.301 C 
ATOM      5  H   UNK A   1      34.993 -26.167 -14.444  0.00  0.00    +0.151 HD
ATOM      6  H   UNK A   1      33.231 -25.147 -14.965  0.00  0.00    +0.151 HD
ENDROOT
BRANCH   2   7
ATOM      7  C   UNK A   1      36.959 -25.539 -14.076  0.00  0.00    +0.173 C 
BRANCH   7   9
ATOM      8  O   UNK A   1      38.515 -27.312 -14.682  0.00  0.00    -0.248 OA
ATOM      9  C   UNK A   1      37.498 -26.675 -14.921  0.00  0.00    +0.332 C 
BRANCH   9  10
ATOM     10  O   UNK A   1      36.691 -26.945 -15.980  0.00  0.00    -0.479 OA
ATOM     11  H   UNK A   1      35.956 -26.393 -16.163  0.00  0.00    +0.295 HD
ENDBRANCH   9  10
ENDBRANCH   7   9
BRANCH   7  12
ATOM     12  C   UNK A   1      37.187 -25.724 -12.571  0.00  0.00    +0.043 C 
BRANCH  12  13
ATOM     13  C   UNK A   1      37.000 -24.470 -11.708  0.00  0.00    +0.112 C 
BRANCH  13  15
ATOM     14  O   UNK A   1      35.322 -24.855  -9.983  0.00  0.00    -0.250 OA
ATOM     15  C   UNK A   1      35.634 -24.372 -11.063  0.00  0.00    +0.314 C 
BRANCH  15  16
ATOM     16  O   UNK A   1      34.754 -23.706 -11.856  0.00  0.00    -0.480 OA
ATOM     17  H   UNK A   1      34.993 -22.883 -12.235  0.00  0.00    +0.295 HD
ENDBRANCH  15  16
ENDBRANCH  13  15
ENDBRANCH  12  13
ENDBRANCH   7  12
ENDBRANCH   2   7
BRANCH   3  18
ATOM     18  C   UNK A   1      32.803 -23.119 -15.311  0.00  0.00    +0.183 C 
BRANCH  18  20
ATOM     19  O   UNK A   1      30.464 -22.959 -14.694  0.00  0.00    -0.248 OA
ATOM     20  C   UNK A   1      31.638 -22.976 -14.346  0.00  0.00    +0.333 C 
BRANCH  20  21
ATOM     21  O   UNK A   1      32.025 -22.853 -13.054  0.00  0.00    -0.479 OA
ATOM     22  H   UNK A   1      32.780 -23.314 -12.744  0.00  0.00    +0.295 HD
ENDBRANCH  20  21
ENDBRANCH  18  20
BRANCH  18  23
ATOM     23  C   UNK A   1      32.348 -23.147 -16.773  0.00  0.00    +0.089 C 
BRANCH  23  24
ATOM     24  S   UNK A   1      33.718 -23.042 -17.972  0.00  0.00    -0.133 S 
BRANCH  24  25
ATOM     25  C   UNK A   1      32.975 -21.846 -19.103  0.00  0.00    +0.084 C 
BRANCH  25  27
ATOM     26  F   UNK A   1      36.841 -18.635 -21.645  0.00  0.00    -0.204 F 
ATOM     27  C   UNK A   1      34.008 -20.988 -19.781  0.00  0.00    -0.011 C 
ATOM     28  C   UNK A   1      35.364 -21.236 -19.575  0.00  0.00    -0.001 C 
ATOM     29  C   UNK A   1      33.607 -19.945 -20.616  0.00  0.00    -0.001 C 
ATOM     30  C   UNK A   1      36.322 -20.442 -20.205  0.00  0.00    +0.029 C 
ATOM     31  C   UNK A   1      34.566 -19.150 -21.246  0.00  0.00    +0.029 C 
ATOM     32  C   UNK A   1      35.922 -19.398 -21.040  0.00  0.00    +0.140 C 
ENDBRANCH  25  27
ENDBRANCH  24  25
ENDBRANCH  23  24
ENDBRANCH  18  23
ENDBRANCH   3  18
TORSDOF 14
ENDMDL
MODEL 2
REMARK VINA RESULT:      -9.5      1.622      3.178
REMARK  Name = 25113157
REMARK  14 active torsions:
REMARK  status: ('A' for Active; 'I' for Inactive)
REMARK    1  A    between atoms: N_2  and  C_7
REMARK    2  A    between atoms: N_3  and  C_18
REMARK    3  A    between atoms: C_7  and  C_9
REMARK    4  A    between atoms: C_7  and  C_12
REMARK    5  A    between atoms: C_9  and  O_10
REMARK    6  A    between atoms: C_12  and  C_13
REMARK    7  A    between atoms: C_13  and  C_15
REMARK    8  A    between atoms: C_15  and  O_16
REMARK    9  A    between atoms: C_18  and  C_20
REMARK   10  A    between atoms: C_18  and  C_23
REMARK   11  A    between atoms: C_20  and  O_21
REMARK   12  A    between atoms: C_23  and  S_24
REMARK   13  A    between atoms: S_24  and  C_25
REMARK   14  A    between atoms: C_25  and  C_27
REMARK                            x       y       z     vdW  Elec       q    Type
REMARK                         _______ _______ _______ _____ _____    ______ ____
ROOT
ATOM      1  O   UNK A   0      34.543 -23.987 -12.261  0.00  0.00    -0.253 OA
ATOM      2  N   UNK A   1      36.312 -24.755 -13.555  0.00  0.00    -0.281 N 
ATOM      3  N   UNK A   1      34.376 -24.039 -14.575  0.00  0.00    -0.280 N 
ATOM      4  C   UNK A   0      35.032 -24.238 -13.362  0.00  0.00    +0.301 C 
ATOM      5  H   UNK A   1      36.615 -24.922 -14.478  0.00  0.00    +0.151 HD
ATOM      6  H   UNK A   1      34.847 -24.269 -15.408  0.00  0.00    +0.151 HD
ENDROOT
BRANCH   2   7
ATOM      7  C   UNK A   1      37.215 -25.058 -12.473  0.00  0.00    +0.173 C 
BRANCH   7   9
ATOM      8  O   UNK A   1      38.076 -22.809 -12.107  0.00  0.00    -0.248 OA
ATOM      9  C   UNK A   1      37.448 -23.777 -11.699  0.00  0.00    +0.332 C 
BRANCH   9  10
ATOM     10  O   UNK A   1      36.837 -23.800 -10.486  0.00  0.00    -0.479 OA
ATOM     11  H   UNK A   1      37.348 -23.729  -9.702  0.00  0.00    +0.295 HD
ENDBRANCH   9  10
ENDBRANCH   7   9
BRANCH   7  12
ATOM     12  C   UNK A   1      38.504 -25.737 -12.950  0.00  0.00    +0.043 C 
BRANCH  12  13
ATOM     13  C   UNK A   1      38.740 -25.733 -14.466  0.00  0.00    +0.112 C 
BRANCH  13  15
ATOM     14  O   UNK A   1      40.920 -24.665 -14.248  0.00  0.00    -0.250 OA
ATOM     15  C   UNK A   1      40.164 -25.408 -14.861  0.00  0.00    +0.314 C 
BRANCH  15  16
ATOM     16  O   UNK A   1      40.511 -26.014 -16.026  0.00  0.00    -0.480 OA
ATOM     17  H   UNK A   1      39.983 -26.708 -16.369  0.00  0.00    +0.295 HD
ENDBRANCH  15  16
ENDBRANCH  13  15
ENDBRANCH  12  13
ENDBRANCH   7  12
ENDBRANCH   2   7
BRANCH   3  18
ATOM     18  C   UNK A   1      33.034 -23.512 -14.662  0.00  0.00    +0.183 C 
BRANCH  18  20
ATOM     19  O   UNK A   1      31.731 -25.499 -14.187  0.00  0.00    -0.248 OA
ATOM     20  C   UNK A   1      32.042 -24.355 -13.880  0.00  0.00    +0.333 C 
BRANCH  20  21
ATOM     21  O   UNK A   1      31.518 -23.711 -12.810  0.00  0.00    -0.479 OA
ATOM     22  H   UNK A   1      30.776 -24.070 -12.364  0.00  0.00    +0.295 HD
ENDBRANCH  20  21
ENDBRANCH  18  20
BRANCH  18  23
ATOM     23  C   UNK A   1      32.598 -23.295 -16.113  0.00  0.00    +0.089 C 
BRANCH  23  24
ATOM     24  S   UNK A   1      33.987 -23.159 -17.287  0.00  0.00    -0.133 S 
BRANCH  24  25
ATOM     25  C   UNK A   1      33.081 -22.432 -18.670  0.00  0.00    +0.084 C 
BRANCH  25  27
ATOM     26  F   UNK A   1      36.228 -18.789 -21.593  0.00  0.00    -0.204 F 
ATOM     27  C   UNK A   1      33.922 -21.459 -19.450  0.00  0.00    -0.011 C 
ATOM     28  C   UNK A   1      35.312 -21.559 -19.420  0.00  0.00    -0.001 C 
ATOM     29  C   UNK A   1      33.309 -20.458 -20.203  0.00  0.00    -0.001 C 
ATOM     30  C   UNK A   1      36.092 -20.657 -20.144  0.00  0.00    +0.029 C 
ATOM     31  C   UNK A   1      34.089 -19.556 -20.928  0.00  0.00    +0.029 C 
ATOM     32  C   UNK A   1      35.479 -19.655 -20.898  0.00  0.00    +0.140 C 
ENDBRANCH  25  27
ENDBRANCH  24  25
ENDBRANCH  23  24
ENDBRANCH  18  23
ENDBRANCH   3  18
TORSDOF 14
ENDMDL
MODEL 3
REMARK VINA RESULT:      -8.8      9.373     13.255
REMARK  Name = 25113157
REMARK  14 active torsions:
REMARK  status: ('A' for Active; 'I' for Inactive)
REMARK    1  A    between atoms: N_2  and  C_7
REMARK    2  A    between atoms: N_3  and  C_18
REMARK    3  A    between atoms: C_7  and  C_9
REMARK    4  A    between atoms: C_7  and  C_12
REMARK    5  A    between atoms: C_9  and  O_10
REMARK    6  A    between atoms: C_12  and  C_13
REMARK    7  A    between atoms: C_13  and  C_15
REMARK    8  A    between atoms: C_15  and  O_16
REMARK    9  A    between atoms: C_18  and  C_20
REMARK   10  A    between atoms: C_18  and  C_23
REMARK   11  A    between atoms: C_20  and  O_21
REMARK   12  A    between atoms: C_23  and  S_24
REMARK   13  A    between atoms: S_24  and  C_25
REMARK   14  A    between atoms: C_25  and  C_27
REMARK                            x       y       z     vdW  Elec       q    Type
REMARK                         _______ _______ _______ _____ _____    ______ ____
ROOT
ATOM      1  O   UNK A   0      32.977 -13.783 -24.517  0.00  0.00    -0.253 OA
ATOM      2  N   UNK A   1      34.245 -12.031 -23.670  0.00  0.00    -0.281 N 
ATOM      3  N   UNK A   1      34.430 -14.128 -22.741  0.00  0.00    -0.280 N 
ATOM      4  C   UNK A   0      33.807 -13.353 -23.716  0.00  0.00    +0.301 C 
ATOM      5  H   UNK A   1      34.914 -11.783 -22.992  0.00  0.00    +0.151 HD
ATOM      6  H   UNK A   1      35.083 -13.698 -22.143  0.00  0.00    +0.151 HD
ENDROOT
BRANCH   2   7
ATOM      7  C   UNK A   1      33.766 -11.007 -24.566  0.00  0.00    +0.173 C 
BRANCH   7   9
ATOM      8  O   UNK A   1      35.667 -10.367 -25.948  0.00  0.00    -0.248 OA
ATOM      9  C   UNK A   1      34.647 -11.028 -25.798  0.00  0.00    +0.332 C 
BRANCH   9  10
ATOM     10  O   UNK A   1      34.197 -11.910 -26.728  0.00  0.00    -0.479 OA
ATOM     11  H   UNK A   1      34.094 -12.815 -26.505  0.00  0.00    +0.295 HD
ENDBRANCH   9  10
ENDBRANCH   7   9
BRANCH   7  12
ATOM     12  C   UNK A   1      33.672  -9.631 -23.895  0.00  0.00    +0.043 C 
BRANCH  12  13
ATOM     13  C   UNK A   1      32.288  -9.244 -23.357  0.00  0.00    +0.112 C 
BRANCH  13  15
ATOM     14  O   UNK A   1      31.600 -11.133 -21.980  0.00  0.00    -0.250 OA
ATOM     15  C   UNK A   1      31.913  -9.954 -22.074  0.00  0.00    +0.314 C 
BRANCH  15  16
ATOM     16  O   UNK A   1      31.922  -9.106 -21.012  0.00  0.00    -0.480 OA
ATOM     17  H   UNK A   1      31.392  -9.287 -20.262  0.00  0.00    +0.295 HD
ENDBRANCH  15  16
ENDBRANCH  13  15
ENDBRANCH  12  13
ENDBRANCH   7  12
ENDBRANCH   2   7
BRANCH   3  18
ATOM     18  C   UNK A   1      34.158 -15.536 -22.568  0.00  0.00    +0.183 C 
BRANCH  18  20
ATOM     19  O   UNK A   1      32.662 -16.204 -20.782  0.00  0.00    -0.248 OA
ATOM     20  C   UNK A   1      33.787 -15.870 -21.134  0.00  0.00    +0.333 C 
BRANCH  20  21
ATOM     21  O   UNK A   1      34.822 -15.748 -20.269  0.00  0.00    -0.479 OA
ATOM     22  H   UNK A   1      34.925 -16.364 -19.571  0.00  0.00    +0.295 HD
ENDBRANCH  20  21
ENDBRANCH  18  20
BRANCH  18  23
ATOM     23  C   UNK A   1      35.303 -16.408 -23.092  0.00  0.00    +0.089 C 
BRANCH  23  24
ATOM     24  S   UNK A   1      34.883 -18.179 -23.211  0.00  0.00    -0.133 S 
BRANCH  24  25
ATOM     25  C   UNK A   1      35.851 -18.764 -21.802  0.00  0.00    +0.084 C 
BRANCH  25  27
ATOM     26  F   UNK A   1      32.966 -22.392 -18.603  0.00  0.00    -0.204 F 
ATOM     27  C   UNK A   1      35.080 -19.733 -20.947  0.00  0.00    -0.011 C 
ATOM     28  C   UNK A   1      33.691 -19.642 -20.871  0.00  0.00    -0.001 C 
ATOM     29  C   UNK A   1      35.756 -20.720 -20.231  0.00  0.00    -0.001 C 
ATOM     30  C   UNK A   1      32.976 -20.541 -20.079  0.00  0.00    +0.029 C 
ATOM     31  C   UNK A   1      35.041 -21.619 -19.439  0.00  0.00    +0.029 C 
ATOM     32  C   UNK A   1      33.652 -21.529 -19.363  0.00  0.00    +0.140 C 
ENDBRANCH  25  27
ENDBRANCH  24  25
ENDBRANCH  23  24
ENDBRANCH  18  23
ENDBRANCH   3  18
TORSDOF 14
ENDMDL
MODEL 4
REMARK VINA RESULT:      -8.7      1.565      2.672
REMARK  Name = 25113157
REMARK  14 active torsions:
REMARK  status: ('A' for Active; 'I' for Inactive)
REMARK    1  A    between atoms: N_2  and  C_7
REMARK    2  A    between atoms: N_3  and  C_18
REMARK    3  A    between atoms: C_7  and  C_9
REMARK    4  A    between atoms: C_7  and  C_12
REMARK    5  A    between atoms: C_9  and  O_10
REMARK    6  A    between atoms: C_12  and  C_13
REMARK    7  A    between atoms: C_13  and  C_15
REMARK    8  A    between atoms: C_15  and  O_16
REMARK    9  A    between atoms: C_18  and  C_20
REMARK   10  A    between atoms: C_18  and  C_23
REMARK   11  A    between atoms: C_20  and  O_21
REMARK   12  A    between atoms: C_23  and  S_24
REMARK   13  A    between atoms: S_24  and  C_25
REMARK   14  A    between atoms: C_25  and  C_27
REMARK                            x       y       z     vdW  Elec       q    Type
REMARK                         _______ _______ _______ _____ _____    ______ ____
ROOT
ATOM      1  O   UNK A   0      35.556 -23.861 -15.946  0.00  0.00    -0.253 OA
ATOM      2  N   UNK A   1      36.044 -25.186 -14.102  0.00  0.00    -0.281 N 
ATOM      3  N   UNK A   1      34.001 -24.134 -14.245  0.00  0.00    -0.280 N 
ATOM      4  C   UNK A   0      35.231 -24.349 -14.864  0.00  0.00    +0.301 C 
ATOM      5  H   UNK A   1      35.693 -25.527 -13.248  0.00  0.00    +0.151 HD
ATOM      6  H   UNK A   1      33.829 -24.567 -13.378  0.00  0.00    +0.151 HD
ENDROOT
BRANCH   2   7
ATOM      7  C   UNK A   1      37.373 -25.576 -14.502  0.00  0.00    +0.173 C 
BRANCH   7   9
ATOM      8  O   UNK A   1      37.866 -27.938 -14.834  0.00  0.00    -0.248 OA
ATOM      9  C   UNK A   1      37.269 -26.927 -15.179  0.00  0.00    +0.332 C 
BRANCH   9  10
ATOM     10  O   UNK A   1      36.390 -26.908 -16.215  0.00  0.00    -0.479 OA
ATOM     11  H   UNK A   1      36.411 -27.587 -16.860  0.00  0.00    +0.295 HD
ENDBRANCH   9  10
ENDBRANCH   7   9
BRANCH   7  12
ATOM     12  C   UNK A   1      38.374 -25.541 -13.341  0.00  0.00    +0.043 C 
BRANCH  12  13
ATOM     13  C   UNK A   1      39.773 -25.010 -13.681  0.00  0.00    +0.112 C 
BRANCH  13  15
ATOM     14  O   UNK A   1      40.639 -25.956 -15.754  0.00  0.00    -0.250 OA
ATOM     15  C   UNK A   1      40.594 -25.957 -14.531  0.00  0.00    +0.314 C 
BRANCH  15  16
ATOM     16  O   UNK A   1      41.262 -26.861 -13.769  0.00  0.00    -0.480 OA
ATOM     17  H   UNK A   1      40.789 -27.442 -13.206  0.00  0.00    +0.295 HD
ENDBRANCH  15  16
ENDBRANCH  13  15
ENDBRANCH  12  13
ENDBRANCH   7  12
ENDBRANCH   2   7
BRANCH   3  18
ATOM     18  C   UNK A   1      32.969 -23.304 -14.822  0.00  0.00    +0.183 C 
BRANCH  18  20
ATOM     19  O   UNK A   1      30.646 -23.022 -14.189  0.00  0.00    -0.248 OA
ATOM     20  C   UNK A   1      31.823 -23.070 -13.852  0.00  0.00    +0.333 C 
BRANCH  20  21
ATOM     21  O   UNK A   1      32.230 -22.903 -12.571  0.00  0.00    -0.479 OA
ATOM     22  H   UNK A   1      32.730 -22.147 -12.333  0.00  0.00    +0.295 HD
ENDBRANCH  20  21
ENDBRANCH  18  20
BRANCH  18  23
ATOM     23  C   UNK A   1      32.489 -23.842 -16.172  0.00  0.00    +0.089 C 
BRANCH  23  24
ATOM     24  S   UNK A   1      32.249 -22.549 -17.436  0.00  0.00    -0.133 S 
BRANCH  24  25
ATOM     25  C   UNK A   1      33.681 -22.932 -18.467  0.00  0.00    +0.084 C 
BRANCH  25  27
ATOM     26  F   UNK A   1      35.155 -18.600 -21.751  0.00  0.00    -0.204 F 
ATOM     27  C   UNK A   1      34.075 -21.775 -19.344  0.00  0.00    -0.011 C 
ATOM     28  C   UNK A   1      35.418 -21.556 -19.646  0.00  0.00    -0.001 C 
ATOM     29  C   UNK A   1      33.096 -20.923 -19.853  0.00  0.00    -0.001 C 
ATOM     30  C   UNK A   1      35.784 -20.483 -20.460  0.00  0.00    +0.029 C 
ATOM     31  C   UNK A   1      33.461 -19.850 -20.667  0.00  0.00    +0.029 C 
ATOM     32  C   UNK A   1      34.804 -19.630 -20.969  0.00  0.00    +0.140 C 
ENDBRANCH  25  27
ENDBRANCH  24  25
ENDBRANCH  23  24
ENDBRANCH  18  23
ENDBRANCH   3  18
TORSDOF 14
ENDMDL
MODEL 5
REMARK VINA RESULT:      -8.7      1.178      3.013
REMARK  Name = 25113157
REMARK  14 active torsions:
REMARK  status: ('A' for Active; 'I' for Inactive)
REMARK    1  A    between atoms: N_2  and  C_7
REMARK    2  A    between atoms: N_3  and  C_18
REMARK    3  A    between atoms: C_7  and  C_9
REMARK    4  A    between atoms: C_7  and  C_12
REMARK    5  A    between atoms: C_9  and  O_10
REMARK    6  A    between atoms: C_12  and  C_13
REMARK    7  A    between atoms: C_13  and  C_15
REMARK    8  A    between atoms: C_15  and  O_16
REMARK    9  A    between atoms: C_18  and  C_20
REMARK   10  A    between atoms: C_18  and  C_23
REMARK   11  A    between atoms: C_20  and  O_21
REMARK   12  A    between atoms: C_23  and  S_24
REMARK   13  A    between atoms: S_24  and  C_25
REMARK   14  A    between atoms: C_25  and  C_27
REMARK                            x       y       z     vdW  Elec       q    Type
REMARK                         _______ _______ _______ _____ _____    ______ ____
ROOT
ATOM      1  O   UNK A   0      33.932 -25.114 -14.408  0.00  0.00    -0.253 OA
ATOM      2  N   UNK A   1      35.177 -23.589 -13.178  0.00  0.00    -0.281 N 
ATOM      3  N   UNK A   1      33.338 -22.871 -14.362  0.00  0.00    -0.280 N 
ATOM      4  C   UNK A   0      34.131 -23.964 -14.019  0.00  0.00    +0.301 C 
ATOM      5  H   UNK A   1      35.253 -22.641 -12.920  0.00  0.00    +0.151 HD
ATOM      6  H   UNK A   1      33.574 -21.986 -14.002  0.00  0.00    +0.151 HD
ENDROOT
BRANCH   2   7
ATOM      7  C   UNK A   1      36.153 -24.517 -12.666  0.00  0.00    +0.173 C 
BRANCH   7   9
ATOM      8  O   UNK A   1      35.238 -25.159 -10.502  0.00  0.00    -0.248 OA
ATOM      9  C   UNK A   1      36.045 -24.510 -11.155  0.00  0.00    +0.332 C 
BRANCH   9  10
ATOM     10  O   UNK A   1      36.987 -23.715 -10.584  0.00  0.00    -0.479 OA
ATOM     11  H   UNK A   1      36.851 -23.373  -9.722  0.00  0.00    +0.295 HD
ENDBRANCH   9  10
ENDBRANCH   7   9
BRANCH   7  12
ATOM     12  C   UNK A   1      37.568 -24.236 -13.187  0.00  0.00    +0.043 C 
BRANCH  12  13
ATOM     13  C   UNK A   1      37.830 -24.618 -14.649  0.00  0.00    +0.112 C 
BRANCH  13  15
ATOM     14  O   UNK A   1      38.152 -27.033 -14.597  0.00  0.00    -0.250 OA
ATOM     15  C   UNK A   1      37.508 -26.062 -14.969  0.00  0.00    +0.314 C 
BRANCH  15  16
ATOM     16  O   UNK A   1      36.417 -26.164 -15.773  0.00  0.00    -0.480 OA
ATOM     17  H   UNK A   1      36.448 -25.837 -16.650  0.00  0.00    +0.295 HD
ENDBRANCH  15  16
ENDBRANCH  13  15
ENDBRANCH  12  13
ENDBRANCH   7  12
ENDBRANCH   2   7
BRANCH   3  18
ATOM     18  C   UNK A   1      32.185 -22.981 -15.225  0.00  0.00    +0.183 C 
BRANCH  18  20
ATOM     19  O   UNK A   1      30.763 -23.633 -13.373  0.00  0.00    -0.248 OA
ATOM     20  C   UNK A   1      31.049 -23.740 -14.559  0.00  0.00    +0.333 C 
BRANCH  20  21
ATOM     21  O   UNK A   1      30.388 -24.566 -15.405  0.00  0.00    -0.479 OA
ATOM     22  H   UNK A   1      30.684 -24.667 -16.289  0.00  0.00    +0.295 HD
ENDBRANCH  20  21
ENDBRANCH  18  20
BRANCH  18  23
ATOM     23  C   UNK A   1      32.548 -23.561 -16.595  0.00  0.00    +0.089 C 
BRANCH  23  24
ATOM     24  S   UNK A   1      34.093 -22.887 -17.292  0.00  0.00    -0.133 S 
BRANCH  24  25
ATOM     25  C   UNK A   1      33.477 -22.495 -18.944  0.00  0.00    +0.084 C 
BRANCH  25  27
ATOM     26  F   UNK A   1      36.550 -18.502 -21.461  0.00  0.00    -0.204 F 
ATOM     27  C   UNK A   1      34.298 -21.429 -19.617  0.00  0.00    -0.011 C 
ATOM     28  C   UNK A   1      33.666 -20.408 -20.325  0.00  0.00    -0.001 C 
ATOM     29  C   UNK A   1      35.689 -21.464 -19.531  0.00  0.00    -0.001 C 
ATOM     30  C   UNK A   1      34.427 -19.418 -20.948  0.00  0.00    +0.029 C 
ATOM     31  C   UNK A   1      36.450 -20.474 -20.155  0.00  0.00    +0.029 C 
ATOM     32  C   UNK A   1      35.819 -19.452 -20.863  0.00  0.00    +0.140 C 
ENDBRANCH  25  27
ENDBRANCH  24  25
ENDBRANCH  23  24
ENDBRANCH  18  23
ENDBRANCH   3  18
TORSDOF 14
ENDMDL
MODEL 6
REMARK VINA RESULT:      -8.5     10.655     14.050
REMARK  Name = 25113157
REMARK  14 active torsions:
REMARK  status: ('A' for Active; 'I' for Inactive)
REMARK    1  A    between atoms: N_2  and  C_7
REMARK    2  A    between atoms: N_3  and  C_18
REMARK    3  A    between atoms: C_7  and  C_9
REMARK    4  A    between atoms: C_7  and  C_12
REMARK    5  A    between atoms: C_9  and  O_10
REMARK    6  A    between atoms: C_12  and  C_13
REMARK    7  A    between atoms: C_13  and  C_15
REMARK    8  A    between atoms: C_15  and  O_16
REMARK    9  A    between atoms: C_18  and  C_20
REMARK   10  A    between atoms: C_18  and  C_23
REMARK   11  A    between atoms: C_20  and  O_21
REMARK   12  A    between atoms: C_23  and  S_24
REMARK   13  A    between atoms: S_24  and  C_25
REMARK   14  A    between atoms: C_25  and  C_27
REMARK                            x       y       z     vdW  Elec       q    Type
REMARK                         _______ _______ _______ _____ _____    ______ ____
ROOT
ATOM      1  O   UNK A   0      32.670 -13.443 -24.073  0.00  0.00    -0.253 OA
ATOM      2  N   UNK A   1      34.359 -14.097 -22.620  0.00  0.00    -0.281 N 
ATOM      3  N   UNK A   1      34.485 -12.053 -23.671  0.00  0.00    -0.280 N 
ATOM      4  C   UNK A   0      33.740 -13.219 -23.507  0.00  0.00    +0.301 C 
ATOM      5  H   UNK A   1      35.215 -13.827 -22.216  0.00  0.00    +0.151 HD
ATOM      6  H   UNK A   1      35.330 -11.961 -23.176  0.00  0.00    +0.151 HD
ENDROOT
BRANCH   2   7
ATOM      7  C   UNK A   1      33.809 -15.381 -22.264  0.00  0.00    +0.173 C 
BRANCH   7   9
ATOM      8  O   UNK A   1      32.572 -15.223 -20.172  0.00  0.00    -0.248 OA
ATOM      9  C   UNK A   1      33.630 -15.402 -20.760  0.00  0.00    +0.332 C 
BRANCH   9  10
ATOM     10  O   UNK A   1      34.792 -15.686 -20.116  0.00  0.00    -0.479 OA
ATOM     11  H   UNK A   1      34.833 -16.408 -19.519  0.00  0.00    +0.295 HD
ENDBRANCH   9  10
ENDBRANCH   7   9
BRANCH   7  12
ATOM     12  C   UNK A   1      34.640 -16.551 -22.806  0.00  0.00    +0.043 C 
BRANCH  12  13
ATOM     13  C   UNK A   1      35.189 -16.379 -24.227  0.00  0.00    +0.112 C 
BRANCH  13  15
ATOM     14  O   UNK A   1      33.779 -17.863 -25.549  0.00  0.00    -0.250 OA
ATOM     15  C   UNK A   1      34.197 -16.738 -25.312  0.00  0.00    +0.314 C 
BRANCH  15  16
ATOM     16  O   UNK A   1      33.841 -15.650 -26.044  0.00  0.00    -0.480 OA
ATOM     17  H   UNK A   1      32.996 -15.261 -25.927  0.00  0.00    +0.295 HD
ENDBRANCH  15  16
ENDBRANCH  13  15
ENDBRANCH  12  13
ENDBRANCH   7  12
ENDBRANCH   2   7
BRANCH   3  18
ATOM     18  C   UNK A   1      34.070 -10.974 -24.537  0.00  0.00    +0.183 C 
BRANCH  18  20
ATOM     19  O   UNK A   1      35.407 -10.687 -26.539  0.00  0.00    -0.248 OA
ATOM     20  C   UNK A   1      34.458 -11.228 -25.984  0.00  0.00    +0.333 C 
BRANCH  20  21
ATOM     21  O   UNK A   1      33.638 -12.104 -26.613  0.00  0.00    -0.479 OA
ATOM     22  H   UNK A   1      33.354 -11.934 -27.490  0.00  0.00    +0.295 HD
ENDBRANCH  20  21
ENDBRANCH  18  20
BRANCH  18  23
ATOM     23  C   UNK A   1      34.559  -9.614 -24.032  0.00  0.00    +0.089 C 
BRANCH  23  24
ATOM     24  S   UNK A   1      33.214  -8.458 -23.611  0.00  0.00    -0.133 S 
BRANCH  24  25
ATOM     25  C   UNK A   1      31.915  -9.677 -23.313  0.00  0.00    +0.084 C 
BRANCH  25  27
ATOM     26  F   UNK A   1      31.448 -10.989 -17.856  0.00  0.00    -0.204 F 
ATOM     27  C   UNK A   1      31.790 -10.028 -21.855  0.00  0.00    -0.011 C 
ATOM     28  C   UNK A   1      31.445 -11.325 -21.478  0.00  0.00    -0.001 C 
ATOM     29  C   UNK A   1      32.019  -9.055 -20.883  0.00  0.00    -0.001 C 
ATOM     30  C   UNK A   1      31.330 -11.650 -20.126  0.00  0.00    +0.029 C 
ATOM     31  C   UNK A   1      31.903  -9.380 -19.531  0.00  0.00    +0.029 C 
ATOM     32  C   UNK A   1      31.559 -10.677 -19.153  0.00  0.00    +0.140 C 
ENDBRANCH  25  27
ENDBRANCH  24  25
ENDBRANCH  23  24
ENDBRANCH  18  23
ENDBRANCH   3  18
TORSDOF 14
ENDMDL
MODEL 7
REMARK VINA RESULT:      -8.4      9.144     11.855
REMARK  Name = 25113157
REMARK  14 active torsions:
REMARK  status: ('A' for Active; 'I' for Inactive)
REMARK    1  A    between atoms: N_2  and  C_7
REMARK    2  A    between atoms: N_3  and  C_18
REMARK    3  A    between atoms: C_7  and  C_9
REMARK    4  A    between atoms: C_7  and  C_12
REMARK    5  A    between atoms: C_9  and  O_10
REMARK    6  A    between atoms: C_12  and  C_13
REMARK    7  A    between atoms: C_13  and  C_15
REMARK    8  A    between atoms: C_15  and  O_16
REMARK    9  A    between atoms: C_18  and  C_20
REMARK   10  A    between atoms: C_18  and  C_23
REMARK   11  A    between atoms: C_20  and  O_21
REMARK   12  A    between atoms: C_23  and  S_24
REMARK   13  A    between atoms: S_24  and  C_25
REMARK   14  A    between atoms: C_25  and  C_27
REMARK                            x       y       z     vdW  Elec       q    Type
REMARK                         _______ _______ _______ _____ _____    ______ ____
ROOT
ATOM      1  O   UNK A   0      33.376 -16.026 -21.899  0.00  0.00    -0.253 OA
ATOM      2  N   UNK A   1      34.695 -17.741 -22.742  0.00  0.00    -0.281 N 
ATOM      3  N   UNK A   1      34.040 -16.019 -24.122  0.00  0.00    -0.280 N 
ATOM      4  C   UNK A   0      33.981 -16.547 -22.835  0.00  0.00    +0.301 C 
ATOM      5  H   UNK A   1      35.148 -18.078 -23.549  0.00  0.00    +0.151 HD
ATOM      6  H   UNK A   1      34.550 -16.506 -24.808  0.00  0.00    +0.151 HD
ENDROOT
BRANCH   2   7
ATOM      7  C   UNK A   1      34.803 -18.506 -21.525  0.00  0.00    +0.173 C 
BRANCH   7   9
ATOM      8  O   UNK A   1      36.736 -19.333 -20.295  0.00  0.00    -0.248 OA
ATOM      9  C   UNK A   1      36.275 -18.760 -21.274  0.00  0.00    +0.332 C 
BRANCH   9  10
ATOM     10  O   UNK A   1      37.049 -18.309 -22.295  0.00  0.00    -0.479 OA
ATOM     11  H   UNK A   1      36.725 -17.642 -22.869  0.00  0.00    +0.295 HD
ENDBRANCH   9  10
ENDBRANCH   7   9
BRANCH   7  12
ATOM     12  C   UNK A   1      33.949 -19.779 -21.549  0.00  0.00    +0.043 C 
BRANCH  12  13
ATOM     13  C   UNK A   1      33.180 -20.092 -20.259  0.00  0.00    +0.112 C 
BRANCH  13  15
ATOM     14  O   UNK A   1      32.860 -22.318 -19.320  0.00  0.00    -0.250 OA
ATOM     15  C   UNK A   1      33.602 -21.385 -19.595  0.00  0.00    +0.314 C 
BRANCH  15  16
ATOM     16  O   UNK A   1      34.926 -21.381 -19.291  0.00  0.00    -0.480 OA
ATOM     17  H   UNK A   1      35.565 -21.375 -19.975  0.00  0.00    +0.295 HD
ENDBRANCH  15  16
ENDBRANCH  13  15
ENDBRANCH  12  13
ENDBRANCH   7  12
ENDBRANCH   2   7
BRANCH   3  18
ATOM     18  C   UNK A   1      33.386 -14.785 -24.493  0.00  0.00    +0.183 C 
BRANCH  18  20
ATOM     19  O   UNK A   1      33.061 -13.613 -26.590  0.00  0.00    -0.248 OA
ATOM     20  C   UNK A   1      33.191 -14.677 -25.995  0.00  0.00    +0.333 C 
BRANCH  20  21
ATOM     21  O   UNK A   1      33.158 -15.878 -26.620  0.00  0.00    -0.479 OA
ATOM     22  H   UNK A   1      33.941 -16.234 -26.992  0.00  0.00    +0.295 HD
ENDBRANCH  20  21
ENDBRANCH  18  20
BRANCH  18  23
ATOM     23  C   UNK A   1      34.096 -13.562 -23.907  0.00  0.00    +0.089 C 
BRANCH  23  24
ATOM     24  S   UNK A   1      32.960 -12.256 -23.333  0.00  0.00    -0.133 S 
BRANCH  24  25
ATOM     25  C   UNK A   1      33.669 -10.877 -24.259  0.00  0.00    +0.084 C 
BRANCH  25  27
ATOM     26  F   UNK A   1      32.515  -5.904 -21.882  0.00  0.00    -0.204 F 
ATOM     27  C   UNK A   1      33.361  -9.549 -23.624  0.00  0.00    -0.011 C 
ATOM     28  C   UNK A   1      34.283  -8.507 -23.708  0.00  0.00    -0.001 C 
ATOM     29  C   UNK A   1      32.154  -9.362 -22.952  0.00  0.00    -0.001 C 
ATOM     30  C   UNK A   1      33.997  -7.274 -23.119  0.00  0.00    +0.029 C 
ATOM     31  C   UNK A   1      31.868  -8.129 -22.363  0.00  0.00    +0.029 C 
ATOM     32  C   UNK A   1      32.789  -7.087 -22.446  0.00  0.00    +0.140 C 
ENDBRANCH  25  27
ENDBRANCH  24  25
ENDBRANCH  23  24
ENDBRANCH  18  23
ENDBRANCH   3  18
TORSDOF 14
ENDMDL
MODEL 8
REMARK VINA RESULT:      -8.4      2.381      5.634
REMARK  Name = 25113157
REMARK  14 active torsions:
REMARK  status: ('A' for Active; 'I' for Inactive)
REMARK    1  A    between atoms: N_2  and  C_7
REMARK    2  A    between atoms: N_3  and  C_18
REMARK    3  A    between atoms: C_7  and  C_9
REMARK    4  A    between atoms: C_7  and  C_12
REMARK    5  A    between atoms: C_9  and  O_10
REMARK    6  A    between atoms: C_12  and  C_13
REMARK    7  A    between atoms: C_13  and  C_15
REMARK    8  A    between atoms: C_15  and  O_16
REMARK    9  A    between atoms: C_18  and  C_20
REMARK   10  A    between atoms: C_18  and  C_23
REMARK   11  A    between atoms: C_20  and  O_21
REMARK   12  A    between atoms: C_23  and  S_24
REMARK   13  A    between atoms: S_24  and  C_25
REMARK   14  A    between atoms: C_25  and  C_27
REMARK                            x       y       z     vdW  Elec       q    Type
REMARK                         _______ _______ _______ _____ _____    ______ ____
ROOT
ATOM      1  O   UNK A   0      33.488 -24.782 -14.934  0.00  0.00    -0.253 OA
ATOM      2  N   UNK A   1      32.547 -22.782 -14.225  0.00  0.00    -0.281 N 
ATOM      3  N   UNK A   1      34.826 -23.079 -14.102  0.00  0.00    -0.280 N 
ATOM      4  C   UNK A   0      33.609 -23.652 -14.464  0.00  0.00    +0.301 C 
ATOM      5  H   UNK A   1      32.745 -21.895 -13.846  0.00  0.00    +0.151 HD
ATOM      6  H   UNK A   1      34.825 -22.167 -13.732  0.00  0.00    +0.151 HD
ENDROOT
BRANCH   2   7
ATOM      7  C   UNK A   1      31.172 -23.115 -14.506  0.00  0.00    +0.173 C 
BRANCH   7   9
ATOM      8  O   UNK A   1      30.625 -24.371 -12.493  0.00  0.00    -0.248 OA
ATOM      9  C   UNK A   1      30.827 -24.349 -13.700  0.00  0.00    +0.332 C 
BRANCH   9  10
ATOM     10  O   UNK A   1      30.723 -25.454 -14.484  0.00  0.00    -0.479 OA
ATOM     11  H   UNK A   1      30.450 -26.270 -14.111  0.00  0.00    +0.295 HD
ENDBRANCH   9  10
ENDBRANCH   7   9
BRANCH   7  12
ATOM     12  C   UNK A   1      30.893 -23.257 -16.007  0.00  0.00    +0.043 C 
BRANCH  12  13
ATOM     13  C   UNK A   1      29.614 -22.580 -16.516  0.00  0.00    +0.112 C 
BRANCH  13  15
ATOM     14  O   UNK A   1      27.269 -22.963 -15.974  0.00  0.00    -0.250 OA
ATOM     15  C   UNK A   1      28.362 -23.404 -16.303  0.00  0.00    +0.314 C 
BRANCH  15  16
ATOM     16  O   UNK A   1      28.600 -24.729 -16.482  0.00  0.00    -0.480 OA
ATOM     17  H   UNK A   1      27.887 -25.320 -16.622  0.00  0.00    +0.295 HD
ENDBRANCH  15  16
ENDBRANCH  13  15
ENDBRANCH  12  13
ENDBRANCH   7  12
ENDBRANCH   2   7
BRANCH   3  18
ATOM     18  C   UNK A   1      36.088 -23.766 -14.245  0.00  0.00    +0.183 C 
BRANCH  18  20
ATOM     19  O   UNK A   1      38.231 -23.748 -13.111  0.00  0.00    -0.248 OA
ATOM     20  C   UNK A   1      37.047 -23.431 -13.116  0.00  0.00    +0.333 C 
BRANCH  20  21
ATOM     21  O   UNK A   1      36.462 -22.756 -12.098  0.00  0.00    -0.479 OA
ATOM     22  H   UNK A   1      36.920 -22.057 -11.674  0.00  0.00    +0.295 HD
ENDBRANCH  20  21
ENDBRANCH  18  20
BRANCH  18  23
ATOM     23  C   UNK A   1      36.710 -23.539 -15.625  0.00  0.00    +0.089 C 
BRANCH  23  24
ATOM     24  S   UNK A   1      36.662 -21.801 -16.176  0.00  0.00    -0.133 S 
BRANCH  24  25
ATOM     25  C   UNK A   1      36.894 -22.089 -17.944  0.00  0.00    +0.084 C 
BRANCH  25  27
ATOM     26  F   UNK A   1      32.452 -20.406 -20.971  0.00  0.00    -0.204 F 
ATOM     27  C   UNK A   1      35.708 -21.640 -18.753  0.00  0.00    -0.011 C 
ATOM     28  C   UNK A   1      34.447 -22.178 -18.498  0.00  0.00    -0.001 C 
ATOM     29  C   UNK A   1      35.870 -20.686 -19.757  0.00  0.00    -0.001 C 
ATOM     30  C   UNK A   1      33.346 -21.761 -19.247  0.00  0.00    +0.029 C 
ATOM     31  C   UNK A   1      34.769 -20.269 -20.506  0.00  0.00    +0.029 C 
ATOM     32  C   UNK A   1      33.509 -20.807 -20.252  0.00  0.00    +0.140 C 
ENDBRANCH  25  27
ENDBRANCH  24  25
ENDBRANCH  23  24
ENDBRANCH  18  23
ENDBRANCH   3  18
TORSDOF 14
ENDMDL
MODEL 9
REMARK VINA RESULT:      -8.3      1.508      2.004
REMARK  Name = 25113157
REMARK  14 active torsions:
REMARK  status: ('A' for Active; 'I' for Inactive)
REMARK    1  A    between atoms: N_2  and  C_7
REMARK    2  A    between atoms: N_3  and  C_18
REMARK    3  A    between atoms: C_7  and  C_9
REMARK    4  A    between atoms: C_7  and  C_12
REMARK    5  A    between atoms: C_9  and  O_10
REMARK    6  A    between atoms: C_12  and  C_13
REMARK    7  A    between atoms: C_13  and  C_15
REMARK    8  A    between atoms: C_15  and  O_16
REMARK    9  A    between atoms: C_18  and  C_20
REMARK   10  A    between atoms: C_18  and  C_23
REMARK   11  A    between atoms: C_20  and  O_21
REMARK   12  A    between atoms: C_23  and  S_24
REMARK   13  A    between atoms: S_24  and  C_25
REMARK   14  A    between atoms: C_25  and  C_27
REMARK                            x       y       z     vdW  Elec       q    Type
REMARK                         _______ _______ _______ _____ _____    ______ ____
ROOT
ATOM      1  O   UNK A   0      34.796 -23.401 -14.493  0.00  0.00    -0.253 OA
ATOM      2  N   UNK A   1      35.194 -25.677 -14.262  0.00  0.00    -0.281 N 
ATOM      3  N   UNK A   1      33.050 -24.924 -14.629  0.00  0.00    -0.280 N 
ATOM      4  C   UNK A   0      34.385 -24.561 -14.464  0.00  0.00    +0.301 C 
ATOM      5  H   UNK A   1      34.771 -26.567 -14.256  0.00  0.00    +0.151 HD
ATOM      6  H   UNK A   1      32.814 -25.879 -14.590  0.00  0.00    +0.151 HD
ENDROOT
BRANCH   2   7
ATOM      7  C   UNK A   1      36.619 -25.596 -14.061  0.00  0.00    +0.173 C 
BRANCH   7   9
ATOM      8  O   UNK A   1      38.410 -27.038 -14.867  0.00  0.00    -0.248 OA
ATOM      9  C   UNK A   1      37.270 -26.606 -14.984  0.00  0.00    +0.332 C 
BRANCH   9  10
ATOM     10  O   UNK A   1      36.420 -27.024 -15.958  0.00  0.00    -0.479 OA
ATOM     11  H   UNK A   1      35.493 -26.971 -15.826  0.00  0.00    +0.295 HD
ENDBRANCH   9  10
ENDBRANCH   7   9
BRANCH   7  12
ATOM     12  C   UNK A   1      37.020 -25.752 -12.590  0.00  0.00    +0.043 C 
BRANCH  12  13
ATOM     13  C   UNK A   1      37.225 -24.447 -11.810  0.00  0.00    +0.112 C 
BRANCH  13  15
ATOM     14  O   UNK A   1      38.921 -22.709 -11.610  0.00  0.00    -0.250 OA
ATOM     15  C   UNK A   1      38.552 -23.774 -12.086  0.00  0.00    +0.314 C 
BRANCH  15  16
ATOM     16  O   UNK A   1      39.294 -24.480 -12.979  0.00  0.00    -0.480 OA
ATOM     17  H   UNK A   1      39.720 -24.039 -13.687  0.00  0.00    +0.295 HD
ENDBRANCH  15  16
ENDBRANCH  13  15
ENDBRANCH  12  13
ENDBRANCH   7  12
ENDBRANCH   2   7
BRANCH   3  18
ATOM     18  C   UNK A   1      31.999 -23.960 -14.854  0.00  0.00    +0.183 C 
BRANCH  18  20
ATOM     19  O   UNK A   1      29.851 -23.427 -13.865  0.00  0.00    -0.248 OA
ATOM     20  C   UNK A   1      30.867 -24.111 -13.852  0.00  0.00    +0.333 C 
BRANCH  20  21
ATOM     21  O   UNK A   1      31.096 -25.072 -12.926  0.00  0.00    -0.479 OA
ATOM     22  H   UNK A   1      30.382 -25.573 -12.584  0.00  0.00    +0.295 HD
ENDBRANCH  20  21
ENDBRANCH  18  20
BRANCH  18  23
ATOM     23  C   UNK A   1      31.502 -23.983 -16.303  0.00  0.00    +0.089 C 
BRANCH  23  24
ATOM     24  S   UNK A   1      31.930 -22.485 -17.251  0.00  0.00    -0.133 S 
BRANCH  24  25
ATOM     25  C   UNK A   1      33.494 -23.063 -17.945  0.00  0.00    +0.084 C 
BRANCH  25  27
ATOM     26  F   UNK A   1      35.795 -19.283 -21.430  0.00  0.00    -0.204 F 
ATOM     27  C   UNK A   1      34.108 -22.054 -18.877  0.00  0.00    -0.011 C 
ATOM     28  C   UNK A   1      33.290 -21.216 -19.634  0.00  0.00    -0.001 C 
ATOM     29  C   UNK A   1      35.495 -21.957 -18.981  0.00  0.00    -0.001 C 
ATOM     30  C   UNK A   1      33.860 -20.280 -20.497  0.00  0.00    +0.029 C 
ATOM     31  C   UNK A   1      36.065 -21.020 -19.844  0.00  0.00    +0.029 C 
ATOM     32  C   UNK A   1      35.248 -20.183 -20.602  0.00  0.00    +0.140 C 
ENDBRANCH  25  27
ENDBRANCH  24  25
ENDBRANCH  23  24
ENDBRANCH  18  23
ENDBRANCH   3  18
TORSDOF 14
ENDMDL
