MODEL 1
REMARK VINA RESULT:      -4.7      0.000      0.000
REMARK  Name = 17173
REMARK  5 active torsions:
REMARK  status: ('A' for Active; 'I' for Inactive)
REMARK    1  A    between atoms: P_1  and  S_3
REMARK    2  A    between atoms: P_1  and  O_5
REMARK    3  A    between atoms: P_1  and  O_8
REMARK    4  A    between atoms: O_5  and  C_6
REMARK    5  A    between atoms: O_8  and  C_9
REMARK                            x       y       z     vdW  Elec       q    Type
REMARK                         _______ _______ _______ _____ _____    ______ ____
ROOT
ATOM      1  P   UNL     1      35.055 -17.522 -21.452  0.00  0.00    +0.390 P 
ATOM      2  O   UNL     1      36.300 -18.363 -21.346  0.00  0.00    -0.246 OA
ENDROOT
BRANCH   1   3
ATOM      3  S   UNL     1      34.937 -16.646 -23.358  0.00  0.00    -0.058 S 
ATOM      4  H   UNL     1      34.529 -15.354 -23.238  0.00  0.00    +0.114 HD
ENDBRANCH   1   3
BRANCH   1   5
ATOM      5  O   UNL     1      35.002 -16.354 -20.321  0.00  0.00    -0.287 OA
BRANCH   5   6
ATOM      6  C   UNL     1      34.507 -15.076 -20.682  0.00  0.00    +0.152 C 
ATOM      7  C   UNL     1      33.018 -15.031 -20.417  0.00  0.00    +0.035 C 
ENDBRANCH   5   6
ENDBRANCH   1   5
BRANCH   1   8
ATOM      8  O   UNL     1      33.717 -18.392 -21.137  0.00  0.00    -0.287 OA
BRANCH   8   9
ATOM      9  C   UNL     1      33.750 -19.805 -21.232  0.00  0.00    +0.152 C 
ATOM     10  C   UNL     1      32.939 -20.394 -20.098  0.00  0.00    +0.035 C 
ENDBRANCH   8   9
ENDBRANCH   1   8
TORSDOF 5
ENDMDL
MODEL 2
REMARK VINA RESULT:      -4.6      2.459      3.914
REMARK  Name = 17173
REMARK  5 active torsions:
REMARK  status: ('A' for Active; 'I' for Inactive)
REMARK    1  A    between atoms: P_1  and  S_3
REMARK    2  A    between atoms: P_1  and  O_5
REMARK    3  A    between atoms: P_1  and  O_8
REMARK    4  A    between atoms: O_5  and  C_6
REMARK    5  A    between atoms: O_8  and  C_9
REMARK                            x       y       z     vdW  Elec       q    Type
REMARK                         _______ _______ _______ _____ _____    ______ ____
ROOT
ATOM      1  P   UNL     1      35.441 -18.682 -21.184  0.00  0.00    +0.390 P 
ATOM      2  O   UNL     1      36.539 -19.400 -20.444  0.00  0.00    -0.246 OA
ENDROOT
BRANCH   1   3
ATOM      3  S   UNL     1      33.635 -19.739 -20.998  0.00  0.00    -0.058 S 
ATOM      4  H   UNL     1      33.368 -20.389 -22.163  0.00  0.00    +0.114 HD
ENDBRANCH   1   3
BRANCH   1   5
ATOM      5  O   UNL     1      35.787 -18.487 -22.761  0.00  0.00    -0.287 OA
BRANCH   5   6
ATOM      6  C   UNL     1      34.945 -19.095 -23.726  0.00  0.00    +0.152 C 
ATOM      7  C   UNL     1      34.596 -18.077 -24.789  0.00  0.00    +0.035 C 
ENDBRANCH   5   6
ENDBRANCH   1   5
BRANCH   1   8
ATOM      8  O   UNL     1      35.267 -17.152 -20.661  0.00  0.00    -0.287 OA
BRANCH   8   9
ATOM      9  C   UNL     1      34.482 -16.233 -21.401  0.00  0.00    +0.152 C 
ATOM     10  C   UNL     1      34.419 -14.921 -20.649  0.00  0.00    +0.035 C 
ENDBRANCH   8   9
ENDBRANCH   1   8
TORSDOF 5
ENDMDL
MODEL 3
REMARK VINA RESULT:      -4.6      2.661      3.865
REMARK  Name = 17173
REMARK  5 active torsions:
REMARK  status: ('A' for Active; 'I' for Inactive)
REMARK    1  A    between atoms: P_1  and  S_3
REMARK    2  A    between atoms: P_1  and  O_5
REMARK    3  A    between atoms: P_1  and  O_8
REMARK    4  A    between atoms: O_5  and  C_6
REMARK    5  A    between atoms: O_8  and  C_9
REMARK                            x       y       z     vdW  Elec       q    Type
REMARK                         _______ _______ _______ _____ _____    ______ ____
ROOT
ATOM      1  P   UNL     1      35.058 -18.490 -21.642  0.00  0.00    +0.390 P 
ATOM      2  O   UNL     1      36.080 -18.802 -20.579  0.00  0.00    -0.246 OA
ENDROOT
BRANCH   1   3
ATOM      3  S   UNL     1      34.183 -16.616 -21.273  0.00  0.00    -0.058 S 
ATOM      4  H   UNL     1      34.509 -15.758 -22.276  0.00  0.00    +0.114 HD
ENDBRANCH   1   3
BRANCH   1   5
ATOM      5  O   UNL     1      33.891 -19.620 -21.723  0.00  0.00    -0.287 OA
BRANCH   5   6
ATOM      6  C   UNL     1      32.987 -19.747 -20.640  0.00  0.00    +0.152 C 
ATOM      7  C   UNL     1      33.348 -20.977 -19.837  0.00  0.00    +0.035 C 
ENDBRANCH   5   6
ENDBRANCH   1   5
BRANCH   1   8
ATOM      8  O   UNL     1      35.710 -18.536 -23.131  0.00  0.00    -0.287 OA
BRANCH   8   9
ATOM      9  C   UNL     1      34.911 -18.892 -24.245  0.00  0.00    +0.152 C 
ATOM     10  C   UNL     1      34.591 -17.644 -25.041  0.00  0.00    +0.035 C 
ENDBRANCH   8   9
ENDBRANCH   1   8
TORSDOF 5
ENDMDL
MODEL 4
REMARK VINA RESULT:      -4.5      2.566      2.731
REMARK  Name = 17173
REMARK  5 active torsions:
REMARK  status: ('A' for Active; 'I' for Inactive)
REMARK    1  A    between atoms: P_1  and  S_3
REMARK    2  A    between atoms: P_1  and  O_5
REMARK    3  A    between atoms: P_1  and  O_8
REMARK    4  A    between atoms: O_5  and  C_6
REMARK    5  A    between atoms: O_8  and  C_9
REMARK                            x       y       z     vdW  Elec       q    Type
REMARK                         _______ _______ _______ _____ _____    ______ ____
ROOT
ATOM      1  P   UNL     1      35.045 -19.125 -21.193  0.00  0.00    +0.390 P 
ATOM      2  O   UNL     1      35.277 -19.251 -22.677  0.00  0.00    -0.246 OA
ENDROOT
BRANCH   1   3
ATOM      3  S   UNL     1      33.145 -19.870 -20.695  0.00  0.00    -0.058 S 
ATOM      4  H   UNL     1      32.188 -19.081 -21.253  0.00  0.00    +0.114 HD
ENDBRANCH   1   3
BRANCH   1   5
ATOM      5  O   UNL     1      35.169 -17.588 -20.679  0.00  0.00    -0.287 OA
BRANCH   5   6
ATOM      6  C   UNL     1      34.639 -16.552 -21.488  0.00  0.00    +0.152 C 
ATOM      7  C   UNL     1      34.469 -15.306 -20.647  0.00  0.00    +0.035 C 
ENDBRANCH   5   6
ENDBRANCH   1   5
BRANCH   1   8
ATOM      8  O   UNL     1      36.201 -19.887 -20.340  0.00  0.00    -0.287 OA
BRANCH   8   9
ATOM      9  C   UNL     1      36.095 -21.276 -20.083  0.00  0.00    +0.152 C 
ATOM     10  C   UNL     1      36.396 -21.531 -18.621  0.00  0.00    +0.035 C 
ENDBRANCH   8   9
ENDBRANCH   1   8
TORSDOF 5
ENDMDL
MODEL 5
REMARK VINA RESULT:      -4.5      9.836     10.684
REMARK  Name = 17173
REMARK  5 active torsions:
REMARK  status: ('A' for Active; 'I' for Inactive)
REMARK    1  A    between atoms: P_1  and  S_3
REMARK    2  A    between atoms: P_1  and  O_5
REMARK    3  A    between atoms: P_1  and  O_8
REMARK    4  A    between atoms: O_5  and  C_6
REMARK    5  A    between atoms: O_8  and  C_9
REMARK                            x       y       z     vdW  Elec       q    Type
REMARK                         _______ _______ _______ _____ _____    ______ ____
ROOT
ATOM      1  P   UNL     1      38.818 -25.113 -14.602  0.00  0.00    +0.390 P 
ATOM      2  O   UNL     1      39.978 -25.902 -15.153  0.00  0.00    -0.246 OA
ENDROOT
BRANCH   1   3
ATOM      3  S   UNL     1      37.054 -26.248 -14.718  0.00  0.00    -0.058 S 
ATOM      4  H   UNL     1      37.335 -27.470 -15.247  0.00  0.00    +0.114 HD
ENDBRANCH   1   3
BRANCH   1   5
ATOM      5  O   UNL     1      38.603 -23.706 -15.387  0.00  0.00    -0.287 OA
BRANCH   5   6
ATOM      6  C   UNL     1      37.283 -23.230 -15.585  0.00  0.00    +0.152 C 
ATOM      7  C   UNL     1      37.333 -21.968 -16.419  0.00  0.00    +0.035 C 
ENDBRANCH   5   6
ENDBRANCH   1   5
BRANCH   1   8
ATOM      8  O   UNL     1      39.093 -24.635 -13.072  0.00  0.00    -0.287 OA
BRANCH   8   9
ATOM      9  C   UNL     1      38.031 -24.614 -12.134  0.00  0.00    +0.152 C 
ATOM     10  C   UNL     1      37.626 -23.177 -11.883  0.00  0.00    +0.035 C 
ENDBRANCH   8   9
ENDBRANCH   1   8
TORSDOF 5
ENDMDL
MODEL 6
REMARK VINA RESULT:      -4.5      3.287      4.372
REMARK  Name = 17173
REMARK  5 active torsions:
REMARK  status: ('A' for Active; 'I' for Inactive)
REMARK    1  A    between atoms: P_1  and  S_3
REMARK    2  A    between atoms: P_1  and  O_5
REMARK    3  A    between atoms: P_1  and  O_8
REMARK    4  A    between atoms: O_5  and  C_6
REMARK    5  A    between atoms: O_8  and  C_9
REMARK                            x       y       z     vdW  Elec       q    Type
REMARK                         _______ _______ _______ _____ _____    ______ ____
ROOT
ATOM      1  P   UNL     1      35.296 -18.736 -21.159  0.00  0.00    +0.390 P 
ATOM      2  O   UNL     1      35.233 -17.325 -20.635  0.00  0.00    -0.246 OA
ENDROOT
BRANCH   1   3
ATOM      3  S   UNL     1      33.416 -19.656 -20.977  0.00  0.00    -0.058 S 
ATOM      4  H   UNL     1      33.322 -20.676 -21.872  0.00  0.00    +0.114 HD
ENDBRANCH   1   3
BRANCH   1   5
ATOM      5  O   UNL     1      36.408 -19.632 -20.382  0.00  0.00    -0.287 OA
BRANCH   5   6
ATOM      6  C   UNL     1      36.166 -21.017 -20.203  0.00  0.00    +0.152 C 
ATOM      7  C   UNL     1      36.452 -21.387 -18.765  0.00  0.00    +0.035 C 
ENDBRANCH   5   6
ENDBRANCH   1   5
BRANCH   1   8
ATOM      8  O   UNL     1      35.809 -18.779 -22.702  0.00  0.00    -0.287 OA
BRANCH   8   9
ATOM      9  C   UNL     1      34.911 -19.132 -23.739  0.00  0.00    +0.152 C 
ATOM     10  C   UNL     1      34.689 -17.927 -24.629  0.00  0.00    +0.035 C 
ENDBRANCH   8   9
ENDBRANCH   1   8
TORSDOF 5
ENDMDL
MODEL 7
REMARK VINA RESULT:      -4.4      1.927      4.320
REMARK  Name = 17173
REMARK  5 active torsions:
REMARK  status: ('A' for Active; 'I' for Inactive)
REMARK    1  A    between atoms: P_1  and  S_3
REMARK    2  A    between atoms: P_1  and  O_5
REMARK    3  A    between atoms: P_1  and  O_8
REMARK    4  A    between atoms: O_5  and  C_6
REMARK    5  A    between atoms: O_8  and  C_9
REMARK                            x       y       z     vdW  Elec       q    Type
REMARK                         _______ _______ _______ _____ _____    ______ ____
ROOT
ATOM      1  P   UNL     1      34.775 -18.744 -21.239  0.00  0.00    +0.390 P 
ATOM      2  O   UNL     1      33.355 -19.092 -20.875  0.00  0.00    -0.246 OA
ENDROOT
BRANCH   1   3
ATOM      3  S   UNL     1      35.060 -18.948 -23.310  0.00  0.00    -0.058 S 
ATOM      4  H   UNL     1      34.038 -19.674 -23.839  0.00  0.00    +0.114 HD
ENDBRANCH   1   3
BRANCH   1   5
ATOM      5  O   UNL     1      35.856 -19.673 -20.455  0.00  0.00    -0.287 OA
BRANCH   5   6
ATOM      6  C   UNL     1      35.459 -20.962 -20.018  0.00  0.00    +0.152 C 
ATOM      7  C   UNL     1      36.414 -21.434 -18.944  0.00  0.00    +0.035 C 
ENDBRANCH   5   6
ENDBRANCH   1   5
BRANCH   1   8
ATOM      8  O   UNL     1      35.167 -17.243 -20.751  0.00  0.00    -0.287 OA
BRANCH   8   9
ATOM      9  C   UNL     1      34.727 -16.119 -21.491  0.00  0.00    +0.152 C 
ATOM     10  C   UNL     1      34.325 -15.022 -20.528  0.00  0.00    +0.035 C 
ENDBRANCH   8   9
ENDBRANCH   1   8
TORSDOF 5
ENDMDL
MODEL 8
REMARK VINA RESULT:      -4.4     10.201     11.294
REMARK  Name = 17173
REMARK  5 active torsions:
REMARK  status: ('A' for Active; 'I' for Inactive)
REMARK    1  A    between atoms: P_1  and  S_3
REMARK    2  A    between atoms: P_1  and  O_5
REMARK    3  A    between atoms: P_1  and  O_8
REMARK    4  A    between atoms: O_5  and  C_6
REMARK    5  A    between atoms: O_8  and  C_9
REMARK                            x       y       z     vdW  Elec       q    Type
REMARK                         _______ _______ _______ _____ _____    ______ ____
ROOT
ATOM      1  P   UNL     1      37.678 -23.889 -12.629  0.00  0.00    +0.390 P 
ATOM      2  O   UNL     1      38.319 -22.993 -11.601  0.00  0.00    -0.246 OA
ENDROOT
BRANCH   1   3
ATOM      3  S   UNL     1      35.655 -24.199 -12.155  0.00  0.00    -0.058 S 
ATOM      4  H   UNL     1      34.952 -24.432 -13.296  0.00  0.00    +0.114 HD
ENDBRANCH   1   3
BRANCH   1   5
ATOM      5  O   UNL     1      38.428 -25.328 -12.743  0.00  0.00    -0.287 OA
BRANCH   5   6
ATOM      6  C   UNL     1      38.784 -25.812 -14.027  0.00  0.00    +0.152 C 
ATOM      7  C   UNL     1      40.288 -25.746 -14.179  0.00  0.00    +0.035 C 
ENDBRANCH   5   6
ENDBRANCH   1   5
BRANCH   1   8
ATOM      8  O   UNL     1      37.829 -23.282 -14.130  0.00  0.00    -0.287 OA
BRANCH   8   9
ATOM      9  C   UNL     1      36.674 -23.000 -14.900  0.00  0.00    +0.152 C 
ATOM     10  C   UNL     1      37.096 -22.340 -16.196  0.00  0.00    +0.035 C 
ENDBRANCH   8   9
ENDBRANCH   1   8
TORSDOF 5
ENDMDL
MODEL 9
REMARK VINA RESULT:      -4.4      2.645      3.129
REMARK  Name = 17173
REMARK  5 active torsions:
REMARK  status: ('A' for Active; 'I' for Inactive)
REMARK    1  A    between atoms: P_1  and  S_3
REMARK    2  A    between atoms: P_1  and  O_5
REMARK    3  A    between atoms: P_1  and  O_8
REMARK    4  A    between atoms: O_5  and  C_6
REMARK    5  A    between atoms: O_8  and  C_9
REMARK                            x       y       z     vdW  Elec       q    Type
REMARK                         _______ _______ _______ _____ _____    ______ ____
ROOT
ATOM      1  P   UNL     1      35.059 -18.974 -21.354  0.00  0.00    +0.390 P 
ATOM      2  O   UNL     1      33.615 -19.406 -21.347  0.00  0.00    -0.246 OA
ENDROOT
BRANCH   1   3
ATOM      3  S   UNL     1      36.232 -20.363 -20.301  0.00  0.00    -0.058 S 
ATOM      4  H   UNL     1      37.546 -20.147 -20.578  0.00  0.00    +0.114 HD
ENDBRANCH   1   3
BRANCH   1   5
ATOM      5  O   UNL     1      35.262 -17.498 -20.702  0.00  0.00    -0.287 OA
BRANCH   5   6
ATOM      6  C   UNL     1      34.849 -16.362 -21.442  0.00  0.00    +0.152 C 
ATOM      7  C   UNL     1      34.376 -15.293 -20.482  0.00  0.00    +0.035 C 
ENDBRANCH   5   6
ENDBRANCH   1   5
BRANCH   1   8
ATOM      8  O   UNL     1      35.618 -18.781 -22.868  0.00  0.00    -0.287 OA
BRANCH   8   9
ATOM      9  C   UNL     1      34.821 -19.166 -23.974  0.00  0.00    +0.152 C 
ATOM     10  C   UNL     1      34.579 -17.956 -24.852  0.00  0.00    +0.035 C 
ENDBRANCH   8   9
ENDBRANCH   1   8
TORSDOF 5
ENDMDL
