MODEL 1
REMARK VINA RESULT:      -7.0      0.000      0.000
REMARK  Name = 1923
REMARK  1 active torsions:
REMARK  status: ('A' for Active; 'I' for Inactive)
REMARK    1  A    between atoms: C_4  and  O_11
REMARK                            x       y       z     vdW  Elec       q    Type
REMARK                         _______ _______ _______ _____ _____    ______ ____
ROOT
ATOM      1  N   UNL     1      34.418 -15.130 -23.473  0.00  0.00    -0.241 NA
ATOM      2  C   UNL     1      34.681 -17.237 -22.333  0.00  0.00    +0.021 C 
ATOM      3  C   UNL     1      34.552 -16.470 -23.509  0.00  0.00    +0.115 C 
ATOM      4  C   UNL     1      34.564 -17.137 -24.732  0.00  0.00    +0.151 C 
ATOM      5  C   UNL     1      34.819 -18.634 -22.409  0.00  0.00    +0.002 C 
ATOM      6  C   UNL     1      34.668 -16.567 -21.102  0.00  0.00    +0.003 C 
ATOM      7  C   UNL     1      34.701 -18.526 -24.807  0.00  0.00    +0.038 C 
ATOM      8  C   UNL     1      34.828 -19.275 -23.643  0.00  0.00    +0.003 C 
ATOM      9  C   UNL     1      34.531 -15.187 -21.062  0.00  0.00    +0.021 C 
ATOM     10  C   UNL     1      34.411 -14.521 -22.265  0.00  0.00    +0.099 C 
ENDROOT
BRANCH   4  11
ATOM     11  O   UNL     1      34.442 -16.434 -25.897  0.00  0.00    -0.504 OA
ATOM     12  H   UNL     1      35.181 -15.980 -26.251  0.00  0.00    +0.292 HD
ENDBRANCH   4  11
TORSDOF 1
ENDMDL
MODEL 2
REMARK VINA RESULT:      -6.9      4.453      5.529
REMARK  Name = 1923
REMARK  1 active torsions:
REMARK  status: ('A' for Active; 'I' for Inactive)
REMARK    1  A    between atoms: C_4  and  O_11
REMARK                            x       y       z     vdW  Elec       q    Type
REMARK                         _______ _______ _______ _____ _____    ______ ____
ROOT
ATOM      1  N   UNL     1      36.576 -19.638 -20.552  0.00  0.00    -0.241 NA
ATOM      2  C   UNL     1      34.205 -20.068 -20.578  0.00  0.00    +0.021 C 
ATOM      3  C   UNL     1      35.512 -20.351 -20.133  0.00  0.00    +0.115 C 
ATOM      4  C   UNL     1      35.686 -21.402 -19.236  0.00  0.00    +0.151 C 
ATOM      5  C   UNL     1      33.118 -20.832 -20.121  0.00  0.00    +0.002 C 
ATOM      6  C   UNL     1      34.029 -19.010 -21.481  0.00  0.00    +0.003 C 
ATOM      7  C   UNL     1      34.606 -22.162 -18.781  0.00  0.00    +0.038 C 
ATOM      8  C   UNL     1      33.319 -21.877 -19.224  0.00  0.00    +0.003 C 
ATOM      9  C   UNL     1      35.123 -18.274 -21.914  0.00  0.00    +0.021 C 
ATOM     10  C   UNL     1      36.364 -18.626 -21.423  0.00  0.00    +0.099 C 
ENDROOT
BRANCH   4  11
ATOM     11  O   UNL     1      36.935 -21.713 -18.778  0.00  0.00    -0.504 OA
ATOM     12  H   UNL     1      37.593 -21.048 -18.723  0.00  0.00    +0.292 HD
ENDBRANCH   4  11
TORSDOF 1
ENDMDL
MODEL 3
REMARK VINA RESULT:      -6.7      1.694      3.474
REMARK  Name = 1923
REMARK  1 active torsions:
REMARK  status: ('A' for Active; 'I' for Inactive)
REMARK    1  A    between atoms: C_4  and  O_11
REMARK                            x       y       z     vdW  Elec       q    Type
REMARK                         _______ _______ _______ _____ _____    ______ ____
ROOT
ATOM      1  N   UNL     1      34.208 -17.641 -25.453  0.00  0.00    -0.241 NA
ATOM      2  C   UNL     1      34.613 -16.247 -23.529  0.00  0.00    +0.021 C 
ATOM      3  C   UNL     1      34.127 -16.446 -24.837  0.00  0.00    +0.115 C 
ATOM      4  C   UNL     1      33.550 -15.361 -25.493  0.00  0.00    +0.151 C 
ATOM      5  C   UNL     1      34.512 -14.986 -22.918  0.00  0.00    +0.002 C 
ATOM      6  C   UNL     1      35.194 -17.338 -22.868  0.00  0.00    +0.003 C 
ATOM      7  C   UNL     1      33.449 -14.107 -24.886  0.00  0.00    +0.038 C 
ATOM      8  C   UNL     1      33.931 -13.919 -23.596  0.00  0.00    +0.003 C 
ATOM      9  C   UNL     1      35.279 -18.571 -23.499  0.00  0.00    +0.021 C 
ATOM     10  C   UNL     1      34.775 -18.669 -24.780  0.00  0.00    +0.099 C 
ENDROOT
BRANCH   4  11
ATOM     11  O   UNL     1      33.064 -15.507 -26.763  0.00  0.00    -0.504 OA
ATOM     12  H   UNL     1      33.531 -16.029 -27.386  0.00  0.00    +0.292 HD
ENDBRANCH   4  11
TORSDOF 1
ENDMDL
MODEL 4
REMARK VINA RESULT:      -6.7      4.112      5.194
REMARK  Name = 1923
REMARK  1 active torsions:
REMARK  status: ('A' for Active; 'I' for Inactive)
REMARK    1  A    between atoms: C_4  and  O_11
REMARK                            x       y       z     vdW  Elec       q    Type
REMARK                         _______ _______ _______ _____ _____    ______ ____
ROOT
ATOM      1  N   UNL     1      33.872 -19.488 -21.429  0.00  0.00    -0.241 NA
ATOM      2  C   UNL     1      35.997 -20.002 -20.414  0.00  0.00    +0.021 C 
ATOM      3  C   UNL     1      34.613 -20.222 -20.577  0.00  0.00    +0.115 C 
ATOM      4  C   UNL     1      34.017 -21.231 -19.825  0.00  0.00    +0.151 C 
ATOM      5  C   UNL     1      36.739 -20.788 -19.516  0.00  0.00    +0.002 C 
ATOM      6  C   UNL     1      36.598 -18.987 -21.170  0.00  0.00    +0.003 C 
ATOM      7  C   UNL     1      34.755 -22.012 -18.932  0.00  0.00    +0.038 C 
ATOM      8  C   UNL     1      36.119 -21.790 -18.777  0.00  0.00    +0.003 C 
ATOM      9  C   UNL     1      35.837 -18.229 -22.049  0.00  0.00    +0.021 C 
ATOM     10  C   UNL     1      34.490 -18.517 -22.140  0.00  0.00    +0.099 C 
ENDROOT
BRANCH   4  11
ATOM     11  O   UNL     1      32.679 -21.480 -19.950  0.00  0.00    -0.504 OA
ATOM     12  H   UNL     1      32.358 -22.358 -19.884  0.00  0.00    +0.292 HD
ENDBRANCH   4  11
TORSDOF 1
ENDMDL
MODEL 5
REMARK VINA RESULT:      -6.7      7.749      9.159
REMARK  Name = 1923
REMARK  1 active torsions:
REMARK  status: ('A' for Active; 'I' for Inactive)
REMARK    1  A    between atoms: C_4  and  O_11
REMARK                            x       y       z     vdW  Elec       q    Type
REMARK                         _______ _______ _______ _____ _____    ______ ____
ROOT
ATOM      1  N   UNL     1      32.139  -9.584 -19.197  0.00  0.00    -0.241 NA
ATOM      2  C   UNL     1      31.750  -9.638 -21.575  0.00  0.00    +0.021 C 
ATOM      3  C   UNL     1      32.190  -8.988 -20.404  0.00  0.00    +0.115 C 
ATOM      4  C   UNL     1      32.687  -7.692 -20.522  0.00  0.00    +0.151 C 
ATOM      5  C   UNL     1      31.817  -8.986 -22.818  0.00  0.00    +0.002 C 
ATOM      6  C   UNL     1      31.249 -10.942 -21.458  0.00  0.00    +0.003 C 
ATOM      7  C   UNL     1      32.755  -7.043 -21.758  0.00  0.00    +0.038 C 
ATOM      8  C   UNL     1      32.319  -7.691 -22.908  0.00  0.00    +0.003 C 
ATOM      9  C   UNL     1      31.195 -11.559 -20.215  0.00  0.00    +0.021 C 
ATOM     10  C   UNL     1      31.649 -10.843 -19.127  0.00  0.00    +0.099 C 
ENDROOT
BRANCH   4  11
ATOM     11  O   UNL     1      33.125  -7.023 -19.414  0.00  0.00    -0.504 OA
ATOM     12  H   UNL     1      32.806  -7.260 -18.566  0.00  0.00    +0.292 HD
ENDBRANCH   4  11
TORSDOF 1
ENDMDL
MODEL 6
REMARK VINA RESULT:      -6.7      1.270      3.371
REMARK  Name = 1923
REMARK  1 active torsions:
REMARK  status: ('A' for Active; 'I' for Inactive)
REMARK    1  A    between atoms: C_4  and  O_11
REMARK                            x       y       z     vdW  Elec       q    Type
REMARK                         _______ _______ _______ _____ _____    ______ ____
ROOT
ATOM      1  N   UNL     1      34.389 -16.459 -24.712  0.00  0.00    -0.241 NA
ATOM      2  C   UNL     1      34.705 -17.285 -22.470  0.00  0.00    +0.021 C 
ATOM      3  C   UNL     1      34.477 -16.238 -23.386  0.00  0.00    +0.115 C 
ATOM      4  C   UNL     1      34.342 -14.946 -22.884  0.00  0.00    +0.151 C 
ATOM      5  C   UNL     1      34.791 -17.018 -21.093  0.00  0.00    +0.002 C 
ATOM      6  C   UNL     1      34.841 -18.586 -22.974  0.00  0.00    +0.003 C 
ATOM      7  C   UNL     1      34.428 -14.680 -21.515  0.00  0.00    +0.038 C 
ATOM      8  C   UNL     1      34.653 -15.718 -20.618  0.00  0.00    +0.003 C 
ATOM      9  C   UNL     1      34.751 -18.817 -24.340  0.00  0.00    +0.021 C 
ATOM     10  C   UNL     1      34.526 -17.729 -25.158  0.00  0.00    +0.099 C 
ENDROOT
BRANCH   4  11
ATOM     11  O   UNL     1      34.120 -13.900 -23.734  0.00  0.00    -0.504 OA
ATOM     12  H   UNL     1      33.455 -13.269 -23.538  0.00  0.00    +0.292 HD
ENDBRANCH   4  11
TORSDOF 1
ENDMDL
MODEL 7
REMARK VINA RESULT:      -6.7      1.956      3.065
REMARK  Name = 1923
REMARK  1 active torsions:
REMARK  status: ('A' for Active; 'I' for Inactive)
REMARK    1  A    between atoms: C_4  and  O_11
REMARK                            x       y       z     vdW  Elec       q    Type
REMARK                         _______ _______ _______ _____ _____    ______ ____
ROOT
ATOM      1  N   UNL     1      34.146 -15.249 -23.082  0.00  0.00    -0.241 NA
ATOM      2  C   UNL     1      34.736 -17.491 -23.738  0.00  0.00    +0.021 C 
ATOM      3  C   UNL     1      34.612 -16.473 -22.771  0.00  0.00    +0.115 C 
ATOM      4  C   UNL     1      34.988 -16.765 -21.462  0.00  0.00    +0.151 C 
ATOM      5  C   UNL     1      35.226 -18.758 -23.378  0.00  0.00    +0.002 C 
ATOM      6  C   UNL     1      34.358 -17.199 -25.056  0.00  0.00    +0.003 C 
ATOM      7  C   UNL     1      35.476 -18.024 -21.103  0.00  0.00    +0.038 C 
ATOM      8  C   UNL     1      35.595 -19.023 -22.063  0.00  0.00    +0.003 C 
ATOM      9  C   UNL     1      33.878 -15.938 -25.380  0.00  0.00    +0.021 C 
ATOM     10  C   UNL     1      33.792 -15.007 -24.365  0.00  0.00    +0.099 C 
ENDROOT
BRANCH   4  11
ATOM     11  O   UNL     1      34.886 -15.809 -20.490  0.00  0.00    -0.504 OA
ATOM     12  H   UNL     1      35.644 -15.553 -20.003  0.00  0.00    +0.292 HD
ENDBRANCH   4  11
TORSDOF 1
ENDMDL
MODEL 8
REMARK VINA RESULT:      -6.6      2.099      2.712
REMARK  Name = 1923
REMARK  1 active torsions:
REMARK  status: ('A' for Active; 'I' for Inactive)
REMARK    1  A    between atoms: C_4  and  O_11
REMARK                            x       y       z     vdW  Elec       q    Type
REMARK                         _______ _______ _______ _____ _____    ______ ____
ROOT
ATOM      1  N   UNL     1      34.886 -16.195 -20.720  0.00  0.00    -0.241 NA
ATOM      2  C   UNL     1      34.625 -16.394 -23.108  0.00  0.00    +0.021 C 
ATOM      3  C   UNL     1      34.906 -16.943 -21.840  0.00  0.00    +0.115 C 
ATOM      4  C   UNL     1      35.210 -18.301 -21.768  0.00  0.00    +0.151 C 
ATOM      5  C   UNL     1      34.654 -17.204 -24.256  0.00  0.00    +0.002 C 
ATOM      6  C   UNL     1      34.319 -15.028 -23.182  0.00  0.00    +0.003 C 
ATOM      7  C   UNL     1      35.239 -19.107 -22.908  0.00  0.00    +0.038 C 
ATOM      8  C   UNL     1      34.961 -18.557 -24.155  0.00  0.00    +0.003 C 
ATOM      9  C   UNL     1      34.298 -14.255 -22.030  0.00  0.00    +0.021 C 
ATOM     10  C   UNL     1      34.587 -14.882 -20.835  0.00  0.00    +0.099 C 
ENDROOT
BRANCH   4  11
ATOM     11  O   UNL     1      35.489 -18.877 -20.560  0.00  0.00    -0.504 OA
ATOM     12  H   UNL     1      35.290 -18.421 -19.766  0.00  0.00    +0.292 HD
ENDBRANCH   4  11
TORSDOF 1
ENDMDL
MODEL 9
REMARK VINA RESULT:      -6.6      2.263      3.918
REMARK  Name = 1923
REMARK  1 active torsions:
REMARK  status: ('A' for Active; 'I' for Inactive)
REMARK    1  A    between atoms: C_4  and  O_11
REMARK                            x       y       z     vdW  Elec       q    Type
REMARK                         _______ _______ _______ _____ _____    ______ ____
ROOT
ATOM      1  N   UNL     1      35.201 -17.647 -20.843  0.00  0.00    -0.241 NA
ATOM      2  C   UNL     1      34.671 -17.142 -23.139  0.00  0.00    +0.021 C 
ATOM      3  C   UNL     1      34.868 -16.756 -21.797  0.00  0.00    +0.115 C 
ATOM      4  C   UNL     1      34.708 -15.411 -21.471  0.00  0.00    +0.151 C 
ATOM      5  C   UNL     1      34.325 -16.185 -24.109  0.00  0.00    +0.002 C 
ATOM      6  C   UNL     1      34.832 -18.495 -23.468  0.00  0.00    +0.003 C 
ATOM      7  C   UNL     1      34.364 -14.461 -22.435  0.00  0.00    +0.038 C 
ATOM      8  C   UNL     1      34.172 -14.848 -23.756  0.00  0.00    +0.003 C 
ATOM      9  C   UNL     1      35.175 -19.415 -22.487  0.00  0.00    +0.021 C 
ATOM     10  C   UNL     1      35.346 -18.943 -21.201  0.00  0.00    +0.099 C 
ENDROOT
BRANCH   4  11
ATOM     11  O   UNL     1      34.889 -14.992 -20.183  0.00  0.00    -0.504 OA
ATOM     12  H   UNL     1      35.090 -15.614 -19.512  0.00  0.00    +0.292 HD
ENDBRANCH   4  11
TORSDOF 1
ENDMDL
