MODEL 1
REMARK VINA RESULT:     -12.7      0.000      0.000
REMARK  Name = 448202
REMARK  4 active torsions:
REMARK  status: ('A' for Active; 'I' for Inactive)
REMARK    1  A    between atoms: C_3  and  C_20
REMARK    2  A    between atoms: C_8  and  C_31
REMARK    3  A    between atoms: C_14  and  N_23
REMARK    4  A    between atoms: C_34  and  N_37
REMARK                            x       y       z     vdW  Elec       q    Type
REMARK                         _______ _______ _______ _____ _____    ______ ____
ROOT
ATOM      1  N   UNL     1      34.397 -16.071 -21.567  0.00  0.00    -0.315 N 
ATOM      2  N   UNL     1      34.058 -17.250 -23.421  0.00  0.00    -0.315 N 
ATOM      3  C   UNL     1      33.851 -13.116 -23.756  0.00  0.00    +0.016 C 
ATOM      4  C   UNL     1      34.165 -15.146 -22.552  0.00  0.00    +0.059 C 
ATOM      5  C   UNL     1      34.122 -13.751 -22.538  0.00  0.00    +0.015 C 
ATOM      6  C   UNL     1      33.956 -15.906 -23.700  0.00  0.00    +0.059 C 
ATOM      7  C   UNL     1      33.636 -13.853 -24.924  0.00  0.00    +0.000 C 
ATOM      8  C   UNL     1      34.324 -17.313 -22.135  0.00  0.00    +0.168 C 
ATOM      9  C   UNL     1      33.686 -15.253 -24.914  0.00  0.00    +0.015 C 
ATOM     10  H   UNL     1      34.585 -15.876 -20.620  0.00  0.00    +0.149 HD
ATOM     11  H   UNL     1      33.955 -18.001 -24.049  0.00  0.00    +0.149 HD
ENDROOT
BRANCH   3  20
ATOM     12  N   UNL     1      32.702 -10.980 -23.362  0.00  0.00    -0.314 N 
ATOM     13  N   UNL     1      34.731 -10.878 -24.259  0.00  0.00    -0.315 N 
ATOM     14  C   UNL     1      32.772  -7.245 -23.588  0.00  0.00    +0.049 C 
ATOM     15  C   UNL     1      32.203  -8.501 -23.271  0.00  0.00    +0.030 C 
ATOM     16  C   UNL     1      32.955  -9.644 -23.543  0.00  0.00    +0.061 C 
ATOM     17  C   UNL     1      34.064  -7.203 -24.158  0.00  0.00    +0.016 C 
ATOM     18  C   UNL     1      34.228  -9.607 -24.104  0.00  0.00    +0.059 C 
ATOM     19  C   UNL     1      34.801  -8.364 -24.421  0.00  0.00    +0.017 C 
ATOM     20  C   UNL     1      33.792 -11.676 -23.804  0.00  0.00    +0.168 C 
ATOM     21  H   UNL     1      31.880 -11.368 -22.980  0.00  0.00    +0.149 HD
ATOM     22  H   UNL     1      35.606 -11.135 -24.630  0.00  0.00    +0.149 HD
BRANCH  14  23
ATOM     23  N   UNL     1      32.065  -6.064 -23.339  0.00  0.00    -0.312 N 
ATOM     24  N   UNL     1      30.451  -3.730 -23.012  0.00  0.00    +0.388 N 
ATOM     25  C   UNL     1      30.940  -6.075 -22.398  0.00  0.00    +0.068 C 
ATOM     26  C   UNL     1      31.983  -5.069 -24.416  0.00  0.00    +0.068 C 
ATOM     27  C   UNL     1      30.648  -4.659 -21.893  0.00  0.00    -0.056 C 
ATOM     28  C   UNL     1      31.660  -3.686 -23.845  0.00  0.00    -0.056 C 
ATOM     29  C   UNL     1      30.120  -2.394 -22.518  0.00  0.00    -0.101 C 
ATOM     30  H   UNL     1      29.671  -4.060 -23.581  0.00  0.00    -0.080 HD
ENDBRANCH  14  23
ENDBRANCH   3  20
BRANCH   8  31
ATOM     31  C   UNL     1      34.519 -18.518 -21.366  0.00  0.00    +0.014 C 
ATOM     32  C   UNL     1      33.417 -19.257 -20.939  0.00  0.00    +0.000 C 
ATOM     33  C   UNL     1      35.809 -18.943 -21.051  0.00  0.00    +0.000 C 
ATOM     34  C   UNL     1      34.896 -20.847 -19.879  0.00  0.00    +0.048 C 
ATOM     35  C   UNL     1      33.605 -20.423 -20.195  0.00  0.00    +0.014 C 
ATOM     36  C   UNL     1      35.998 -20.107 -20.306  0.00  0.00    +0.014 C 
BRANCH  34  37
ATOM     37  N   UNL     1      35.087 -22.025 -19.128  0.00  0.00    -0.304 N 
ATOM     38  C   UNL     1      36.169 -22.116 -18.167  0.00  0.00    +0.112 C 
ATOM     39  C   UNL     1      34.195 -23.156 -19.296  0.00  0.00    +0.112 C 
ENDBRANCH  34  37
ENDBRANCH   8  31
TORSDOF 4
ENDMDL
MODEL 2
REMARK VINA RESULT:     -11.9      1.846     13.020
REMARK  Name = 448202
REMARK  4 active torsions:
REMARK  status: ('A' for Active; 'I' for Inactive)
REMARK    1  A    between atoms: C_3  and  C_20
REMARK    2  A    between atoms: C_8  and  C_31
REMARK    3  A    between atoms: C_14  and  N_23
REMARK    4  A    between atoms: C_34  and  N_37
REMARK                            x       y       z     vdW  Elec       q    Type
REMARK                         _______ _______ _______ _____ _____    ______ ____
ROOT
ATOM      1  N   UNL     1      32.851  -8.835 -24.114  0.00  0.00    -0.315 N 
ATOM      2  N   UNL     1      31.173  -8.271 -22.770  0.00  0.00    -0.315 N 
ATOM      3  C   UNL     1      32.593 -12.162 -22.476  0.00  0.00    +0.016 C 
ATOM      4  C   UNL     1      32.576  -9.961 -23.382  0.00  0.00    +0.059 C 
ATOM      5  C   UNL     1      33.138 -11.237 -23.375  0.00  0.00    +0.015 C 
ATOM      6  C   UNL     1      31.524  -9.584 -22.550  0.00  0.00    +0.059 C 
ATOM      7  C   UNL     1      31.538 -11.812 -21.629  0.00  0.00    +0.000 C 
ATOM      8  C   UNL     1      31.988  -7.853 -23.713  0.00  0.00    +0.168 C 
ATOM      9  C   UNL     1      30.989 -10.523 -21.653  0.00  0.00    +0.015 C 
ATOM     10  H   UNL     1      33.548  -8.748 -24.805  0.00  0.00    +0.149 HD
ATOM     11  H   UNL     1      30.465  -7.757 -22.319  0.00  0.00    +0.149 HD
ENDROOT
BRANCH   3  20
ATOM     12  N   UNL     1      32.754 -14.395 -21.464  0.00  0.00    -0.314 N 
ATOM     13  N   UNL     1      34.018 -14.009 -23.250  0.00  0.00    -0.315 N 
ATOM     14  C   UNL     1      34.289 -17.807 -21.523  0.00  0.00    +0.049 C 
ATOM     15  C   UNL     1      33.444 -16.789 -21.023  0.00  0.00    +0.030 C 
ATOM     16  C   UNL     1      33.440 -15.562 -21.685  0.00  0.00    +0.061 C 
ATOM     17  C   UNL     1      35.084 -17.541 -22.660  0.00  0.00    +0.016 C 
ATOM     18  C   UNL     1      34.222 -15.295 -22.806  0.00  0.00    +0.059 C 
ATOM     19  C   UNL     1      35.065 -16.301 -23.309  0.00  0.00    +0.017 C 
ATOM     20  C   UNL     1      33.133 -13.498 -22.424  0.00  0.00    +0.168 C 
ATOM     21  H   UNL     1      32.104 -14.233 -20.741  0.00  0.00    +0.149 HD
ATOM     22  H   UNL     1      34.443 -13.566 -24.020  0.00  0.00    +0.149 HD
BRANCH  14  23
ATOM     23  N   UNL     1      34.335 -19.059 -20.899  0.00  0.00    -0.312 N 
ATOM     24  N   UNL     1      34.387 -21.720 -19.860  0.00  0.00    +0.388 N 
ATOM     25  C   UNL     1      35.591 -19.817 -20.882  0.00  0.00    +0.068 C 
ATOM     26  C   UNL     1      33.108 -19.864 -20.875  0.00  0.00    +0.068 C 
ATOM     27  C   UNL     1      35.574 -20.861 -19.762  0.00  0.00    -0.056 C 
ATOM     28  C   UNL     1      33.170 -20.904 -19.754  0.00  0.00    -0.056 C 
ATOM     29  C   UNL     1      34.409 -22.746 -18.818  0.00  0.00    -0.101 C 
ATOM     30  H   UNL     1      34.392 -22.187 -20.766  0.00  0.00    -0.080 HD
ENDBRANCH  14  23
ENDBRANCH   3  20
BRANCH   8  31
ATOM     31  C   UNL     1      32.011  -6.531 -24.291  0.00  0.00    +0.014 C 
ATOM     32  C   UNL     1      33.023  -6.181 -25.185  0.00  0.00    +0.000 C 
ATOM     33  C   UNL     1      31.023  -5.606 -23.958  0.00  0.00    +0.000 C 
ATOM     34  C   UNL     1      32.058  -3.977 -25.410  0.00  0.00    +0.048 C 
ATOM     35  C   UNL     1      33.047  -4.903 -25.744  0.00  0.00    +0.014 C 
ATOM     36  C   UNL     1      31.047  -4.328 -24.516  0.00  0.00    +0.014 C 
BRANCH  34  37
ATOM     37  N   UNL     1      32.082  -2.685 -25.976  0.00  0.00    -0.304 N 
ATOM     38  C   UNL     1      30.928  -1.814 -25.864  0.00  0.00    +0.112 C 
ATOM     39  C   UNL     1      33.264  -2.207 -26.665  0.00  0.00    +0.112 C 
ENDBRANCH  34  37
ENDBRANCH   8  31
TORSDOF 4
ENDMDL
MODEL 3
REMARK VINA RESULT:     -11.0      1.140      1.958
REMARK  Name = 448202
REMARK  4 active torsions:
REMARK  status: ('A' for Active; 'I' for Inactive)
REMARK    1  A    between atoms: C_3  and  C_20
REMARK    2  A    between atoms: C_8  and  C_31
REMARK    3  A    between atoms: C_14  and  N_23
REMARK    4  A    between atoms: C_34  and  N_37
REMARK                            x       y       z     vdW  Elec       q    Type
REMARK                         _______ _______ _______ _____ _____    ______ ____
ROOT
ATOM      1  N   UNL     1      33.842 -15.823 -21.280  0.00  0.00    -0.315 N 
ATOM      2  N   UNL     1      34.202 -16.732 -23.276  0.00  0.00    -0.315 N 
ATOM      3  C   UNL     1      33.174 -12.710 -23.199  0.00  0.00    +0.016 C 
ATOM      4  C   UNL     1      33.643 -14.811 -22.184  0.00  0.00    +0.059 C 
ATOM      5  C   UNL     1      33.292 -13.470 -22.029  0.00  0.00    +0.015 C 
ATOM      6  C   UNL     1      33.873 -15.403 -23.423  0.00  0.00    +0.059 C 
ATOM      7  C   UNL     1      33.399 -13.277 -24.456  0.00  0.00    +0.000 C 
ATOM      8  C   UNL     1      34.174 -16.949 -21.980  0.00  0.00    +0.168 C 
ATOM      9  C   UNL     1      33.751 -14.627 -24.587  0.00  0.00    +0.015 C 
ATOM     10  H   UNL     1      33.761 -15.751 -20.301  0.00  0.00    +0.149 HD
ATOM     11  H   UNL     1      34.412 -17.379 -23.988  0.00  0.00    +0.149 HD
ENDROOT
BRANCH   3  20
ATOM     12  N   UNL     1      33.031 -10.439 -24.129  0.00  0.00    -0.314 N 
ATOM     13  N   UNL     1      32.256 -10.731 -22.067  0.00  0.00    -0.315 N 
ATOM     14  C   UNL     1      32.016  -6.869 -23.653  0.00  0.00    +0.049 C 
ATOM     15  C   UNL     1      32.558  -7.965 -24.364  0.00  0.00    +0.030 C 
ATOM     16  C   UNL     1      32.584  -9.206 -23.728  0.00  0.00    +0.061 C 
ATOM     17  C   UNL     1      31.528  -7.076 -22.343  0.00  0.00    +0.016 C 
ATOM     18  C   UNL     1      32.105  -9.415 -22.438  0.00  0.00    +0.059 C 
ATOM     19  C   UNL     1      31.564  -8.331 -21.724  0.00  0.00    +0.017 C 
ATOM     20  C   UNL     1      32.813 -11.316 -23.103  0.00  0.00    +0.168 C 
ATOM     21  H   UNL     1      33.436 -10.654 -25.000  0.00  0.00    +0.149 HD
ATOM     22  H   UNL     1      32.002 -11.145 -21.211  0.00  0.00    +0.149 HD
BRANCH  14  23
ATOM     23  N   UNL     1      31.964  -5.600 -24.239  0.00  0.00    -0.312 N 
ATOM     24  N   UNL     1      32.057  -2.942 -25.283  0.00  0.00    +0.388 N 
ATOM     25  C   UNL     1      32.839  -5.287 -25.373  0.00  0.00    +0.068 C 
ATOM     26  C   UNL     1      31.594  -4.462 -23.389  0.00  0.00    +0.068 C 
ATOM     27  C   UNL     1      32.291  -4.094 -26.162  0.00  0.00    -0.056 C 
ATOM     28  C   UNL     1      31.084  -3.298 -24.242  0.00  0.00    -0.056 C 
ATOM     29  C   UNL     1      31.585  -1.794 -26.057  0.00  0.00    -0.101 C 
ATOM     30  H   UNL     1      32.937  -2.685 -24.837  0.00  0.00    -0.080 HD
ENDBRANCH  14  23
ENDBRANCH   3  20
BRANCH   8  31
ATOM     31  C   UNL     1      34.448 -18.204 -21.323  0.00  0.00    +0.014 C 
ATOM     32  C   UNL     1      33.395 -19.030 -20.932  0.00  0.00    +0.000 C 
ATOM     33  C   UNL     1      35.766 -18.591 -21.080  0.00  0.00    +0.000 C 
ATOM     34  C   UNL     1      34.978 -20.630 -20.052  0.00  0.00    +0.048 C 
ATOM     35  C   UNL     1      33.660 -20.244 -20.297  0.00  0.00    +0.014 C 
ATOM     36  C   UNL     1      36.030 -19.803 -20.443  0.00  0.00    +0.014 C 
BRANCH  34  37
ATOM     37  N   UNL     1      35.245 -21.857 -19.410  0.00  0.00    -0.304 N 
ATOM     38  C   UNL     1      34.408 -23.014 -19.659  0.00  0.00    +0.112 C 
ATOM     39  C   UNL     1      36.370 -21.982 -18.504  0.00  0.00    +0.112 C 
ENDBRANCH  34  37
ENDBRANCH   8  31
TORSDOF 4
ENDMDL
MODEL 4
REMARK VINA RESULT:     -10.6      1.794      3.937
REMARK  Name = 448202
REMARK  4 active torsions:
REMARK  status: ('A' for Active; 'I' for Inactive)
REMARK    1  A    between atoms: C_3  and  C_20
REMARK    2  A    between atoms: C_8  and  C_31
REMARK    3  A    between atoms: C_14  and  N_23
REMARK    4  A    between atoms: C_34  and  N_37
REMARK                            x       y       z     vdW  Elec       q    Type
REMARK                         _______ _______ _______ _____ _____    ______ ____
ROOT
ATOM      1  N   UNL     1      34.804 -18.922 -20.235  0.00  0.00    -0.315 N 
ATOM      2  N   UNL     1      35.160 -20.585 -21.666  0.00  0.00    -0.315 N 
ATOM      3  C   UNL     1      34.454 -16.828 -23.287  0.00  0.00    +0.016 C 
ATOM      4  C   UNL     1      34.719 -18.356 -21.481  0.00  0.00    +0.059 C 
ATOM      5  C   UNL     1      34.471 -17.051 -21.905  0.00  0.00    +0.015 C 
ATOM      6  C   UNL     1      34.944 -19.415 -22.358  0.00  0.00    +0.059 C 
ATOM      7  C   UNL     1      34.677 -17.871 -24.190  0.00  0.00    +0.000 C 
ATOM      8  C   UNL     1      35.070 -20.253 -20.397  0.00  0.00    +0.168 C 
ATOM      9  C   UNL     1      34.924 -19.175 -23.741  0.00  0.00    +0.015 C 
ATOM     10  H   UNL     1      34.696 -18.452 -19.376  0.00  0.00    +0.149 HD
ATOM     11  H   UNL     1      35.342 -21.477 -22.040  0.00  0.00    +0.149 HD
ENDROOT
BRANCH   3  20
ATOM     12  N   UNL     1      34.065 -14.425 -22.950  0.00  0.00    -0.314 N 
ATOM     13  N   UNL     1      34.076 -15.156 -25.047  0.00  0.00    -0.315 N 
ATOM     14  C   UNL     1      33.414 -11.068 -24.469  0.00  0.00    +0.049 C 
ATOM     15  C   UNL     1      33.626 -11.975 -23.405  0.00  0.00    +0.030 C 
ATOM     16  C   UNL     1      33.835 -13.317 -23.724  0.00  0.00    +0.061 C 
ATOM     17  C   UNL     1      33.424 -11.554 -25.796  0.00  0.00    +0.016 C 
ATOM     18  C   UNL     1      33.847 -13.800 -25.030  0.00  0.00    +0.059 C 
ATOM     19  C   UNL     1      33.637 -12.905 -26.093  0.00  0.00    +0.017 C 
ATOM     20  C   UNL     1      34.202 -15.498 -23.785  0.00  0.00    +0.168 C 
ATOM     21  H   UNL     1      34.122 -14.444 -21.966  0.00  0.00    +0.149 HD
ATOM     22  H   UNL     1      34.133 -15.744 -25.835  0.00  0.00    +0.149 HD
BRANCH  14  23
ATOM     23  N   UNL     1      33.197  -9.710 -24.210  0.00  0.00    -0.312 N 
ATOM     24  N   UNL     1      32.780  -6.994 -23.428  0.00  0.00    +0.388 N 
ATOM     25  C   UNL     1      34.342  -8.810 -24.040  0.00  0.00    +0.068 C 
ATOM     26  C   UNL     1      31.979  -9.333 -23.482  0.00  0.00    +0.068 C 
ATOM     27  C   UNL     1      33.924  -7.356 -24.274  0.00  0.00    -0.056 C 
ATOM     28  C   UNL     1      31.636  -7.863 -23.736  0.00  0.00    -0.056 C 
ATOM     29  C   UNL     1      32.423  -5.589 -23.622  0.00  0.00    -0.101 C 
ATOM     30  H   UNL     1      33.038  -7.125 -22.451  0.00  0.00    -0.080 HD
ENDBRANCH  14  23
ENDBRANCH   3  20
BRANCH   8  31
ATOM     31  C   UNL     1      35.221 -21.145 -19.273  0.00  0.00    +0.014 C 
ATOM     32  C   UNL     1      34.143 -21.925 -18.854  0.00  0.00    +0.000 C 
ATOM     33  C   UNL     1      36.442 -21.227 -18.606  0.00  0.00    +0.000 C 
ATOM     34  C   UNL     1      35.510 -22.868 -17.099  0.00  0.00    +0.048 C 
ATOM     35  C   UNL     1      34.288 -22.787 -17.767  0.00  0.00    +0.014 C 
ATOM     36  C   UNL     1      36.587 -22.087 -17.518  0.00  0.00    +0.014 C 
BRANCH  34  37
ATOM     37  N   UNL     1      35.657 -23.740 -16.000  0.00  0.00    -0.304 N 
ATOM     38  C   UNL     1      36.960 -23.955 -15.403  0.00  0.00    +0.112 C 
ATOM     39  C   UNL     1      34.504 -24.423 -15.445  0.00  0.00    +0.112 C 
ENDBRANCH  34  37
ENDBRANCH   8  31
TORSDOF 4
ENDMDL
MODEL 5
REMARK VINA RESULT:     -10.5      2.374     13.714
REMARK  Name = 448202
REMARK  4 active torsions:
REMARK  status: ('A' for Active; 'I' for Inactive)
REMARK    1  A    between atoms: C_3  and  C_20
REMARK    2  A    between atoms: C_8  and  C_31
REMARK    3  A    between atoms: C_14  and  N_23
REMARK    4  A    between atoms: C_34  and  N_37
REMARK                            x       y       z     vdW  Elec       q    Type
REMARK                         _______ _______ _______ _____ _____    ______ ____
ROOT
ATOM      1  N   UNL     1      33.639 -14.839 -21.885  0.00  0.00    -0.315 N 
ATOM      2  N   UNL     1      34.233 -15.124 -24.008  0.00  0.00    -0.315 N 
ATOM      3  C   UNL     1      34.372 -18.468 -21.551  0.00  0.00    +0.016 C 
ATOM      4  C   UNL     1      33.965 -16.166 -21.999  0.00  0.00    +0.059 C 
ATOM      5  C   UNL     1      33.971 -17.214 -21.077  0.00  0.00    +0.015 C 
ATOM      6  C   UNL     1      34.333 -16.320 -23.333  0.00  0.00    +0.059 C 
ATOM      7  C   UNL     1      34.746 -18.652 -22.885  0.00  0.00    +0.000 C 
ATOM      8  C   UNL     1      33.814 -14.260 -23.111  0.00  0.00    +0.168 C 
ATOM      9  C   UNL     1      34.733 -17.585 -23.793  0.00  0.00    +0.015 C 
ATOM     10  H   UNL     1      33.332 -14.385 -21.067  0.00  0.00    +0.149 HD
ATOM     11  H   UNL     1      34.431 -14.954 -24.957  0.00  0.00    +0.149 HD
ENDROOT
BRANCH   3  20
ATOM     12  N   UNL     1      35.450 -19.815 -19.801  0.00  0.00    -0.314 N 
ATOM     13  N   UNL     1      33.463 -20.504 -20.517  0.00  0.00    -0.315 N 
ATOM     14  C   UNL     1      35.301 -22.793 -17.539  0.00  0.00    +0.049 C 
ATOM     15  C   UNL     1      35.885 -21.628 -18.090  0.00  0.00    +0.030 C 
ATOM     16  C   UNL     1      35.174 -20.948 -19.079  0.00  0.00    +0.061 C 
ATOM     17  C   UNL     1      34.037 -23.214 -18.009  0.00  0.00    +0.016 C 
ATOM     18  C   UNL     1      33.928 -21.359 -19.545  0.00  0.00    +0.059 C 
ATOM     19  C   UNL     1      33.341 -22.516 -19.003  0.00  0.00    +0.017 C 
ATOM     20  C   UNL     1      34.398 -19.591 -20.645  0.00  0.00    +0.168 C 
ATOM     21  H   UNL     1      36.261 -19.262 -19.723  0.00  0.00    +0.149 HD
ATOM     22  H   UNL     1      32.613 -20.563 -21.010  0.00  0.00    +0.149 HD
BRANCH  14  23
ATOM     23  N   UNL     1      35.968 -23.517 -16.544  0.00  0.00    -0.312 N 
ATOM     24  N   UNL     1      37.268 -24.801 -14.349  0.00  0.00    +0.388 N 
ATOM     25  C   UNL     1      35.207 -24.401 -15.655  0.00  0.00    +0.068 C 
ATOM     26  C   UNL     1      37.189 -22.937 -15.971  0.00  0.00    +0.068 C 
ATOM     27  C   UNL     1      36.129 -25.443 -15.016  0.00  0.00    -0.056 C 
ATOM     28  C   UNL     1      38.047 -24.027 -15.324  0.00  0.00    -0.056 C 
ATOM     29  C   UNL     1      38.112 -25.803 -13.698  0.00  0.00    -0.101 C 
ATOM     30  H   UNL     1      36.916 -24.168 -13.632  0.00  0.00    -0.080 HD
ENDBRANCH  14  23
ENDBRANCH   3  20
BRANCH   8  31
ATOM     31  C   UNL     1      33.557 -12.858 -23.337  0.00  0.00    +0.014 C 
ATOM     32  C   UNL     1      32.638 -12.181 -22.536  0.00  0.00    +0.000 C 
ATOM     33  C   UNL     1      34.227 -12.181 -24.356  0.00  0.00    +0.000 C 
ATOM     34  C   UNL     1      33.059 -10.149 -23.774  0.00  0.00    +0.048 C 
ATOM     35  C   UNL     1      32.389 -10.826 -22.754  0.00  0.00    +0.014 C 
ATOM     36  C   UNL     1      33.977 -10.827 -24.575  0.00  0.00    +0.014 C 
BRANCH  34  37
ATOM     37  N   UNL     1      32.807  -8.779 -23.994  0.00  0.00    -0.304 N 
ATOM     38  C   UNL     1      31.449  -8.270 -23.985  0.00  0.00    +0.112 C 
ATOM     39  C   UNL     1      33.904  -7.857 -24.218  0.00  0.00    +0.112 C 
ENDBRANCH  34  37
ENDBRANCH   8  31
TORSDOF 4
ENDMDL
MODEL 6
REMARK VINA RESULT:     -10.0      1.167     12.622
REMARK  Name = 448202
REMARK  4 active torsions:
REMARK  status: ('A' for Active; 'I' for Inactive)
REMARK    1  A    between atoms: C_3  and  C_20
REMARK    2  A    between atoms: C_8  and  C_31
REMARK    3  A    between atoms: C_14  and  N_23
REMARK    4  A    between atoms: C_34  and  N_37
REMARK                            x       y       z     vdW  Elec       q    Type
REMARK                         _______ _______ _______ _____ _____    ______ ____
ROOT
ATOM      1  N   UNL     1      33.023 -10.850 -22.939  0.00  0.00    -0.315 N 
ATOM      2  N   UNL     1      33.126 -10.492 -25.130  0.00  0.00    -0.315 N 
ATOM      3  C   UNL     1      34.086 -14.306 -23.801  0.00  0.00    +0.016 C 
ATOM      4  C   UNL     1      33.413 -12.045 -23.487  0.00  0.00    +0.059 C 
ATOM      5  C   UNL     1      33.712 -13.284 -22.920  0.00  0.00    +0.015 C 
ATOM      6  C   UNL     1      33.471 -11.796 -24.856  0.00  0.00    +0.059 C 
ATOM      7  C   UNL     1      34.153 -14.085 -25.179  0.00  0.00    +0.000 C 
ATOM      8  C   UNL     1      32.863  -9.954 -23.959  0.00  0.00    +0.168 C 
ATOM      9  C   UNL     1      33.848 -12.832 -25.725  0.00  0.00    +0.015 C 
ATOM     10  H   UNL     1      32.881 -10.670 -21.981  0.00  0.00    +0.149 HD
ATOM     11  H   UNL     1      33.085 -10.056 -26.012  0.00  0.00    +0.149 HD
ENDROOT
BRANCH   3  20
ATOM     12  N   UNL     1      33.754 -16.137 -22.196  0.00  0.00    -0.314 N 
ATOM     13  N   UNL     1      35.328 -16.426 -23.737  0.00  0.00    -0.315 N 
ATOM     14  C   UNL     1      34.760 -19.538 -21.002  0.00  0.00    +0.049 C 
ATOM     15  C   UNL     1      34.005 -18.342 -20.980  0.00  0.00    +0.030 C 
ATOM     16  C   UNL     1      34.287 -17.375 -21.945  0.00  0.00    +0.061 C 
ATOM     17  C   UNL     1      35.756 -19.702 -21.991  0.00  0.00    +0.016 C 
ATOM     18  C   UNL     1      35.268 -17.532 -22.921  0.00  0.00    +0.059 C 
ATOM     19  C   UNL     1      36.022 -18.718 -22.950  0.00  0.00    +0.017 C 
ATOM     20  C   UNL     1      34.407 -15.610 -23.274  0.00  0.00    +0.168 C 
ATOM     21  H   UNL     1      33.028 -15.705 -21.688  0.00  0.00    +0.149 HD
ATOM     22  H   UNL     1      35.930 -16.277 -24.501  0.00  0.00    +0.149 HD
BRANCH  14  23
ATOM     23  N   UNL     1      34.522 -20.543 -20.058  0.00  0.00    -0.312 N 
ATOM     24  N   UNL     1      34.013 -22.760 -18.330  0.00  0.00    +0.388 N 
ATOM     25  C   UNL     1      35.631 -21.386 -19.598  0.00  0.00    +0.068 C 
ATOM     26  C   UNL     1      33.196 -21.173 -20.040  0.00  0.00    +0.068 C 
ATOM     27  C   UNL     1      35.289 -22.039 -18.256  0.00  0.00    -0.056 C 
ATOM     28  C   UNL     1      32.932 -21.830 -18.683  0.00  0.00    -0.056 C 
ATOM     29  C   UNL     1      33.724 -23.424 -17.059  0.00  0.00    -0.101 C 
ATOM     30  H   UNL     1      34.080 -23.475 -19.054  0.00  0.00    -0.080 HD
ENDBRANCH  14  23
ENDBRANCH   3  20
BRANCH   8  31
ATOM     31  C   UNL     1      32.455  -8.591 -23.723  0.00  0.00    +0.014 C 
ATOM     32  C   UNL     1      31.175  -8.321 -23.239  0.00  0.00    +0.000 C 
ATOM     33  C   UNL     1      33.340  -7.543 -23.977  0.00  0.00    +0.000 C 
ATOM     34  C   UNL     1      31.665  -5.956 -23.266  0.00  0.00    +0.048 C 
ATOM     35  C   UNL     1      30.780  -7.003 -23.011  0.00  0.00    +0.014 C 
ATOM     36  C   UNL     1      32.944  -6.225 -23.750  0.00  0.00    +0.014 C 
BRANCH  34  37
ATOM     37  N   UNL     1      31.265  -4.623 -23.034  0.00  0.00    -0.304 N 
ATOM     38  C   UNL     1      31.683  -3.564 -23.933  0.00  0.00    +0.112 C 
ATOM     39  C   UNL     1      30.420  -4.296 -21.903  0.00  0.00    +0.112 C 
ENDBRANCH  34  37
ENDBRANCH   8  31
TORSDOF 4
ENDMDL
