MODEL 1
REMARK VINA RESULT:      -6.9      0.000      0.000
REMARK  Name = 6194
REMARK  5 active torsions:
REMARK  status: ('A' for Active; 'I' for Inactive)
REMARK    1  A    between atoms: C_5  and  N_11
REMARK    2  A    between atoms: N_11  and  C_12
REMARK    3  A    between atoms: N_11  and  C_15
REMARK    4  A    between atoms: C_12  and  C_14
REMARK    5  A    between atoms: C_15  and  C_17
REMARK                            x       y       z     vdW  Elec       q    Type
REMARK                         _______ _______ _______ _____ _____    ______ ____
ROOT
ATOM      1  O   UNL     1      36.605 -19.931 -20.238  0.00  0.00    -0.268 OA
ATOM      2  O   UNL     1      33.067 -22.589 -18.941  0.00  0.00    -0.252 OA
ATOM      3  N   UNL     1      34.845 -21.267 -19.584  0.00  0.00    -0.235 N 
ATOM      4  N   UNL     1      32.675 -20.767 -20.289  0.00  0.00    -0.266 N 
ATOM      5  C   UNL     1      34.435 -19.334 -21.012  0.00  0.00    +0.117 C 
ATOM      6  C   UNL     1      35.403 -20.186 -20.254  0.00  0.00    +0.267 C 
ATOM      7  C   UNL     1      33.142 -19.681 -20.977  0.00  0.00    +0.085 C 
ATOM      8  C   UNL     1      33.493 -21.613 -19.559  0.00  0.00    +0.311 C 
ATOM      9  H   UNL     1      35.461 -21.843 -19.077  0.00  0.00    +0.159 HD
ATOM     10  H   UNL     1      31.708 -20.955 -20.312  0.00  0.00    +0.156 HD
ENDROOT
BRANCH   5  11
ATOM     11  N   UNL     1      34.949 -18.265 -21.683  0.00  0.00    -0.300 N 
BRANCH  11  12
ATOM     12  C   UNL     1      34.986 -16.935 -21.086  0.00  0.00    +0.108 C 
BRANCH  12  14
ATOM     13 CL   UNL     1      34.521 -14.772 -22.689  0.00  0.00    -0.112 Cl
ATOM     14  C   UNL     1      33.874 -16.059 -21.640  0.00  0.00    +0.116 C 
ENDBRANCH  12  14
ENDBRANCH  11  12
BRANCH  11  15
ATOM     15  C   UNL     1      35.708 -18.434 -22.916  0.00  0.00    +0.108 C 
BRANCH  15  17
ATOM     16 CL   UNL     1      34.665 -17.306 -25.175  0.00  0.00    -0.112 Cl
ATOM     17  C   UNL     1      34.785 -18.715 -24.092  0.00  0.00    +0.116 C 
ENDBRANCH  15  17
ENDBRANCH  11  15
ENDBRANCH   5  11
TORSDOF 5
ENDMDL
MODEL 2
REMARK VINA RESULT:      -6.8      0.789      2.332
REMARK  Name = 6194
REMARK  5 active torsions:
REMARK  status: ('A' for Active; 'I' for Inactive)
REMARK    1  A    between atoms: C_5  and  N_11
REMARK    2  A    between atoms: N_11  and  C_12
REMARK    3  A    between atoms: N_11  and  C_15
REMARK    4  A    between atoms: C_12  and  C_14
REMARK    5  A    between atoms: C_15  and  C_17
REMARK                            x       y       z     vdW  Elec       q    Type
REMARK                         _______ _______ _______ _____ _____    ______ ____
ROOT
ATOM      1  O   UNL     1      36.707 -20.003 -20.168  0.00  0.00    -0.268 OA
ATOM      2  O   UNL     1      33.008 -22.515 -19.039  0.00  0.00    -0.252 OA
ATOM      3  N   UNL     1      34.866 -21.266 -19.598  0.00  0.00    -0.235 N 
ATOM      4  N   UNL     1      32.738 -20.613 -20.306  0.00  0.00    -0.266 N 
ATOM      5  C   UNL     1      34.585 -19.250 -20.940  0.00  0.00    +0.117 C 
ATOM      6  C   UNL     1      35.493 -20.189 -20.211  0.00  0.00    +0.267 C 
ATOM      7  C   UNL     1      33.275 -19.526 -20.938  0.00  0.00    +0.085 C 
ATOM      8  C   UNL     1      33.497 -21.537 -19.606  0.00  0.00    +0.311 C 
ATOM      9  H   UNL     1      35.441 -21.898 -19.111  0.00  0.00    +0.159 HD
ATOM     10  H   UNL     1      31.763 -20.746 -20.351  0.00  0.00    +0.156 HD
ENDROOT
BRANCH   5  11
ATOM     11  N   UNL     1      35.168 -18.182 -21.554  0.00  0.00    -0.300 N 
BRANCH  11  12
ATOM     12  C   UNL     1      35.773 -18.300 -22.876  0.00  0.00    +0.108 C 
BRANCH  12  14
ATOM     13 CL   UNL     1      34.427 -17.885 -25.217  0.00  0.00    -0.112 Cl
ATOM     14  C   UNL     1      34.820 -18.965 -23.855  0.00  0.00    +0.116 C 
ENDBRANCH  12  14
ENDBRANCH  11  12
BRANCH  11  15
ATOM     15  C   UNL     1      35.003 -16.827 -21.044  0.00  0.00    +0.108 C 
BRANCH  15  17
ATOM     16 CL   UNL     1      32.495 -15.763 -20.838  0.00  0.00    -0.112 Cl
ATOM     17  C   UNL     1      33.942 -16.072 -21.830  0.00  0.00    +0.116 C 
ENDBRANCH  15  17
ENDBRANCH  11  15
ENDBRANCH   5  11
TORSDOF 5
ENDMDL
MODEL 3
REMARK VINA RESULT:      -6.7      1.568      1.995
REMARK  Name = 6194
REMARK  5 active torsions:
REMARK  status: ('A' for Active; 'I' for Inactive)
REMARK    1  A    between atoms: C_5  and  N_11
REMARK    2  A    between atoms: N_11  and  C_12
REMARK    3  A    between atoms: N_11  and  C_15
REMARK    4  A    between atoms: C_12  and  C_14
REMARK    5  A    between atoms: C_15  and  C_17
REMARK                            x       y       z     vdW  Elec       q    Type
REMARK                         _______ _______ _______ _____ _____    ______ ____
ROOT
ATOM      1  O   UNL     1      32.240 -19.914 -20.629  0.00  0.00    -0.268 OA
ATOM      2  O   UNL     1      34.199 -23.198 -18.050  0.00  0.00    -0.252 OA
ATOM      3  N   UNL     1      33.208 -21.558 -19.336  0.00  0.00    -0.235 N 
ATOM      4  N   UNL     1      35.530 -21.817 -19.321  0.00  0.00    -0.266 N 
ATOM      5  C   UNL     1      34.613 -20.093 -20.685  0.00  0.00    +0.117 C 
ATOM      6  C   UNL     1      33.247 -20.495 -20.229  0.00  0.00    +0.267 C 
ATOM      7  C   UNL     1      35.657 -20.778 -20.201  0.00  0.00    +0.085 C 
ATOM      8  C   UNL     1      34.308 -22.262 -18.843  0.00  0.00    +0.311 C 
ATOM      9  H   UNL     1      32.320 -21.843 -19.021  0.00  0.00    +0.159 HD
ATOM     10  H   UNL     1      36.347 -22.271 -19.012  0.00  0.00    +0.156 HD
ENDROOT
BRANCH   5  11
ATOM     11  N   UNL     1      34.688 -19.051 -21.561  0.00  0.00    -0.300 N 
BRANCH  11  12
ATOM     12  C   UNL     1      35.131 -17.728 -21.138  0.00  0.00    +0.108 C 
BRANCH  12  14
ATOM     13 CL   UNL     1      34.488 -15.143 -20.531  0.00  0.00    -0.112 Cl
ATOM     14  C   UNL     1      33.960 -16.762 -21.057  0.00  0.00    +0.116 C 
ENDBRANCH  12  14
ENDBRANCH  11  12
BRANCH  11  15
ATOM     15  C   UNL     1      34.572 -19.257 -23.000  0.00  0.00    +0.108 C 
BRANCH  15  17
ATOM     16 CL   UNL     1      34.792 -17.416 -25.007  0.00  0.00    -0.112 Cl
ATOM     17  C   UNL     1      35.583 -18.410 -23.757  0.00  0.00    +0.116 C 
ENDBRANCH  15  17
ENDBRANCH  11  15
ENDBRANCH   5  11
TORSDOF 5
ENDMDL
MODEL 4
REMARK VINA RESULT:      -6.6      1.555      2.925
REMARK  Name = 6194
REMARK  5 active torsions:
REMARK  status: ('A' for Active; 'I' for Inactive)
REMARK    1  A    between atoms: C_5  and  N_11
REMARK    2  A    between atoms: N_11  and  C_12
REMARK    3  A    between atoms: N_11  and  C_15
REMARK    4  A    between atoms: C_12  and  C_14
REMARK    5  A    between atoms: C_15  and  C_17
REMARK                            x       y       z     vdW  Elec       q    Type
REMARK                         _______ _______ _______ _____ _____    ______ ____
ROOT
ATOM      1  O   UNL     1      32.333 -19.849 -20.635  0.00  0.00    -0.268 OA
ATOM      2  O   UNL     1      34.002 -23.295 -18.063  0.00  0.00    -0.252 OA
ATOM      3  N   UNL     1      33.156 -21.574 -19.346  0.00  0.00    -0.235 N 
ATOM      4  N   UNL     1      35.454 -21.984 -19.272  0.00  0.00    -0.266 N 
ATOM      5  C   UNL     1      34.690 -20.181 -20.630  0.00  0.00    +0.117 C 
ATOM      6  C   UNL     1      33.288 -20.502 -20.218  0.00  0.00    +0.267 C 
ATOM      7  C   UNL     1      35.674 -20.941 -20.130  0.00  0.00    +0.085 C 
ATOM      8  C   UNL     1      34.194 -22.356 -18.835  0.00  0.00    +0.311 C 
ATOM      9  H   UNL     1      32.243 -21.805 -19.060  0.00  0.00    +0.159 HD
ATOM     10  H   UNL     1      36.231 -22.495 -18.950  0.00  0.00    +0.156 HD
ENDROOT
BRANCH   5  11
ATOM     11  N   UNL     1      34.857 -19.133 -21.485  0.00  0.00    -0.300 N 
BRANCH  11  12
ATOM     12  C   UNL     1      34.455 -19.218 -22.883  0.00  0.00    +0.108 C 
BRANCH  12  14
ATOM     13 CL   UNL     1      34.703 -17.566 -25.046  0.00  0.00    -0.112 Cl
ATOM     14  C   UNL     1      35.483 -18.558 -23.788  0.00  0.00    +0.116 C 
ENDBRANCH  12  14
ENDBRANCH  11  12
BRANCH  11  15
ATOM     15  C   UNL     1      35.210 -17.804 -21.000  0.00  0.00    +0.108 C 
BRANCH  15  17
ATOM     16 CL   UNL     1      34.479 -15.203 -20.597  0.00  0.00    -0.112 Cl
ATOM     17  C   UNL     1      34.050 -16.835 -21.168  0.00  0.00    +0.116 C 
ENDBRANCH  15  17
ENDBRANCH  11  15
ENDBRANCH   5  11
TORSDOF 5
ENDMDL
MODEL 5
REMARK VINA RESULT:      -6.5      8.590      9.994
REMARK  Name = 6194
REMARK  5 active torsions:
REMARK  status: ('A' for Active; 'I' for Inactive)
REMARK    1  A    between atoms: C_5  and  N_11
REMARK    2  A    between atoms: N_11  and  C_12
REMARK    3  A    between atoms: N_11  and  C_15
REMARK    4  A    between atoms: C_12  and  C_14
REMARK    5  A    between atoms: C_15  and  C_17
REMARK                            x       y       z     vdW  Elec       q    Type
REMARK                         _______ _______ _______ _____ _____    ______ ____
ROOT
ATOM      1  O   UNL     1      38.286 -22.340 -12.169  0.00  0.00    -0.268 OA
ATOM      2  O   UNL     1      35.277 -24.638  -9.536  0.00  0.00    -0.252 OA
ATOM      3  N   UNL     1      36.787 -23.484 -10.844  0.00  0.00    -0.235 N 
ATOM      4  N   UNL     1      35.206 -24.898 -11.821  0.00  0.00    -0.266 N 
ATOM      5  C   UNL     1      36.716 -23.755 -13.265  0.00  0.00    +0.117 C 
ATOM      6  C   UNL     1      37.344 -23.122 -12.063  0.00  0.00    +0.267 C 
ATOM      7  C   UNL     1      35.694 -24.596 -13.062  0.00  0.00    +0.085 C 
ATOM      8  C   UNL     1      35.721 -24.363 -10.651  0.00  0.00    +0.311 C 
ATOM      9  H   UNL     1      37.182 -23.081 -10.037  0.00  0.00    +0.159 HD
ATOM     10  H   UNL     1      34.451 -25.527 -11.756  0.00  0.00    +0.156 HD
ENDROOT
BRANCH   5  11
ATOM     11  N   UNL     1      37.239 -23.424 -14.479  0.00  0.00    -0.300 N 
BRANCH  11  12
ATOM     12  C   UNL     1      38.501 -23.986 -14.945  0.00  0.00    +0.108 C 
BRANCH  12  14
ATOM     13 CL   UNL     1      40.292 -25.942 -14.288  0.00  0.00    -0.112 Cl
ATOM     14  C   UNL     1      38.604 -25.461 -14.594  0.00  0.00    +0.116 C 
ENDBRANCH  12  14
ENDBRANCH  11  12
BRANCH  11  15
ATOM     15  C   UNL     1      36.458 -22.695 -15.471  0.00  0.00    +0.108 C 
BRANCH  15  17
ATOM     16 CL   UNL     1      36.644 -21.721 -18.017  0.00  0.00    -0.112 Cl
ATOM     17  C   UNL     1      37.360 -21.890 -16.395  0.00  0.00    +0.116 C 
ENDBRANCH  15  17
ENDBRANCH  11  15
ENDBRANCH   5  11
TORSDOF 5
ENDMDL
MODEL 6
REMARK VINA RESULT:      -6.3      8.562      9.905
REMARK  Name = 6194
REMARK  5 active torsions:
REMARK  status: ('A' for Active; 'I' for Inactive)
REMARK    1  A    between atoms: C_5  and  N_11
REMARK    2  A    between atoms: N_11  and  C_12
REMARK    3  A    between atoms: N_11  and  C_15
REMARK    4  A    between atoms: C_12  and  C_14
REMARK    5  A    between atoms: C_15  and  C_17
REMARK                            x       y       z     vdW  Elec       q    Type
REMARK                         _______ _______ _______ _____ _____    ______ ____
ROOT
ATOM      1  O   UNL     1      38.215 -22.373 -12.277  0.00  0.00    -0.268 OA
ATOM      2  O   UNL     1      35.288 -24.610  -9.503  0.00  0.00    -0.252 OA
ATOM      3  N   UNL     1      36.758 -23.486 -10.881  0.00  0.00    -0.235 N 
ATOM      4  N   UNL     1      35.159 -24.934 -11.777  0.00  0.00    -0.266 N 
ATOM      5  C   UNL     1      36.625 -23.825 -13.291  0.00  0.00    +0.117 C 
ATOM      6  C   UNL     1      37.281 -23.157 -12.125  0.00  0.00    +0.267 C 
ATOM      7  C   UNL     1      35.613 -24.665 -13.038  0.00  0.00    +0.085 C 
ATOM      8  C   UNL     1      35.701 -24.365 -10.636  0.00  0.00    +0.311 C 
ATOM      9  H   UNL     1      37.172 -23.059 -10.097  0.00  0.00    +0.159 HD
ATOM     10  H   UNL     1      34.409 -25.564 -11.674  0.00  0.00    +0.156 HD
ENDROOT
BRANCH   5  11
ATOM     11  N   UNL     1      37.115 -23.525 -14.528  0.00  0.00    -0.300 N 
BRANCH  11  12
ATOM     12  C   UNL     1      36.495 -22.506 -15.366  0.00  0.00    +0.108 C 
BRANCH  12  14
ATOM     13 CL   UNL     1      36.613 -21.732 -17.984  0.00  0.00    -0.112 Cl
ATOM     14  C   UNL     1      37.456 -22.028 -16.443  0.00  0.00    +0.116 C 
ENDBRANCH  12  14
ENDBRANCH  11  12
BRANCH  11  15
ATOM     15  C   UNL     1      38.412 -24.019 -14.973  0.00  0.00    +0.108 C 
BRANCH  15  17
ATOM     16 CL   UNL     1      40.312 -25.918 -14.475  0.00  0.00    -0.112 Cl
ATOM     17  C   UNL     1      38.589 -25.487 -14.617  0.00  0.00    +0.116 C 
ENDBRANCH  15  17
ENDBRANCH  11  15
ENDBRANCH   5  11
TORSDOF 5
ENDMDL
MODEL 7
REMARK VINA RESULT:      -6.3      9.354     10.576
REMARK  Name = 6194
REMARK  5 active torsions:
REMARK  status: ('A' for Active; 'I' for Inactive)
REMARK    1  A    between atoms: C_5  and  N_11
REMARK    2  A    between atoms: N_11  and  C_12
REMARK    3  A    between atoms: N_11  and  C_15
REMARK    4  A    between atoms: C_12  and  C_14
REMARK    5  A    between atoms: C_15  and  C_17
REMARK                            x       y       z     vdW  Elec       q    Type
REMARK                         _______ _______ _______ _____ _____    ______ ____
ROOT
ATOM      1  O   UNL     1      37.043 -26.664 -12.795  0.00  0.00    -0.268 OA
ATOM      2  O   UNL     1      40.968 -26.221 -15.177  0.00  0.00    -0.252 OA
ATOM      3  N   UNL     1      39.009 -26.453 -13.980  0.00  0.00    -0.235 N 
ATOM      4  N   UNL     1      39.318 -24.635 -15.413  0.00  0.00    -0.266 N 
ATOM      5  C   UNL     1      37.257 -24.775 -14.227  0.00  0.00    +0.117 C 
ATOM      6  C   UNL     1      37.739 -26.043 -13.596  0.00  0.00    +0.267 C 
ATOM      7  C   UNL     1      38.077 -24.160 -15.090  0.00  0.00    +0.085 C 
ATOM      8  C   UNL     1      39.850 -25.798 -14.881  0.00  0.00    +0.311 C 
ATOM      9  H   UNL     1      39.348 -27.285 -13.579  0.00  0.00    +0.159 HD
ATOM     10  H   UNL     1      39.861 -24.124 -16.057  0.00  0.00    +0.156 HD
ENDROOT
BRANCH   5  11
ATOM     11  N   UNL     1      36.015 -24.343 -13.871  0.00  0.00    -0.300 N 
BRANCH  11  12
ATOM     12  C   UNL     1      35.831 -23.239 -12.937  0.00  0.00    +0.108 C 
BRANCH  12  14
ATOM     13 CL   UNL     1      35.674 -24.366 -10.453  0.00  0.00    -0.112 Cl
ATOM     14  C   UNL     1      36.625 -23.466 -11.661  0.00  0.00    +0.116 C 
ENDBRANCH  12  14
ENDBRANCH  11  12
BRANCH  11  15
ATOM     15  C   UNL     1      34.822 -24.785 -14.583  0.00  0.00    +0.108 C 
BRANCH  15  17
ATOM     16 CL   UNL     1      32.633 -23.188 -14.932  0.00  0.00    -0.112 Cl
ATOM     17  C   UNL     1      33.559 -24.297 -13.890  0.00  0.00    +0.116 C 
ENDBRANCH  15  17
ENDBRANCH  11  15
ENDBRANCH   5  11
TORSDOF 5
ENDMDL
MODEL 8
REMARK VINA RESULT:      -6.3      5.595      6.711
REMARK  Name = 6194
REMARK  5 active torsions:
REMARK  status: ('A' for Active; 'I' for Inactive)
REMARK    1  A    between atoms: C_5  and  N_11
REMARK    2  A    between atoms: N_11  and  C_12
REMARK    3  A    between atoms: N_11  and  C_15
REMARK    4  A    between atoms: C_12  and  C_14
REMARK    5  A    between atoms: C_15  and  C_17
REMARK                            x       y       z     vdW  Elec       q    Type
REMARK                         _______ _______ _______ _____ _____    ______ ____
ROOT
ATOM      1  O   UNL     1      34.846 -14.503 -22.309  0.00  0.00    -0.268 OA
ATOM      2  O   UNL     1      34.652 -17.623 -25.700  0.00  0.00    -0.252 OA
ATOM      3  N   UNL     1      34.757 -16.069 -23.998  0.00  0.00    -0.235 N 
ATOM      4  N   UNL     1      33.413 -15.692 -25.870  0.00  0.00    -0.266 N 
ATOM      5  C   UNL     1      33.446 -14.021 -24.172  0.00  0.00    +0.117 C 
ATOM      6  C   UNL     1      34.407 -14.866 -23.398  0.00  0.00    +0.267 C 
ATOM      7  C   UNL     1      33.016 -14.490 -25.351  0.00  0.00    +0.085 C 
ATOM      8  C   UNL     1      34.298 -16.542 -25.228  0.00  0.00    +0.311 C 
ATOM      9  H   UNL     1      35.388 -16.643 -23.508  0.00  0.00    +0.159 HD
ATOM     10  H   UNL     1      33.050 -15.966 -26.744  0.00  0.00    +0.156 HD
ENDROOT
BRANCH   5  11
ATOM     11  N   UNL     1      33.082 -12.832 -23.614  0.00  0.00    -0.300 N 
BRANCH  11  12
ATOM     12  C   UNL     1      32.080 -12.761 -22.558  0.00  0.00    +0.108 C 
BRANCH  12  14
ATOM     13 CL   UNL     1      30.684 -11.224 -20.782  0.00  0.00    -0.112 Cl
ATOM     14  C   UNL     1      31.802 -11.319 -22.166  0.00  0.00    +0.116 C 
ENDBRANCH  12  14
ENDBRANCH  11  12
BRANCH  11  15
ATOM     15  C   UNL     1      33.841 -11.612 -23.860  0.00  0.00    +0.108 C 
BRANCH  15  17
ATOM     16 CL   UNL     1      35.455 -10.353 -25.669  0.00  0.00    -0.112 Cl
ATOM     17  C   UNL     1      34.034 -11.379 -25.350  0.00  0.00    +0.116 C 
ENDBRANCH  15  17
ENDBRANCH  11  15
ENDBRANCH   5  11
TORSDOF 5
ENDMDL
MODEL 9
REMARK VINA RESULT:      -6.3      8.413     10.221
REMARK  Name = 6194
REMARK  5 active torsions:
REMARK  status: ('A' for Active; 'I' for Inactive)
REMARK    1  A    between atoms: C_5  and  N_11
REMARK    2  A    between atoms: N_11  and  C_12
REMARK    3  A    between atoms: N_11  and  C_15
REMARK    4  A    between atoms: C_12  and  C_14
REMARK    5  A    between atoms: C_15  and  C_17
REMARK                            x       y       z     vdW  Elec       q    Type
REMARK                         _______ _______ _______ _____ _____    ______ ____
ROOT
ATOM      1  O   UNL     1      38.029 -22.941 -15.735  0.00  0.00    -0.268 OA
ATOM      2  O   UNL     1      41.029 -26.371 -15.025  0.00  0.00    -0.252 OA
ATOM      3  N   UNL     1      39.536 -24.649 -15.386  0.00  0.00    -0.235 N 
ATOM      4  N   UNL     1      38.901 -26.537 -14.167  0.00  0.00    -0.266 N 
ATOM      5  C   UNL     1      37.280 -24.820 -14.479  0.00  0.00    +0.117 C 
ATOM      6  C   UNL     1      38.295 -24.041 -15.255  0.00  0.00    +0.267 C 
ATOM      7  C   UNL     1      37.652 -26.010 -13.990  0.00  0.00    +0.085 C 
ATOM      8  C   UNL     1      39.906 -25.892 -14.869  0.00  0.00    +0.311 C 
ATOM      9  H   UNL     1      40.222 -24.157 -15.892  0.00  0.00    +0.159 HD
ATOM     10  H   UNL     1      39.097 -27.419 -13.775  0.00  0.00    +0.156 HD
ENDROOT
BRANCH   5  11
ATOM     11  N   UNL     1      36.050 -24.253 -14.332  0.00  0.00    -0.300 N 
BRANCH  11  12
ATOM     12  C   UNL     1      34.942 -24.594 -15.217  0.00  0.00    +0.108 C 
BRANCH  12  14
ATOM     13 CL   UNL     1      32.602 -23.185 -15.178  0.00  0.00    -0.112 Cl
ATOM     14  C   UNL     1      34.277 -23.342 -15.765  0.00  0.00    +0.116 C 
ENDBRANCH  12  14
ENDBRANCH  11  12
BRANCH  11  15
ATOM     15  C   UNL     1      35.707 -23.475 -13.147  0.00  0.00    +0.108 C 
BRANCH  15  17
ATOM     16 CL   UNL     1      35.741 -24.305 -10.545  0.00  0.00    -0.112 Cl
ATOM     17  C   UNL     1      34.946 -24.321 -12.139  0.00  0.00    +0.116 C 
ENDBRANCH  15  17
ENDBRANCH  11  15
ENDBRANCH   5  11
TORSDOF 5
ENDMDL
