MODEL 1
REMARK VINA RESULT:     -10.0      0.000      0.000
REMARK  Name = 51397022
REMARK  9 active torsions:
REMARK  status: ('A' for Active; 'I' for Inactive)
REMARK    1  A    between atoms: N_1  and  C_18
REMARK    2  A    between atoms: C_2  and  C_10
REMARK    3  A    between atoms: C_13  and  O_16
REMARK    4  A    between atoms: C_18  and  C_19
REMARK    5  A    between atoms: C_19  and  C_22
REMARK    6  A    between atoms: C_19  and  C_28
REMARK    7  A    between atoms: N_21  and  C_24
REMARK    8  A    between atoms: C_24  and  C_27
REMARK    9  A    between atoms: C_28  and  C_29
REMARK                            x       y       z     vdW  Elec       q    Type
REMARK                         _______ _______ _______ _____ _____    ______ ____
ROOT
ATOM      1  N   UNL     1      33.008 -14.589 -23.679  0.00  0.00    +0.387 N 
ATOM      2  C   UNL     1      34.317 -16.365 -21.665  0.00  0.00    +0.015 C 
ATOM      3  C   UNL     1      34.934 -16.076 -23.082  0.00  0.00    -0.017 C 
ATOM      4  C   UNL     1      34.510 -14.702 -23.630  0.00  0.00    -0.077 C 
ATOM      5  C   UNL     1      32.779 -16.119 -21.737  0.00  0.00    -0.019 C 
ATOM      6  C   UNL     1      32.376 -14.770 -22.326  0.00  0.00    -0.077 C 
ATOM      7  C   UNL     1      34.953 -15.458 -20.596  0.00  0.00    +0.004 C 
ATOM      8  C   UNL     1      34.630 -17.172 -24.121  0.00  0.00    -0.002 C 
ATOM      9  H   UNL     1      32.677 -15.357 -24.263  0.00  0.00    -0.080 HD
ENDROOT
BRANCH   2  10
ATOM     10  C   UNL     1      34.570 -17.779 -21.227  0.00  0.00    -0.020 C 
ATOM     11  C   UNL     1      33.497 -18.634 -20.974  0.00  0.00    +0.032 C 
ATOM     12  C   UNL     1      35.878 -18.238 -21.072  0.00  0.00    -0.004 C 
ATOM     13  C   UNL     1      33.731 -19.947 -20.568  0.00  0.00    +0.133 C 
ATOM     14  C   UNL     1      36.113 -19.551 -20.664  0.00  0.00    +0.003 C 
ATOM     15  C   UNL     1      35.040 -20.406 -20.412  0.00  0.00    +0.037 C 
BRANCH  13  16
ATOM     16  O   UNL     1      32.684 -20.780 -20.321  0.00  0.00    -0.506 OA
ATOM     17  H   UNL     1      32.055 -20.559 -19.663  0.00  0.00    +0.292 HD
ENDBRANCH  13  16
ENDBRANCH   2  10
BRANCH   1  18
ATOM     18  C   UNL     1      32.571 -13.303 -24.326  0.00  0.00    -0.068 C 
BRANCH  18  19
ATOM     19  C   UNL     1      32.926 -12.087 -23.459  0.00  0.00    +0.060 C 
BRANCH  19  22
ATOM     20  O   UNL     1      34.586 -11.578 -25.161  0.00  0.00    -0.275 OA
ATOM     21  N   UNL     1      34.024  -9.926 -23.636  0.00  0.00    -0.295 N 
ATOM     22  C   UNL     1      33.929 -11.192 -24.196  0.00  0.00    +0.221 C 
ATOM     23  H   UNL     1      33.457  -9.704 -22.862  0.00  0.00    +0.150 HD
BRANCH  21  24
ATOM     24  C   UNL     1      34.926  -8.924 -24.150  0.00  0.00    +0.205 C 
BRANCH  24  27
ATOM     25  O   UNL     1      34.575  -6.653 -24.667  0.00  0.00    -0.244 OA
ATOM     26  O   UNL     1      34.153  -7.387 -22.543  0.00  0.00    -0.244 OA
ATOM     27  C   UNL     1      34.509  -7.517 -23.747  0.00  0.00    +0.385 C 
ENDBRANCH  24  27
ENDBRANCH  21  24
ENDBRANCH  19  22
BRANCH  19  28
ATOM     28  C   UNL     1      31.675 -11.309 -23.004  0.00  0.00    +0.033 C 
BRANCH  28  29
ATOM     29  C   UNL     1      31.714 -10.929 -21.541  0.00  0.00    -0.022 C 
ATOM     30  C   UNL     1      31.901  -9.597 -21.170  0.00  0.00    -0.004 C 
ATOM     31  C   UNL     1      31.562 -11.911 -20.562  0.00  0.00    -0.004 C 
ATOM     32  C   UNL     1      31.937  -9.248 -19.821  0.00  0.00    -0.000 C 
ATOM     33  C   UNL     1      31.597 -11.562 -19.212  0.00  0.00    -0.000 C 
ATOM     34  C   UNL     1      31.783 -10.229 -18.841  0.00  0.00    -0.000 C 
ENDBRANCH  28  29
ENDBRANCH  19  28
ENDBRANCH  18  19
ENDBRANCH   1  18
TORSDOF 9
ENDMDL
MODEL 2
REMARK VINA RESULT:      -9.7      1.423      2.240
REMARK  Name = 51397022
REMARK  9 active torsions:
REMARK  status: ('A' for Active; 'I' for Inactive)
REMARK    1  A    between atoms: N_1  and  C_18
REMARK    2  A    between atoms: C_2  and  C_10
REMARK    3  A    between atoms: C_13  and  O_16
REMARK    4  A    between atoms: C_18  and  C_19
REMARK    5  A    between atoms: C_19  and  C_22
REMARK    6  A    between atoms: C_19  and  C_28
REMARK    7  A    between atoms: N_21  and  C_24
REMARK    8  A    between atoms: C_24  and  C_27
REMARK    9  A    between atoms: C_28  and  C_29
REMARK                            x       y       z     vdW  Elec       q    Type
REMARK                         _______ _______ _______ _____ _____    ______ ____
ROOT
ATOM      1  N   UNL     1      34.284 -16.379 -23.577  0.00  0.00    +0.387 N 
ATOM      2  C   UNL     1      35.604 -18.481 -21.915  0.00  0.00    +0.015 C 
ATOM      3  C   UNL     1      34.965 -18.776 -23.323  0.00  0.00    -0.017 C 
ATOM      4  C   UNL     1      34.982 -17.539 -24.238  0.00  0.00    -0.077 C 
ATOM      5  C   UNL     1      34.931 -17.204 -21.327  0.00  0.00    -0.019 C 
ATOM      6  C   UNL     1      34.916 -16.001 -22.266  0.00  0.00    -0.077 C 
ATOM      7  C   UNL     1      37.125 -18.277 -22.037  0.00  0.00    +0.004 C 
ATOM      8  C   UNL     1      33.538 -19.350 -23.243  0.00  0.00    -0.002 C 
ATOM      9  H   UNL     1      33.335 -16.690 -23.367  0.00  0.00    -0.080 HD
ENDROOT
BRANCH   2  10
ATOM     10  C   UNL     1      35.404 -19.627 -20.964  0.00  0.00    -0.020 C 
ATOM     11  C   UNL     1      34.114 -20.049 -20.643  0.00  0.00    +0.032 C 
ATOM     12  C   UNL     1      36.508 -20.267 -20.402  0.00  0.00    -0.004 C 
ATOM     13  C   UNL     1      33.928 -21.112 -19.760  0.00  0.00    +0.133 C 
ATOM     14  C   UNL     1      36.322 -21.330 -19.518  0.00  0.00    +0.003 C 
ATOM     15  C   UNL     1      35.033 -21.753 -19.197  0.00  0.00    +0.037 C 
BRANCH  13  16
ATOM     16  O   UNL     1      32.669 -21.524 -19.446  0.00  0.00    -0.506 OA
ATOM     17  H   UNL     1      31.964 -20.907 -19.434  0.00  0.00    +0.292 HD
ENDBRANCH  13  16
ENDBRANCH   2  10
BRANCH   1  18
ATOM     18  C   UNL     1      34.180 -15.196 -24.502  0.00  0.00    -0.068 C 
BRANCH  18  19
ATOM     19  C   UNL     1      33.728 -13.934 -23.755  0.00  0.00    +0.060 C 
BRANCH  19  22
ATOM     20  O   UNL     1      33.498 -12.698 -25.837  0.00  0.00    -0.275 OA
ATOM     21  N   UNL     1      34.478 -11.638 -24.024  0.00  0.00    -0.295 N 
ATOM     22  C   UNL     1      33.869 -12.707 -24.664  0.00  0.00    +0.221 C 
ATOM     23  H   UNL     1      34.742 -11.736 -23.080  0.00  0.00    +0.150 HD
BRANCH  21  24
ATOM     24  C   UNL     1      34.738 -10.387 -24.695  0.00  0.00    +0.205 C 
BRANCH  24  27
ATOM     25  O   UNL     1      32.940  -9.196 -23.751  0.00  0.00    -0.244 OA
ATOM     26  O   UNL     1      35.057  -8.356 -23.549  0.00  0.00    -0.244 OA
ATOM     27  C   UNL     1      34.192  -9.197 -23.920  0.00  0.00    +0.385 C 
ENDBRANCH  24  27
ENDBRANCH  21  24
ENDBRANCH  19  22
BRANCH  19  28
ATOM     28  C   UNL     1      32.303 -14.074 -23.181  0.00  0.00    +0.033 C 
BRANCH  28  29
ATOM     29  C   UNL     1      32.035 -13.133 -22.028  0.00  0.00    -0.022 C 
ATOM     30  C   UNL     1      31.417 -11.904 -22.260  0.00  0.00    -0.004 C 
ATOM     31  C   UNL     1      32.405 -13.494 -20.733  0.00  0.00    -0.004 C 
ATOM     32  C   UNL     1      31.168 -11.037 -21.197  0.00  0.00    -0.000 C 
ATOM     33  C   UNL     1      32.158 -12.626 -19.669  0.00  0.00    -0.000 C 
ATOM     34  C   UNL     1      31.537 -11.398 -19.901  0.00  0.00    -0.000 C 
ENDBRANCH  28  29
ENDBRANCH  19  28
ENDBRANCH  18  19
ENDBRANCH   1  18
TORSDOF 9
ENDMDL
MODEL 3
REMARK VINA RESULT:      -9.5      1.257      2.084
REMARK  Name = 51397022
REMARK  9 active torsions:
REMARK  status: ('A' for Active; 'I' for Inactive)
REMARK    1  A    between atoms: N_1  and  C_18
REMARK    2  A    between atoms: C_2  and  C_10
REMARK    3  A    between atoms: C_13  and  O_16
REMARK    4  A    between atoms: C_18  and  C_19
REMARK    5  A    between atoms: C_19  and  C_22
REMARK    6  A    between atoms: C_19  and  C_28
REMARK    7  A    between atoms: N_21  and  C_24
REMARK    8  A    between atoms: C_24  and  C_27
REMARK    9  A    between atoms: C_28  and  C_29
REMARK                            x       y       z     vdW  Elec       q    Type
REMARK                         _______ _______ _______ _____ _____    ______ ____
ROOT
ATOM      1  N   UNL     1      34.549 -15.544 -23.594  0.00  0.00    +0.387 N 
ATOM      2  C   UNL     1      34.583 -18.260 -22.351  0.00  0.00    +0.015 C 
ATOM      3  C   UNL     1      33.928 -17.009 -21.658  0.00  0.00    -0.017 C 
ATOM      4  C   UNL     1      33.428 -15.975 -22.682  0.00  0.00    -0.077 C 
ATOM      5  C   UNL     1      35.651 -17.757 -23.369  0.00  0.00    -0.019 C 
ATOM      6  C   UNL     1      35.150 -16.698 -24.348  0.00  0.00    -0.077 C 
ATOM      7  C   UNL     1      33.518 -19.109 -23.069  0.00  0.00    +0.004 C 
ATOM      8  C   UNL     1      34.846 -16.326 -20.627  0.00  0.00    -0.002 C 
ATOM      9  H   UNL     1      35.284 -15.170 -22.994  0.00  0.00    -0.080 HD
ENDROOT
BRANCH   2  10
ATOM     10  C   UNL     1      35.244 -19.166 -21.351  0.00  0.00    -0.020 C 
ATOM     11  C   UNL     1      34.491 -20.127 -20.676  0.00  0.00    +0.032 C 
ATOM     12  C   UNL     1      36.610 -19.045 -21.096  0.00  0.00    -0.004 C 
ATOM     13  C   UNL     1      35.104 -20.968 -19.747  0.00  0.00    +0.133 C 
ATOM     14  C   UNL     1      37.223 -19.885 -20.166  0.00  0.00    +0.003 C 
ATOM     15  C   UNL     1      36.470 -20.846 -19.493  0.00  0.00    +0.037 C 
BRANCH  13  16
ATOM     16  O   UNL     1      34.368 -21.905 -19.089  0.00  0.00    -0.506 OA
ATOM     17  H   UNL     1      34.420 -22.804 -19.345  0.00  0.00    +0.292 HD
ENDBRANCH  13  16
ENDBRANCH   2  10
BRANCH   1  18
ATOM     18  C   UNL     1      34.113 -14.443 -24.522  0.00  0.00    -0.068 C 
BRANCH  18  19
ATOM     19  C   UNL     1      33.683 -13.189 -23.748  0.00  0.00    +0.060 C 
BRANCH  19  22
ATOM     20  O   UNL     1      33.672 -11.852 -25.779  0.00  0.00    -0.275 OA
ATOM     21  N   UNL     1      34.583 -10.935 -23.856  0.00  0.00    -0.295 N 
ATOM     22  C   UNL     1      33.958 -11.935 -24.586  0.00  0.00    +0.221 C 
ATOM     23  H   UNL     1      34.774 -11.090 -22.902  0.00  0.00    +0.150 HD
BRANCH  21  24
ATOM     24  C   UNL     1      34.962  -9.674 -24.447  0.00  0.00    +0.205 C 
BRANCH  24  27
ATOM     25  O   UNL     1      35.085  -7.609 -23.323  0.00  0.00    -0.244 OA
ATOM     26  O   UNL     1      33.035  -8.550 -23.697  0.00  0.00    -0.244 OA
ATOM     27  C   UNL     1      34.295  -8.494 -23.756  0.00  0.00    +0.385 C 
ENDBRANCH  24  27
ENDBRANCH  21  24
ENDBRANCH  19  22
BRANCH  19  28
ATOM     28  C   UNL     1      32.216 -13.268 -23.280  0.00  0.00    +0.033 C 
BRANCH  28  29
ATOM     29  C   UNL     1      31.951 -12.462 -22.028  0.00  0.00    -0.022 C 
ATOM     30  C   UNL     1      31.426 -11.173 -22.126  0.00  0.00    -0.004 C 
ATOM     31  C   UNL     1      32.231 -13.008 -20.776  0.00  0.00    -0.004 C 
ATOM     32  C   UNL     1      31.181 -10.431 -20.971  0.00  0.00    -0.000 C 
ATOM     33  C   UNL     1      31.987 -12.265 -19.620  0.00  0.00    -0.000 C 
ATOM     34  C   UNL     1      31.460 -10.977 -19.718  0.00  0.00    -0.000 C 
ENDBRANCH  28  29
ENDBRANCH  19  28
ENDBRANCH  18  19
ENDBRANCH   1  18
TORSDOF 9
ENDMDL
MODEL 4
REMARK VINA RESULT:      -9.5      1.498      2.282
REMARK  Name = 51397022
REMARK  9 active torsions:
REMARK  status: ('A' for Active; 'I' for Inactive)
REMARK    1  A    between atoms: N_1  and  C_18
REMARK    2  A    between atoms: C_2  and  C_10
REMARK    3  A    between atoms: C_13  and  O_16
REMARK    4  A    between atoms: C_18  and  C_19
REMARK    5  A    between atoms: C_19  and  C_22
REMARK    6  A    between atoms: C_19  and  C_28
REMARK    7  A    between atoms: N_21  and  C_24
REMARK    8  A    between atoms: C_24  and  C_27
REMARK    9  A    between atoms: C_28  and  C_29
REMARK                            x       y       z     vdW  Elec       q    Type
REMARK                         _______ _______ _______ _____ _____    ______ ____
ROOT
ATOM      1  N   UNL     1      34.248 -16.098 -23.597  0.00  0.00    +0.387 N 
ATOM      2  C   UNL     1      35.215 -18.301 -21.827  0.00  0.00    +0.015 C 
ATOM      3  C   UNL     1      34.827 -18.521 -23.336  0.00  0.00    -0.017 C 
ATOM      4  C   UNL     1      35.028 -17.249 -24.177  0.00  0.00    -0.077 C 
ATOM      5  C   UNL     1      34.474 -17.031 -21.308  0.00  0.00    -0.019 C 
ATOM      6  C   UNL     1      34.648 -15.791 -22.180  0.00  0.00    -0.077 C 
ATOM      7  C   UNL     1      36.737 -18.133 -21.672  0.00  0.00    +0.004 C 
ATOM      8  C   UNL     1      33.396 -19.059 -23.531  0.00  0.00    -0.002 C 
ATOM      9  H   UNL     1      33.271 -16.392 -23.569  0.00  0.00    -0.080 HD
ENDROOT
BRANCH   2  10
ATOM     10  C   UNL     1      34.829 -19.479 -20.977  0.00  0.00    -0.020 C 
ATOM     11  C   UNL     1      35.817 -20.277 -20.402  0.00  0.00    +0.032 C 
ATOM     12  C   UNL     1      33.482 -19.774 -20.765  0.00  0.00    -0.004 C 
ATOM     13  C   UNL     1      35.460 -21.371 -19.614  0.00  0.00    +0.133 C 
ATOM     14  C   UNL     1      33.124 -20.868 -19.977  0.00  0.00    +0.003 C 
ATOM     15  C   UNL     1      34.113 -21.666 -19.402  0.00  0.00    +0.037 C 
BRANCH  13  16
ATOM     16  O   UNL     1      36.425 -22.150 -19.054  0.00  0.00    -0.506 OA
ATOM     17  H   UNL     1      36.846 -22.813 -19.564  0.00  0.00    +0.292 HD
ENDBRANCH  13  16
ENDBRANCH   2  10
BRANCH   1  18
ATOM     18  C   UNL     1      34.331 -14.876 -24.472  0.00  0.00    -0.068 C 
BRANCH  18  19
ATOM     19  C   UNL     1      33.818 -13.626 -23.744  0.00  0.00    +0.060 C 
BRANCH  19  22
ATOM     20  O   UNL     1      33.626 -12.389 -25.829  0.00  0.00    -0.275 OA
ATOM     21  N   UNL     1      34.545 -11.320 -23.990  0.00  0.00    -0.295 N 
ATOM     22  C   UNL     1      33.966 -12.396 -24.647  0.00  0.00    +0.221 C 
ATOM     23  H   UNL     1      34.786 -11.417 -23.040  0.00  0.00    +0.150 HD
BRANCH  21  24
ATOM     24  C   UNL     1      34.807 -10.065 -24.652  0.00  0.00    +0.205 C 
BRANCH  24  27
ATOM     25  O   UNL     1      35.082  -8.108 -23.371  0.00  0.00    -0.244 OA
ATOM     26  O   UNL     1      32.967  -8.828 -23.859  0.00  0.00    -0.244 OA
ATOM     27  C   UNL     1      34.229  -8.883 -23.887  0.00  0.00    +0.385 C 
ENDBRANCH  24  27
ENDBRANCH  21  24
ENDBRANCH  19  22
BRANCH  19  28
ATOM     28  C   UNL     1      32.375 -13.800 -23.229  0.00  0.00    +0.033 C 
BRANCH  28  29
ATOM     29  C   UNL     1      32.044 -12.880 -22.076  0.00  0.00    -0.022 C 
ATOM     30  C   UNL     1      31.461 -11.636 -22.321  0.00  0.00    -0.004 C 
ATOM     31  C   UNL     1      32.319 -13.275 -20.767  0.00  0.00    -0.004 C 
ATOM     32  C   UNL     1      31.155 -10.788 -21.258  0.00  0.00    -0.000 C 
ATOM     33  C   UNL     1      32.013 -12.426 -19.703  0.00  0.00    -0.000 C 
ATOM     34  C   UNL     1      31.429 -11.183 -19.948  0.00  0.00    -0.000 C 
ENDBRANCH  28  29
ENDBRANCH  19  28
ENDBRANCH  18  19
ENDBRANCH   1  18
TORSDOF 9
ENDMDL
MODEL 5
REMARK VINA RESULT:      -8.7     11.019     14.075
REMARK  Name = 51397022
REMARK  9 active torsions:
REMARK  status: ('A' for Active; 'I' for Inactive)
REMARK    1  A    between atoms: N_1  and  C_18
REMARK    2  A    between atoms: C_2  and  C_10
REMARK    3  A    between atoms: C_13  and  O_16
REMARK    4  A    between atoms: C_18  and  C_19
REMARK    5  A    between atoms: C_19  and  C_22
REMARK    6  A    between atoms: C_19  and  C_28
REMARK    7  A    between atoms: N_21  and  C_24
REMARK    8  A    between atoms: C_24  and  C_27
REMARK    9  A    between atoms: C_28  and  C_29
REMARK                            x       y       z     vdW  Elec       q    Type
REMARK                         _______ _______ _______ _____ _____    ______ ____
ROOT
ATOM      1  N   UNL     1      33.666 -23.424 -13.671  0.00  0.00    +0.387 N 
ATOM      2  C   UNL     1      30.837 -24.008 -14.433  0.00  0.00    +0.015 C 
ATOM      3  C   UNL     1      32.065 -24.377 -15.346  0.00  0.00    -0.017 C 
ATOM      4  C   UNL     1      33.343 -24.622 -14.525  0.00  0.00    -0.077 C 
ATOM      5  C   UNL     1      31.259 -22.843 -13.487  0.00  0.00    -0.019 C 
ATOM      6  C   UNL     1      32.554 -23.085 -12.716  0.00  0.00    -0.077 C 
ATOM      7  C   UNL     1      30.381 -25.227 -13.611  0.00  0.00    +0.004 C 
ATOM      8  C   UNL     1      32.342 -23.341 -16.452  0.00  0.00    -0.002 C 
ATOM      9  H   UNL     1      33.760 -22.630 -14.305  0.00  0.00    -0.080 HD
ENDROOT
BRANCH   2  10
ATOM     10  C   UNL     1      29.651 -23.576 -15.247  0.00  0.00    -0.020 C 
ATOM     11  C   UNL     1      29.076 -24.457 -16.164  0.00  0.00    +0.032 C 
ATOM     12  C   UNL     1      29.124 -22.295 -15.087  0.00  0.00    -0.004 C 
ATOM     13  C   UNL     1      27.975 -24.057 -16.920  0.00  0.00    +0.133 C 
ATOM     14  C   UNL     1      28.023 -21.893 -15.844  0.00  0.00    +0.003 C 
ATOM     15  C   UNL     1      27.448 -22.775 -16.760  0.00  0.00    +0.037 C 
BRANCH  13  16
ATOM     16  O   UNL     1      27.416 -24.916 -17.815  0.00  0.00    -0.506 OA
ATOM     17  H   UNL     1      26.860 -24.589 -18.494  0.00  0.00    +0.292 HD
ENDBRANCH  13  16
ENDBRANCH   2  10
BRANCH   1  18
ATOM     18  C   UNL     1      34.978 -23.593 -12.954  0.00  0.00    -0.068 C 
BRANCH  18  19
ATOM     19  C   UNL     1      36.165 -23.238 -13.860  0.00  0.00    +0.060 C 
BRANCH  19  22
ATOM     20  O   UNL     1      37.995 -22.920 -12.291  0.00  0.00    -0.275 OA
ATOM     21  N   UNL     1      38.029 -24.785 -13.665  0.00  0.00    -0.295 N 
ATOM     22  C   UNL     1      37.482 -23.611 -13.169  0.00  0.00    +0.221 C 
ATOM     23  H   UNL     1      37.546 -25.274 -14.371  0.00  0.00    +0.150 HD
BRANCH  21  24
ATOM     24  C   UNL     1      39.281 -25.315 -13.182  0.00  0.00    +0.205 C 
BRANCH  24  27
ATOM     25  O   UNL     1      41.097 -24.776 -14.581  0.00  0.00    -0.244 OA
ATOM     26  O   UNL     1      40.039 -26.783 -14.859  0.00  0.00    -0.244 OA
ATOM     27  C   UNL     1      40.234 -25.659 -14.317  0.00  0.00    +0.385 C 
ENDBRANCH  24  27
ENDBRANCH  21  24
ENDBRANCH  19  22
BRANCH  19  28
ATOM     28  C   UNL     1      36.041 -23.871 -15.260  0.00  0.00    +0.033 C 
BRANCH  28  29
ATOM     29  C   UNL     1      36.231 -22.873 -16.380  0.00  0.00    -0.022 C 
ATOM     30  C   UNL     1      35.317 -22.822 -17.432  0.00  0.00    -0.004 C 
ATOM     31  C   UNL     1      37.321 -22.003 -16.360  0.00  0.00    -0.004 C 
ATOM     32  C   UNL     1      35.492 -21.901 -18.464  0.00  0.00    -0.000 C 
ATOM     33  C   UNL     1      37.497 -21.082 -17.392  0.00  0.00    -0.000 C 
ATOM     34  C   UNL     1      36.581 -21.029 -18.444  0.00  0.00    -0.000 C 
ENDBRANCH  28  29
ENDBRANCH  19  28
ENDBRANCH  18  19
ENDBRANCH   1  18
TORSDOF 9
ENDMDL
MODEL 6
REMARK VINA RESULT:      -8.7      2.401      8.221
REMARK  Name = 51397022
REMARK  9 active torsions:
REMARK  status: ('A' for Active; 'I' for Inactive)
REMARK    1  A    between atoms: N_1  and  C_18
REMARK    2  A    between atoms: C_2  and  C_10
REMARK    3  A    between atoms: C_13  and  O_16
REMARK    4  A    between atoms: C_18  and  C_19
REMARK    5  A    between atoms: C_19  and  C_22
REMARK    6  A    between atoms: C_19  and  C_28
REMARK    7  A    between atoms: N_21  and  C_24
REMARK    8  A    between atoms: C_24  and  C_27
REMARK    9  A    between atoms: C_28  and  C_29
REMARK                            x       y       z     vdW  Elec       q    Type
REMARK                         _______ _______ _______ _____ _____    ______ ____
ROOT
ATOM      1  N   UNL     1      32.644 -13.920 -21.352  0.00  0.00    +0.387 N 
ATOM      2  C   UNL     1      31.570 -11.134 -21.307  0.00  0.00    +0.015 C 
ATOM      3  C   UNL     1      31.878 -11.912 -22.639  0.00  0.00    -0.017 C 
ATOM      4  C   UNL     1      31.749 -13.435 -22.463  0.00  0.00    -0.077 C 
ATOM      5  C   UNL     1      32.432 -11.751 -20.165  0.00  0.00    -0.019 C 
ATOM      6  C   UNL     1      32.327 -13.268 -20.035  0.00  0.00    -0.077 C 
ATOM      7  C   UNL     1      30.073 -11.222 -20.956  0.00  0.00    +0.004 C 
ATOM      8  C   UNL     1      33.250 -11.569 -23.249  0.00  0.00    -0.002 C 
ATOM      9  H   UNL     1      33.594 -13.639 -21.598  0.00  0.00    -0.080 HD
ENDROOT
BRANCH   2  10
ATOM     10  C   UNL     1      31.890  -9.671 -21.432  0.00  0.00    -0.020 C 
ATOM     11  C   UNL     1      32.397  -8.972 -20.337  0.00  0.00    +0.032 C 
ATOM     12  C   UNL     1      31.681  -9.012 -22.644  0.00  0.00    -0.004 C 
ATOM     13  C   UNL     1      32.694  -7.615 -20.452  0.00  0.00    +0.133 C 
ATOM     14  C   UNL     1      31.977  -7.654 -22.760  0.00  0.00    +0.003 C 
ATOM     15  C   UNL     1      32.484  -6.956 -21.665  0.00  0.00    +0.037 C 
BRANCH  13  16
ATOM     16  O   UNL     1      33.187  -6.933 -19.383  0.00  0.00    -0.506 OA
ATOM     17  H   UNL     1      33.109  -6.000 -19.346  0.00  0.00    +0.292 HD
ENDBRANCH  13  16
ENDBRANCH   2  10
BRANCH   1  18
ATOM     18  C   UNL     1      32.627 -15.421 -21.244  0.00  0.00    -0.068 C 
BRANCH  18  19
ATOM     19  C   UNL     1      33.755 -16.059 -22.068  0.00  0.00    +0.060 C 
BRANCH  19  22
ATOM     20  O   UNL     1      34.997 -14.159 -22.940  0.00  0.00    -0.275 OA
ATOM     21  N   UNL     1      33.652 -15.362 -24.393  0.00  0.00    -0.295 N 
ATOM     22  C   UNL     1      34.221 -15.088 -23.158  0.00  0.00    +0.221 C 
ATOM     23  H   UNL     1      33.040 -16.129 -24.476  0.00  0.00    +0.150 HD
BRANCH  21  24
ATOM     24  C   UNL     1      33.926 -14.560 -25.562  0.00  0.00    +0.205 C 
BRANCH  24  27
ATOM     25  O   UNL     1      32.482 -13.650 -27.183  0.00  0.00    -0.244 OA
ATOM     26  O   UNL     1      32.473 -15.909 -26.830  0.00  0.00    -0.244 OA
ATOM     27  C   UNL     1      32.857 -14.722 -26.631  0.00  0.00    +0.385 C 
ENDBRANCH  24  27
ENDBRANCH  21  24
ENDBRANCH  19  22
BRANCH  19  28
ATOM     28  C   UNL     1      34.920 -16.547 -21.184  0.00  0.00    +0.033 C 
BRANCH  28  29
ATOM     29  C   UNL     1      34.909 -18.042 -20.962  0.00  0.00    -0.022 C 
ATOM     30  C   UNL     1      33.696 -18.731 -20.908  0.00  0.00    -0.004 C 
ATOM     31  C   UNL     1      36.111 -18.734 -20.813  0.00  0.00    -0.004 C 
ATOM     32  C   UNL     1      33.686 -20.110 -20.704  0.00  0.00    -0.000 C 
ATOM     33  C   UNL     1      36.101 -20.114 -20.608  0.00  0.00    -0.000 C 
ATOM     34  C   UNL     1      34.888 -20.802 -20.556  0.00  0.00    -0.000 C 
ENDBRANCH  28  29
ENDBRANCH  19  28
ENDBRANCH  18  19
ENDBRANCH   1  18
TORSDOF 9
ENDMDL
MODEL 7
REMARK VINA RESULT:      -8.5      9.894     13.373
REMARK  Name = 51397022
REMARK  9 active torsions:
REMARK  status: ('A' for Active; 'I' for Inactive)
REMARK    1  A    between atoms: N_1  and  C_18
REMARK    2  A    between atoms: C_2  and  C_10
REMARK    3  A    between atoms: C_13  and  O_16
REMARK    4  A    between atoms: C_18  and  C_19
REMARK    5  A    between atoms: C_19  and  C_22
REMARK    6  A    between atoms: C_19  and  C_28
REMARK    7  A    between atoms: N_21  and  C_24
REMARK    8  A    between atoms: C_24  and  C_27
REMARK    9  A    between atoms: C_28  and  C_29
REMARK                            x       y       z     vdW  Elec       q    Type
REMARK                         _______ _______ _______ _____ _____    ______ ____
ROOT
ATOM      1  N   UNL     1      32.766 -23.206 -14.805  0.00  0.00    +0.387 N 
ATOM      2  C   UNL     1      29.851 -23.626 -15.304  0.00  0.00    +0.015 C 
ATOM      3  C   UNL     1      30.932 -23.675 -16.446  0.00  0.00    -0.017 C 
ATOM      4  C   UNL     1      32.311 -24.111 -15.921  0.00  0.00    -0.077 C 
ATOM      5  C   UNL     1      30.417 -22.778 -14.125  0.00  0.00    -0.019 C 
ATOM      6  C   UNL     1      31.805 -23.195 -13.648  0.00  0.00    -0.077 C 
ATOM      7  C   UNL     1      29.501 -25.046 -14.821  0.00  0.00    +0.004 C 
ATOM      8  C   UNL     1      31.062 -22.353 -17.227  0.00  0.00    -0.002 C 
ATOM      9  H   UNL     1      32.779 -22.259 -15.184  0.00  0.00    -0.080 HD
ENDROOT
BRANCH   2  10
ATOM     10  C   UNL     1      28.566 -23.011 -15.782  0.00  0.00    -0.020 C 
ATOM     11  C   UNL     1      28.232 -23.058 -17.135  0.00  0.00    +0.032 C 
ATOM     12  C   UNL     1      27.708 -22.393 -14.873  0.00  0.00    -0.004 C 
ATOM     13  C   UNL     1      27.040 -22.487 -17.579  0.00  0.00    +0.133 C 
ATOM     14  C   UNL     1      26.516 -21.821 -15.316  0.00  0.00    +0.003 C 
ATOM     15  C   UNL     1      26.182 -21.869 -16.669  0.00  0.00    +0.037 C 
BRANCH  13  16
ATOM     16  O   UNL     1      26.714 -22.533 -18.900  0.00  0.00    -0.506 OA
ATOM     17  H   UNL     1      26.960 -23.274 -19.418  0.00  0.00    +0.292 HD
ENDBRANCH  13  16
ENDBRANCH   2  10
BRANCH   1  18
ATOM     18  C   UNL     1      34.164 -23.538 -14.359  0.00  0.00    -0.068 C 
BRANCH  18  19
ATOM     19  C   UNL     1      35.213 -22.988 -15.336  0.00  0.00    +0.060 C 
BRANCH  19  22
ATOM     20  O   UNL     1      37.565 -22.435 -15.063  0.00  0.00    -0.275 OA
ATOM     21  N   UNL     1      36.696 -24.205 -13.846  0.00  0.00    -0.295 N 
ATOM     22  C   UNL     1      36.618 -23.152 -14.745  0.00  0.00    +0.221 C 
ATOM     23  H   UNL     1      35.884 -24.727 -13.651  0.00  0.00    +0.150 HD
BRANCH  21  24
ATOM     24  C   UNL     1      37.929 -24.563 -13.186  0.00  0.00    +0.205 C 
BRANCH  24  27
ATOM     25  O   UNL     1      37.207 -24.327 -10.957  0.00  0.00    -0.244 OA
ATOM     26  O   UNL     1      38.969 -23.069 -11.693  0.00  0.00    -0.244 OA
ATOM     27  C   UNL     1      38.048 -23.925 -11.810  0.00  0.00    +0.385 C 
ENDBRANCH  24  27
ENDBRANCH  21  24
ENDBRANCH  19  22
BRANCH  19  28
ATOM     28  C   UNL     1      35.093 -23.618 -16.738  0.00  0.00    +0.033 C 
BRANCH  28  29
ATOM     29  C   UNL     1      35.149 -22.598 -17.853  0.00  0.00    -0.022 C 
ATOM     30  C   UNL     1      36.334 -21.906 -18.107  0.00  0.00    -0.004 C 
ATOM     31  C   UNL     1      34.016 -22.349 -18.627  0.00  0.00    -0.004 C 
ATOM     32  C   UNL     1      36.385 -20.966 -19.135  0.00  0.00    -0.000 C 
ATOM     33  C   UNL     1      34.067 -21.408 -19.656  0.00  0.00    -0.000 C 
ATOM     34  C   UNL     1      35.253 -20.717 -19.911  0.00  0.00    -0.000 C 
ENDBRANCH  28  29
ENDBRANCH  19  28
ENDBRANCH  18  19
ENDBRANCH   1  18
TORSDOF 9
ENDMDL
MODEL 8
REMARK VINA RESULT:      -8.5      2.840      9.052
REMARK  Name = 51397022
REMARK  9 active torsions:
REMARK  status: ('A' for Active; 'I' for Inactive)
REMARK    1  A    between atoms: N_1  and  C_18
REMARK    2  A    between atoms: C_2  and  C_10
REMARK    3  A    between atoms: C_13  and  O_16
REMARK    4  A    between atoms: C_18  and  C_19
REMARK    5  A    between atoms: C_19  and  C_22
REMARK    6  A    between atoms: C_19  and  C_28
REMARK    7  A    between atoms: N_21  and  C_24
REMARK    8  A    between atoms: C_24  and  C_27
REMARK    9  A    between atoms: C_28  and  C_29
REMARK                            x       y       z     vdW  Elec       q    Type
REMARK                         _______ _______ _______ _____ _____    ______ ____
ROOT
ATOM      1  N   UNL     1      33.682 -10.703 -24.062  0.00  0.00    +0.387 N 
ATOM      2  C   UNL     1      33.862  -7.721 -24.056  0.00  0.00    +0.015 C 
ATOM      3  C   UNL     1      32.764  -8.516 -23.255  0.00  0.00    -0.017 C 
ATOM      4  C   UNL     1      33.246  -9.920 -22.850  0.00  0.00    -0.077 C 
ATOM      5  C   UNL     1      34.365  -8.620 -25.226  0.00  0.00    -0.019 C 
ATOM      6  C   UNL     1      34.795 -10.024 -24.812  0.00  0.00    -0.077 C 
ATOM      7  C   UNL     1      35.034  -7.332 -23.137  0.00  0.00    +0.004 C 
ATOM      8  C   UNL     1      31.416  -8.616 -23.994  0.00  0.00    -0.002 C 
ATOM      9  H   UNL     1      32.880 -10.736 -24.692  0.00  0.00    -0.080 HD
ENDROOT
BRANCH   2  10
ATOM     10  C   UNL     1      33.318  -6.438 -24.618  0.00  0.00    -0.020 C 
ATOM     11  C   UNL     1      32.279  -5.776 -23.965  0.00  0.00    +0.032 C 
ATOM     12  C   UNL     1      33.853  -5.910 -25.793  0.00  0.00    -0.004 C 
ATOM     13  C   UNL     1      31.774  -4.585 -24.486  0.00  0.00    +0.133 C 
ATOM     14  C   UNL     1      33.348  -4.719 -26.315  0.00  0.00    +0.003 C 
ATOM     15  C   UNL     1      32.309  -4.057 -25.662  0.00  0.00    +0.037 C 
BRANCH  13  16
ATOM     16  O   UNL     1      30.759  -3.940 -23.849  0.00  0.00    -0.506 OA
ATOM     17  H   UNL     1      30.513  -3.076 -24.116  0.00  0.00    +0.292 HD
ENDBRANCH  13  16
ENDBRANCH   2  10
BRANCH   1  18
ATOM     18  C   UNL     1      34.040 -12.120 -23.704  0.00  0.00    -0.068 C 
BRANCH  18  19
ATOM     19  C   UNL     1      32.837 -13.061 -23.856  0.00  0.00    +0.060 C 
BRANCH  19  22
ATOM     20  O   UNL     1      32.778 -13.999 -26.099  0.00  0.00    -0.275 OA
ATOM     21  N   UNL     1      33.802 -15.219 -24.416  0.00  0.00    -0.295 N 
ATOM     22  C   UNL     1      33.130 -14.119 -24.927  0.00  0.00    +0.221 C 
ATOM     23  H   UNL     1      34.045 -15.229 -23.462  0.00  0.00    +0.150 HD
BRANCH  21  24
ATOM     24  C   UNL     1      34.159 -16.351 -25.238  0.00  0.00    +0.205 C 
BRANCH  24  27
ATOM     25  O   UNL     1      35.253 -17.196 -23.331  0.00  0.00    -0.244 OA
ATOM     26  O   UNL     1      34.484 -18.660 -24.911  0.00  0.00    -0.244 OA
ATOM     27  C   UNL     1      34.681 -17.517 -24.411  0.00  0.00    +0.385 C 
ENDBRANCH  24  27
ENDBRANCH  21  24
ENDBRANCH  19  22
BRANCH  19  28
ATOM     28  C   UNL     1      32.415 -13.692 -22.513  0.00  0.00    +0.033 C 
BRANCH  28  29
ATOM     29  C   UNL     1      31.866 -12.681 -21.532  0.00  0.00    -0.022 C 
ATOM     30  C   UNL     1      30.880 -11.780 -21.936  0.00  0.00    -0.004 C 
ATOM     31  C   UNL     1      32.344 -12.651 -20.222  0.00  0.00    -0.004 C 
ATOM     32  C   UNL     1      30.373 -10.849 -21.030  0.00  0.00    -0.000 C 
ATOM     33  C   UNL     1      31.837 -11.719 -19.316  0.00  0.00    -0.000 C 
ATOM     34  C   UNL     1      30.850 -10.819 -19.720  0.00  0.00    -0.000 C 
ENDBRANCH  28  29
ENDBRANCH  19  28
ENDBRANCH  18  19
ENDBRANCH   1  18
TORSDOF 9
ENDMDL
MODEL 9
REMARK VINA RESULT:      -8.5      3.151      5.427
REMARK  Name = 51397022
REMARK  9 active torsions:
REMARK  status: ('A' for Active; 'I' for Inactive)
REMARK    1  A    between atoms: N_1  and  C_18
REMARK    2  A    between atoms: C_2  and  C_10
REMARK    3  A    between atoms: C_13  and  O_16
REMARK    4  A    between atoms: C_18  and  C_19
REMARK    5  A    between atoms: C_19  and  C_22
REMARK    6  A    between atoms: C_19  and  C_28
REMARK    7  A    between atoms: N_21  and  C_24
REMARK    8  A    between atoms: C_24  and  C_27
REMARK    9  A    between atoms: C_28  and  C_29
REMARK                            x       y       z     vdW  Elec       q    Type
REMARK                         _______ _______ _______ _____ _____    ______ ____
ROOT
ATOM      1  N   UNL     1      35.601 -18.537 -21.751  0.00  0.00    +0.387 N 
ATOM      2  C   UNL     1      35.564 -21.110 -20.233  0.00  0.00    +0.015 C 
ATOM      3  C   UNL     1      34.348 -20.606 -21.096  0.00  0.00    -0.017 C 
ATOM      4  C   UNL     1      34.798 -19.707 -22.261  0.00  0.00    -0.077 C 
ATOM      5  C   UNL     1      36.427 -19.876 -19.831  0.00  0.00    -0.019 C 
ATOM      6  C   UNL     1      36.825 -18.970 -20.992  0.00  0.00    -0.077 C 
ATOM      7  C   UNL     1      36.413 -22.123 -21.022  0.00  0.00    +0.004 C 
ATOM      8  C   UNL     1      33.262 -19.892 -20.270  0.00  0.00    -0.002 C 
ATOM      9  H   UNL     1      35.004 -18.042 -21.088  0.00  0.00    -0.080 HD
ENDROOT
BRANCH   2  10
ATOM     10  C   UNL     1      35.106 -21.818 -18.990  0.00  0.00    -0.020 C 
ATOM     11  C   UNL     1      35.935 -21.867 -17.869  0.00  0.00    +0.032 C 
ATOM     12  C   UNL     1      33.851 -22.427 -18.956  0.00  0.00    -0.004 C 
ATOM     13  C   UNL     1      35.510 -22.524 -16.715  0.00  0.00    +0.133 C 
ATOM     14  C   UNL     1      33.426 -23.085 -17.802  0.00  0.00    +0.003 C 
ATOM     15  C   UNL     1      34.255 -23.134 -16.681  0.00  0.00    +0.037 C 
BRANCH  13  16
ATOM     16  O   UNL     1      36.320 -22.572 -15.622  0.00  0.00    -0.506 OA
ATOM     17  H   UNL     1      36.080 -22.114 -14.841  0.00  0.00    +0.292 HD
ENDBRANCH  13  16
ENDBRANCH   2  10
BRANCH   1  18
ATOM     18  C   UNL     1      35.946 -17.579 -22.858  0.00  0.00    -0.068 C 
BRANCH  18  19
ATOM     19  C   UNL     1      34.863 -16.505 -23.032  0.00  0.00    +0.060 C 
BRANCH  19  22
ATOM     20  O   UNL     1      34.170 -17.648 -25.063  0.00  0.00    -0.275 OA
ATOM     21  N   UNL     1      33.855 -15.357 -24.921  0.00  0.00    -0.295 N 
ATOM     22  C   UNL     1      34.258 -16.593 -24.438  0.00  0.00    +0.221 C 
ATOM     23  H   UNL     1      33.964 -14.563 -24.349  0.00  0.00    +0.150 HD
BRANCH  21  24
ATOM     24  C   UNL     1      33.281 -15.195 -26.236  0.00  0.00    +0.205 C 
BRANCH  24  27
ATOM     25  O   UNL     1      33.854 -13.711 -27.972  0.00  0.00    -0.244 OA
ATOM     26  O   UNL     1      33.215 -12.859 -25.948  0.00  0.00    -0.244 OA
ATOM     27  C   UNL     1      33.467 -13.783 -26.772  0.00  0.00    +0.385 C 
ENDBRANCH  24  27
ENDBRANCH  21  24
ENDBRANCH  19  22
BRANCH  19  28
ATOM     28  C   UNL     1      33.788 -16.575 -21.929  0.00  0.00    +0.033 C 
BRANCH  28  29
ATOM     29  C   UNL     1      33.174 -15.229 -21.614  0.00  0.00    -0.022 C 
ATOM     30  C   UNL     1      32.817 -14.366 -22.650  0.00  0.00    -0.004 C 
ATOM     31  C   UNL     1      32.965 -14.852 -20.288  0.00  0.00    -0.004 C 
ATOM     32  C   UNL     1      32.250 -13.126 -22.359  0.00  0.00    -0.000 C 
ATOM     33  C   UNL     1      32.399 -13.611 -19.997  0.00  0.00    -0.000 C 
ATOM     34  C   UNL     1      32.039 -12.748 -21.033  0.00  0.00    -0.000 C 
ENDBRANCH  28  29
ENDBRANCH  19  28
ENDBRANCH  18  19
ENDBRANCH   1  18
TORSDOF 9
ENDMDL
