MODEL 1
REMARK VINA RESULT:      -9.5      0.000      0.000
REMARK  Name = 3386
REMARK  7 active torsions:
REMARK  status: ('A' for Active; 'I' for Inactive)
REMARK    1  A    between atoms: C_1  and  C_2
REMARK    2  A    between atoms: C_1  and  O_8
REMARK    3  A    between atoms: C_1  and  C_19
REMARK    4  A    between atoms: O_8  and  C_9
REMARK    5  A    between atoms: C_12  and  C_18
REMARK    6  A    between atoms: C_19  and  C_20
REMARK    7  A    between atoms: C_20  and  N_21
REMARK                            x       y       z     vdW  Elec       q    Type
REMARK                         _______ _______ _______ _____ _____    ______ ____
ROOT
ATOM      1  C   UNL     1      34.131 -23.066 -16.321  0.00  0.00    +0.186 C 
ENDROOT
BRANCH   1   2
ATOM      2  C   UNL     1      32.826 -23.498 -15.693  0.00  0.00    +0.017 C 
ATOM      3  C   UNL     1      32.848 -24.201 -14.500  0.00  0.00    -0.001 C 
ATOM      4  C   UNL     1      31.633 -23.183 -16.323  0.00  0.00    -0.001 C 
ATOM      5  C   UNL     1      31.644 -24.601 -13.921  0.00  0.00    -0.000 C 
ATOM      6  C   UNL     1      30.429 -23.583 -15.744  0.00  0.00    -0.000 C 
ATOM      7  C   UNL     1      30.434 -24.292 -14.544  0.00  0.00    -0.000 C 
ENDBRANCH   1   2
BRANCH   1   8
ATOM      8  O   UNL     1      34.071 -23.372 -17.715  0.00  0.00    -0.475 OA
BRANCH   8   9
ATOM      9  C   UNL     1      34.274 -22.377 -18.592  0.00  0.00    +0.139 C 
ATOM     10  C   UNL     1      35.577 -21.971 -18.924  0.00  0.00    +0.037 C 
ATOM     11  C   UNL     1      33.191 -21.720 -19.197  0.00  0.00    +0.037 C 
ATOM     12  C   UNL     1      34.704 -20.294 -20.427  0.00  0.00    +0.072 C 
ATOM     13  C   UNL     1      35.791 -20.937 -19.835  0.00  0.00    +0.007 C 
ATOM     14  C   UNL     1      33.404 -20.685 -20.108  0.00  0.00    +0.007 C 
BRANCH  12  18
ATOM     15  F   UNL     1      34.707 -19.547 -22.700  0.00  0.00    -0.166 F 
ATOM     16  F   UNL     1      34.134 -18.100 -21.191  0.00  0.00    -0.166 F 
ATOM     17  F   UNL     1      36.212 -18.715 -21.370  0.00  0.00    -0.166 F 
ATOM     18  C   UNL     1      34.932 -19.188 -21.402  0.00  0.00    +0.419 C 
ENDBRANCH  12  18
ENDBRANCH   8   9
ENDBRANCH   1   8
BRANCH   1  19
ATOM     19  C   UNL     1      35.370 -23.742 -15.711  0.00  0.00    +0.025 C 
BRANCH  19  20
ATOM     20  C   UNL     1      36.531 -22.773 -15.487  0.00  0.00    -0.078 C 
BRANCH  20  21
ATOM     21  N   UNL     1      37.799 -23.429 -15.782  0.00  0.00    +0.382 N 
ATOM     22  C   UNL     1      38.072 -24.486 -14.818  0.00  0.00    -0.106 C 
ATOM     23  H   UNL     1      38.549 -22.739 -15.743  0.00  0.00    -0.085 HD
ATOM     24  H   UNL     1      37.744 -23.842 -16.712  0.00  0.00    -0.085 HD
ENDBRANCH  20  21
ENDBRANCH  19  20
ENDBRANCH   1  19
TORSDOF 7
ENDMDL
MODEL 2
REMARK VINA RESULT:      -8.9      4.586      8.350
REMARK  Name = 3386
REMARK  7 active torsions:
REMARK  status: ('A' for Active; 'I' for Inactive)
REMARK    1  A    between atoms: C_1  and  C_2
REMARK    2  A    between atoms: C_1  and  O_8
REMARK    3  A    between atoms: C_1  and  C_19
REMARK    4  A    between atoms: O_8  and  C_9
REMARK    5  A    between atoms: C_12  and  C_18
REMARK    6  A    between atoms: C_19  and  C_20
REMARK    7  A    between atoms: C_20  and  N_21
REMARK                            x       y       z     vdW  Elec       q    Type
REMARK                         _______ _______ _______ _____ _____    ______ ____
ROOT
ATOM      1  C   UNL     1      34.597 -18.323 -22.370  0.00  0.00    +0.186 C 
ENDROOT
BRANCH   1   2
ATOM      2  C   UNL     1      34.180 -16.968 -21.847  0.00  0.00    +0.017 C 
ATOM      3  C   UNL     1      35.006 -15.876 -22.057  0.00  0.00    -0.001 C 
ATOM      4  C   UNL     1      32.978 -16.844 -21.169  0.00  0.00    -0.001 C 
ATOM      5  C   UNL     1      34.621 -14.626 -21.574  0.00  0.00    -0.000 C 
ATOM      6  C   UNL     1      32.592 -15.594 -20.686  0.00  0.00    -0.000 C 
ATOM      7  C   UNL     1      33.413 -14.485 -20.888  0.00  0.00    -0.000 C 
ENDBRANCH   1   2
BRANCH   1   8
ATOM      8  O   UNL     1      35.505 -18.897 -21.428  0.00  0.00    -0.475 OA
BRANCH   8   9
ATOM      9  C   UNL     1      35.058 -19.883 -20.636  0.00  0.00    +0.139 C 
ATOM     10  C   UNL     1      35.957 -20.684 -19.912  0.00  0.00    +0.037 C 
ATOM     11  C   UNL     1      33.683 -20.138 -20.513  0.00  0.00    +0.037 C 
ATOM     12  C   UNL     1      34.125 -21.951 -18.979  0.00  0.00    +0.072 C 
ATOM     13  C   UNL     1      35.494 -21.710 -19.089  0.00  0.00    +0.007 C 
ATOM     14  C   UNL     1      33.218 -21.165 -19.691  0.00  0.00    +0.007 C 
BRANCH  12  18
ATOM     15  F   UNL     1      34.387 -23.237 -16.978  0.00  0.00    -0.166 F 
ATOM     16  F   UNL     1      32.359 -22.847 -17.637  0.00  0.00    -0.166 F 
ATOM     17  F   UNL     1      33.602 -24.258 -18.730  0.00  0.00    -0.166 F 
ATOM     18  C   UNL     1      33.629 -23.048 -18.098  0.00  0.00    +0.419 C 
ENDBRANCH  12  18
ENDBRANCH   8   9
ENDBRANCH   1   8
BRANCH   1  19
ATOM     19  C   UNL     1      35.272 -18.277 -23.752  0.00  0.00    +0.025 C 
BRANCH  19  20
ATOM     20  C   UNL     1      34.300 -17.932 -24.880  0.00  0.00    -0.078 C 
BRANCH  20  21
ATOM     21  N   UNL     1      34.706 -16.693 -25.534  0.00  0.00    +0.382 N 
ATOM     22  C   UNL     1      33.614 -15.730 -25.544  0.00  0.00    -0.106 C 
ATOM     23  H   UNL     1      34.982 -16.896 -26.494  0.00  0.00    -0.085 HD
ATOM     24  H   UNL     1      35.489 -16.293 -25.016  0.00  0.00    -0.085 HD
ENDBRANCH  20  21
ENDBRANCH  19  20
ENDBRANCH   1  19
TORSDOF 7
ENDMDL
MODEL 3
REMARK VINA RESULT:      -8.9      4.844      8.532
REMARK  Name = 3386
REMARK  7 active torsions:
REMARK  status: ('A' for Active; 'I' for Inactive)
REMARK    1  A    between atoms: C_1  and  C_2
REMARK    2  A    between atoms: C_1  and  O_8
REMARK    3  A    between atoms: C_1  and  C_19
REMARK    4  A    between atoms: O_8  and  C_9
REMARK    5  A    between atoms: C_12  and  C_18
REMARK    6  A    between atoms: C_19  and  C_20
REMARK    7  A    between atoms: C_20  and  N_21
REMARK                            x       y       z     vdW  Elec       q    Type
REMARK                         _______ _______ _______ _____ _____    ______ ____
ROOT
ATOM      1  C   UNL     1      34.347 -16.774 -22.854  0.00  0.00    +0.186 C 
ENDROOT
BRANCH   1   2
ATOM      2  C   UNL     1      33.637 -15.554 -22.316  0.00  0.00    +0.017 C 
ATOM      3  C   UNL     1      33.481 -15.408 -20.947  0.00  0.00    -0.001 C 
ATOM      4  C   UNL     1      33.157 -14.603 -23.202  0.00  0.00    -0.001 C 
ATOM      5  C   UNL     1      32.825 -14.282 -20.450  0.00  0.00    -0.000 C 
ATOM      6  C   UNL     1      32.501 -13.476 -22.705  0.00  0.00    -0.000 C 
ATOM      7  C   UNL     1      32.336 -13.316 -21.330  0.00  0.00    -0.000 C 
ENDBRANCH   1   2
BRANCH   1   8
ATOM      8  O   UNL     1      35.300 -17.196 -21.876  0.00  0.00    -0.475 OA
BRANCH   8   9
ATOM      9  C   UNL     1      35.106 -18.377 -21.270  0.00  0.00    +0.139 C 
ATOM     10  C   UNL     1      36.197 -19.134 -20.813  0.00  0.00    +0.037 C 
ATOM     11  C   UNL     1      33.810 -18.882 -21.079  0.00  0.00    +0.037 C 
ATOM     12  C   UNL     1      34.705 -20.851 -20.002  0.00  0.00    +0.072 C 
ATOM     13  C   UNL     1      35.998 -20.362 -20.184  0.00  0.00    +0.007 C 
ATOM     14  C   UNL     1      33.610 -20.111 -20.449  0.00  0.00    +0.007 C 
BRANCH  12  18
ATOM     15  F   UNL     1      34.706 -23.240 -20.142  0.00  0.00    -0.166 F 
ATOM     16  F   UNL     1      35.307 -22.365 -18.251  0.00  0.00    -0.166 F 
ATOM     17  F   UNL     1      33.218 -22.312 -18.856  0.00  0.00    -0.166 F 
ATOM     18  C   UNL     1      34.491 -22.164 -19.328  0.00  0.00    +0.419 C 
ENDBRANCH  12  18
ENDBRANCH   8   9
ENDBRANCH   1   8
BRANCH   1  19
ATOM     19  C   UNL     1      35.071 -16.535 -24.189  0.00  0.00    +0.025 C 
BRANCH  19  20
ATOM     20  C   UNL     1      34.631 -17.502 -25.290  0.00  0.00    -0.078 C 
BRANCH  20  21
ATOM     21  N   UNL     1      34.026 -18.692 -24.702  0.00  0.00    +0.382 N 
ATOM     22  C   UNL     1      34.958 -19.810 -24.721  0.00  0.00    -0.106 C 
ATOM     23  H   UNL     1      33.194 -18.941 -25.235  0.00  0.00    -0.085 HD
ATOM     24  H   UNL     1      33.780 -18.488 -23.733  0.00  0.00    -0.085 HD
ENDBRANCH  20  21
ENDBRANCH  19  20
ENDBRANCH   1  19
TORSDOF 7
ENDMDL
MODEL 4
REMARK VINA RESULT:      -8.9      6.093      8.774
REMARK  Name = 3386
REMARK  7 active torsions:
REMARK  status: ('A' for Active; 'I' for Inactive)
REMARK    1  A    between atoms: C_1  and  C_2
REMARK    2  A    between atoms: C_1  and  O_8
REMARK    3  A    between atoms: C_1  and  C_19
REMARK    4  A    between atoms: O_8  and  C_9
REMARK    5  A    between atoms: C_12  and  C_18
REMARK    6  A    between atoms: C_19  and  C_20
REMARK    7  A    between atoms: C_20  and  N_21
REMARK                            x       y       z     vdW  Elec       q    Type
REMARK                         _______ _______ _______ _____ _____    ______ ____
ROOT
ATOM      1  C   UNL     1      34.843 -17.101 -21.854  0.00  0.00    +0.186 C 
ENDROOT
BRANCH   1   2
ATOM      2  C   UNL     1      34.934 -18.460 -21.200  0.00  0.00    +0.017 C 
ATOM      3  C   UNL     1      33.771 -19.166 -20.940  0.00  0.00    -0.001 C 
ATOM      4  C   UNL     1      36.178 -18.974 -20.874  0.00  0.00    -0.001 C 
ATOM      5  C   UNL     1      33.854 -20.420 -20.336  0.00  0.00    -0.000 C 
ATOM      6  C   UNL     1      36.262 -20.229 -20.271  0.00  0.00    -0.000 C 
ATOM      7  C   UNL     1      35.101 -20.952 -20.001  0.00  0.00    -0.000 C 
ENDBRANCH   1   2
BRANCH   1   8
ATOM      8  O   UNL     1      33.460 -16.801 -22.056  0.00  0.00    -0.475 OA
BRANCH   8   9
ATOM      9  C   UNL     1      33.029 -15.566 -21.761  0.00  0.00    +0.139 C 
ATOM     10  C   UNL     1      32.754 -14.641 -22.782  0.00  0.00    +0.037 C 
ATOM     11  C   UNL     1      32.845 -15.169 -20.427  0.00  0.00    +0.037 C 
ATOM     12  C   UNL     1      32.129 -12.977 -21.147  0.00  0.00    +0.072 C 
ATOM     13  C   UNL     1      32.307 -13.356 -22.477  0.00  0.00    +0.007 C 
ATOM     14  C   UNL     1      32.398 -13.883 -20.121  0.00  0.00    +0.007 C 
BRANCH  12  18
ATOM     15  F   UNL     1      30.294 -11.461 -20.899  0.00  0.00    -0.166 F 
ATOM     16  F   UNL     1      31.977 -11.195 -19.558  0.00  0.00    -0.166 F 
ATOM     17  F   UNL     1      32.165 -10.653 -21.656  0.00  0.00    -0.166 F 
ATOM     18  C   UNL     1      31.650 -11.602 -20.820  0.00  0.00    +0.419 C 
ENDBRANCH  12  18
ENDBRANCH   8   9
ENDBRANCH   1   8
BRANCH   1  19
ATOM     19  C   UNL     1      35.578 -17.007 -23.202  0.00  0.00    +0.025 C 
BRANCH  19  20
ATOM     20  C   UNL     1      35.170 -18.107 -24.183  0.00  0.00    -0.078 C 
BRANCH  20  21
ATOM     21  N   UNL     1      34.083 -17.641 -25.037  0.00  0.00    +0.382 N 
ATOM     22  C   UNL     1      34.308 -16.266 -25.458  0.00  0.00    -0.106 C 
ATOM     23  H   UNL     1      33.206 -17.694 -24.520  0.00  0.00    -0.085 HD
ATOM     24  H   UNL     1      34.043 -18.234 -25.866  0.00  0.00    -0.085 HD
ENDBRANCH  20  21
ENDBRANCH  19  20
ENDBRANCH   1  19
TORSDOF 7
ENDMDL
MODEL 5
REMARK VINA RESULT:      -8.8      5.045      7.602
REMARK  Name = 3386
REMARK  7 active torsions:
REMARK  status: ('A' for Active; 'I' for Inactive)
REMARK    1  A    between atoms: C_1  and  C_2
REMARK    2  A    between atoms: C_1  and  O_8
REMARK    3  A    between atoms: C_1  and  C_19
REMARK    4  A    between atoms: O_8  and  C_9
REMARK    5  A    between atoms: C_12  and  C_18
REMARK    6  A    between atoms: C_19  and  C_20
REMARK    7  A    between atoms: C_20  and  N_21
REMARK                            x       y       z     vdW  Elec       q    Type
REMARK                         _______ _______ _______ _____ _____    ______ ____
ROOT
ATOM      1  C   UNL     1      35.371 -18.637 -21.500  0.00  0.00    +0.186 C 
ENDROOT
BRANCH   1   2
ATOM      2  C   UNL     1      35.080 -19.854 -20.654  0.00  0.00    +0.017 C 
ATOM      3  C   UNL     1      36.135 -20.574 -20.117  0.00  0.00    -0.001 C 
ATOM      4  C   UNL     1      33.764 -20.226 -20.431  0.00  0.00    -0.001 C 
ATOM      5  C   UNL     1      35.866 -21.698 -19.336  0.00  0.00    -0.000 C 
ATOM      6  C   UNL     1      33.496 -21.350 -19.650  0.00  0.00    -0.000 C 
ATOM      7  C   UNL     1      34.546 -22.086 -19.103  0.00  0.00    -0.000 C 
ENDBRANCH   1   2
BRANCH   1   8
ATOM      8  O   UNL     1      35.252 -17.482 -20.666  0.00  0.00    -0.475 OA
BRANCH   8   9
ATOM      9  C   UNL     1      34.571 -16.427 -21.138  0.00  0.00    +0.139 C 
ATOM     10  C   UNL     1      35.057 -15.692 -22.232  0.00  0.00    +0.037 C 
ATOM     11  C   UNL     1      33.359 -16.032 -20.549  0.00  0.00    +0.037 C 
ATOM     12  C   UNL     1      33.150 -14.215 -22.127  0.00  0.00    +0.072 C 
ATOM     13  C   UNL     1      34.352 -14.595 -22.723  0.00  0.00    +0.007 C 
ATOM     14  C   UNL     1      32.653 -14.933 -21.040  0.00  0.00    +0.007 C 
BRANCH  12  18
ATOM     15  F   UNL     1      31.434 -12.580 -21.798  0.00  0.00    -0.166 F 
ATOM     16  F   UNL     1      33.182 -11.958 -22.920  0.00  0.00    -0.166 F 
ATOM     17  F   UNL     1      31.742 -13.316 -23.820  0.00  0.00    -0.166 F 
ATOM     18  C   UNL     1      32.394 -13.042 -22.653  0.00  0.00    +0.419 C 
ENDBRANCH  12  18
ENDBRANCH   8   9
ENDBRANCH   1   8
BRANCH   1  19
ATOM     19  C   UNL     1      34.434 -18.480 -22.709  0.00  0.00    +0.025 C 
BRANCH  19  20
ATOM     20  C   UNL     1      34.982 -19.133 -23.979  0.00  0.00    -0.078 C 
BRANCH  20  21
ATOM     21  N   UNL     1      34.256 -18.649 -25.148  0.00  0.00    +0.382 N 
ATOM     22  C   UNL     1      34.569 -17.252 -25.410  0.00  0.00    -0.106 C 
ATOM     23  H   UNL     1      33.254 -18.742 -24.980  0.00  0.00    -0.085 HD
ATOM     24  H   UNL     1      34.534 -19.204 -25.957  0.00  0.00    -0.085 HD
ENDBRANCH  20  21
ENDBRANCH  19  20
ENDBRANCH   1  19
TORSDOF 7
ENDMDL
MODEL 6
REMARK VINA RESULT:      -8.8     10.896     14.782
REMARK  Name = 3386
REMARK  7 active torsions:
REMARK  status: ('A' for Active; 'I' for Inactive)
REMARK    1  A    between atoms: C_1  and  C_2
REMARK    2  A    between atoms: C_1  and  O_8
REMARK    3  A    between atoms: C_1  and  C_19
REMARK    4  A    between atoms: O_8  and  C_9
REMARK    5  A    between atoms: C_12  and  C_18
REMARK    6  A    between atoms: C_19  and  C_20
REMARK    7  A    between atoms: C_20  and  N_21
REMARK                            x       y       z     vdW  Elec       q    Type
REMARK                         _______ _______ _______ _____ _____    ______ ____
ROOT
ATOM      1  C   UNL     1      33.181  -8.094 -22.434  0.00  0.00    +0.186 C 
ENDROOT
BRANCH   1   2
ATOM      2  C   UNL     1      33.250  -7.152 -23.613  0.00  0.00    +0.017 C 
ATOM      3  C   UNL     1      32.142  -6.385 -23.934  0.00  0.00    -0.001 C 
ATOM      4  C   UNL     1      34.421  -7.073 -24.350  0.00  0.00    -0.001 C 
ATOM      5  C   UNL     1      32.206  -5.516 -25.022  0.00  0.00    -0.000 C 
ATOM      6  C   UNL     1      34.485  -6.203 -25.439  0.00  0.00    -0.000 C 
ATOM      7  C   UNL     1      33.378  -5.425 -25.775  0.00  0.00    -0.000 C 
ENDBRANCH   1   2
BRANCH   1   8
ATOM      8  O   UNL     1      32.126  -9.027 -22.677  0.00  0.00    -0.475 OA
BRANCH   8   9
ATOM      9  C   UNL     1      32.452 -10.307 -22.910  0.00  0.00    +0.139 C 
ATOM     10  C   UNL     1      33.438 -10.634 -23.856  0.00  0.00    +0.037 C 
ATOM     11  C   UNL     1      31.817 -11.348 -22.214  0.00  0.00    +0.037 C 
ATOM     12  C   UNL     1      33.137 -12.987 -23.401  0.00  0.00    +0.072 C 
ATOM     13  C   UNL     1      33.778 -11.964 -24.099  0.00  0.00    +0.007 C 
ATOM     14  C   UNL     1      32.156 -12.680 -22.458  0.00  0.00    +0.007 C 
BRANCH  12  18
ATOM     15  F   UNL     1      33.189 -14.834 -24.920  0.00  0.00    -0.166 F 
ATOM     16  F   UNL     1      34.835 -14.668 -23.519  0.00  0.00    -0.166 F 
ATOM     17  F   UNL     1      32.870 -15.277 -22.815  0.00  0.00    -0.166 F 
ATOM     18  C   UNL     1      33.501 -14.410 -23.660  0.00  0.00    +0.419 C 
ENDBRANCH  12  18
ENDBRANCH   8   9
ENDBRANCH   1   8
BRANCH   1  19
ATOM     19  C   UNL     1      32.929  -7.392 -21.089  0.00  0.00    +0.025 C 
BRANCH  19  20
ATOM     20  C   UNL     1      31.927  -8.136 -20.206  0.00  0.00    -0.078 C 
BRANCH  20  21
ATOM     21  N   UNL     1      32.609  -9.155 -19.417  0.00  0.00    +0.382 N 
ATOM     22  C   UNL     1      31.680 -10.194 -18.997  0.00  0.00    -0.106 C 
ATOM     23  H   UNL     1      33.019  -8.719 -18.591  0.00  0.00    -0.085 HD
ATOM     24  H   UNL     1      33.336  -9.580 -19.992  0.00  0.00    -0.085 HD
ENDBRANCH  20  21
ENDBRANCH  19  20
ENDBRANCH   1  19
TORSDOF 7
ENDMDL
MODEL 7
REMARK VINA RESULT:      -8.8      9.403     11.865
REMARK  Name = 3386
REMARK  7 active torsions:
REMARK  status: ('A' for Active; 'I' for Inactive)
REMARK    1  A    between atoms: C_1  and  C_2
REMARK    2  A    between atoms: C_1  and  O_8
REMARK    3  A    between atoms: C_1  and  C_19
REMARK    4  A    between atoms: O_8  and  C_9
REMARK    5  A    between atoms: C_12  and  C_18
REMARK    6  A    between atoms: C_19  and  C_20
REMARK    7  A    between atoms: C_20  and  N_21
REMARK                            x       y       z     vdW  Elec       q    Type
REMARK                         _______ _______ _______ _____ _____    ______ ____
ROOT
ATOM      1  C   UNL     1      33.595 -13.840 -24.092  0.00  0.00    +0.186 C 
ENDROOT
BRANCH   1   2
ATOM      2  C   UNL     1      34.141 -15.249 -24.054  0.00  0.00    +0.017 C 
ATOM      3  C   UNL     1      34.752 -15.708 -22.899  0.00  0.00    -0.001 C 
ATOM      4  C   UNL     1      34.018 -16.054 -25.175  0.00  0.00    -0.001 C 
ATOM      5  C   UNL     1      35.256 -17.008 -22.863  0.00  0.00    -0.000 C 
ATOM      6  C   UNL     1      34.522 -17.354 -25.140  0.00  0.00    -0.000 C 
ATOM      7  C   UNL     1      35.141 -17.831 -23.984  0.00  0.00    -0.000 C 
ENDBRANCH   1   2
BRANCH   1   8
ATOM      8  O   UNL     1      32.289 -13.858 -23.513  0.00  0.00    -0.475 OA
BRANCH   8   9
ATOM      9  C   UNL     1      32.059 -13.083 -22.443  0.00  0.00    +0.139 C 
ATOM     10  C   UNL     1      31.496 -11.805 -22.593  0.00  0.00    +0.037 C 
ATOM     11  C   UNL     1      32.376 -13.530 -21.150  0.00  0.00    +0.037 C 
ATOM     12  C   UNL     1      31.578 -11.455 -20.205  0.00  0.00    +0.072 C 
ATOM     13  C   UNL     1      31.257 -10.997 -21.482  0.00  0.00    +0.007 C 
ATOM     14  C   UNL     1      32.138 -12.722 -20.038  0.00  0.00    +0.007 C 
BRANCH  12  18
ATOM     15  F   UNL     1      32.143  -9.502 -18.943  0.00  0.00    -0.166 F 
ATOM     16  F   UNL     1      30.055 -10.085 -18.970  0.00  0.00    -0.166 F 
ATOM     17  F   UNL     1      31.494 -11.257 -17.836  0.00  0.00    -0.166 F 
ATOM     18  C   UNL     1      31.323 -10.591 -19.016  0.00  0.00    +0.419 C 
ENDBRANCH  12  18
ENDBRANCH   8   9
ENDBRANCH   1   8
BRANCH   1  19
ATOM     19  C   UNL     1      33.507 -13.244 -25.508  0.00  0.00    +0.025 C 
BRANCH  19  20
ATOM     20  C   UNL     1      33.938 -11.778 -25.567  0.00  0.00    -0.078 C 
BRANCH  20  21
ATOM     21  N   UNL     1      34.503 -11.368 -24.286  0.00  0.00    +0.382 N 
ATOM     22  C   UNL     1      34.339  -9.935 -24.083  0.00  0.00    -0.106 C 
ATOM     23  H   UNL     1      35.496 -11.596 -24.271  0.00  0.00    -0.085 HD
ATOM     24  H   UNL     1      34.013 -11.862 -23.541  0.00  0.00    -0.085 HD
ENDBRANCH  20  21
ENDBRANCH  19  20
ENDBRANCH   1  19
TORSDOF 7
ENDMDL
MODEL 8
REMARK VINA RESULT:      -8.7      3.613      6.046
REMARK  Name = 3386
REMARK  7 active torsions:
REMARK  status: ('A' for Active; 'I' for Inactive)
REMARK    1  A    between atoms: C_1  and  C_2
REMARK    2  A    between atoms: C_1  and  O_8
REMARK    3  A    between atoms: C_1  and  C_19
REMARK    4  A    between atoms: O_8  and  C_9
REMARK    5  A    between atoms: C_12  and  C_18
REMARK    6  A    between atoms: C_19  and  C_20
REMARK    7  A    between atoms: C_20  and  N_21
REMARK                            x       y       z     vdW  Elec       q    Type
REMARK                         _______ _______ _______ _____ _____    ______ ____
ROOT
ATOM      1  C   UNL     1      36.417 -23.056 -15.414  0.00  0.00    +0.186 C 
ENDROOT
BRANCH   1   2
ATOM      2  C   UNL     1      36.948 -24.010 -14.369  0.00  0.00    +0.017 C 
ATOM      3  C   UNL     1      37.092 -25.351 -14.686  0.00  0.00    -0.001 C 
ATOM      4  C   UNL     1      37.281 -23.525 -13.115  0.00  0.00    -0.001 C 
ATOM      5  C   UNL     1      37.581 -26.231 -13.721  0.00  0.00    -0.000 C 
ATOM      6  C   UNL     1      37.770 -24.405 -12.150  0.00  0.00    -0.000 C 
ATOM      7  C   UNL     1      37.920 -25.758 -12.453  0.00  0.00    -0.000 C 
ENDBRANCH   1   2
BRANCH   1   8
ATOM      8  O   UNL     1      35.535 -23.787 -16.269  0.00  0.00    -0.475 OA
BRANCH   8   9
ATOM      9  C   UNL     1      34.215 -23.594 -16.131  0.00  0.00    +0.139 C 
ATOM     10  C   UNL     1      33.426 -23.224 -17.233  0.00  0.00    +0.037 C 
ATOM     11  C   UNL     1      33.591 -23.757 -14.883  0.00  0.00    +0.037 C 
ATOM     12  C   UNL     1      31.450 -23.188 -15.846  0.00  0.00    +0.072 C 
ATOM     13  C   UNL     1      32.054 -23.023 -17.092  0.00  0.00    +0.007 C 
ATOM     14  C   UNL     1      32.218 -23.555 -14.741  0.00  0.00    +0.007 C 
BRANCH  12  18
ATOM     15  F   UNL     1      29.649 -22.199 -14.619  0.00  0.00    -0.166 F 
ATOM     16  F   UNL     1      29.405 -22.357 -16.768  0.00  0.00    -0.166 F 
ATOM     17  F   UNL     1      29.294 -24.142 -15.530  0.00  0.00    -0.166 F 
ATOM     18  C   UNL     1      29.982 -22.973 -15.694  0.00  0.00    +0.419 C 
ENDBRANCH  12  18
ENDBRANCH   8   9
ENDBRANCH   1   8
BRANCH   1  19
ATOM     19  C   UNL     1      37.512 -22.397 -16.270  0.00  0.00    +0.025 C 
BRANCH  19  20
ATOM     20  C   UNL     1      36.971 -21.312 -17.201  0.00  0.00    -0.078 C 
BRANCH  20  21
ATOM     21  N   UNL     1      36.477 -21.909 -18.436  0.00  0.00    +0.382 N 
ATOM     22  C   UNL     1      36.447 -20.926 -19.511  0.00  0.00    -0.106 C 
ATOM     23  H   UNL     1      35.534 -22.264 -18.281  0.00  0.00    -0.085 HD
ATOM     24  H   UNL     1      37.103 -22.668 -18.705  0.00  0.00    -0.085 HD
ENDBRANCH  20  21
ENDBRANCH  19  20
ENDBRANCH   1  19
TORSDOF 7
ENDMDL
MODEL 9
REMARK VINA RESULT:      -8.7      1.806      2.796
REMARK  Name = 3386
REMARK  7 active torsions:
REMARK  status: ('A' for Active; 'I' for Inactive)
REMARK    1  A    between atoms: C_1  and  C_2
REMARK    2  A    between atoms: C_1  and  O_8
REMARK    3  A    between atoms: C_1  and  C_19
REMARK    4  A    between atoms: O_8  and  C_9
REMARK    5  A    between atoms: C_12  and  C_18
REMARK    6  A    between atoms: C_19  and  C_20
REMARK    7  A    between atoms: C_20  and  N_21
REMARK                            x       y       z     vdW  Elec       q    Type
REMARK                         _______ _______ _______ _____ _____    ______ ____
ROOT
ATOM      1  C   UNL     1      33.478 -23.579 -14.354  0.00  0.00    +0.186 C 
ENDROOT
BRANCH   1   2
ATOM      2  C   UNL     1      32.001 -23.814 -14.570  0.00  0.00    +0.017 C 
ATOM      3  C   UNL     1      31.203 -22.765 -14.996  0.00  0.00    -0.001 C 
ATOM      4  C   UNL     1      31.474 -25.074 -14.337  0.00  0.00    -0.001 C 
ATOM      5  C   UNL     1      29.840 -22.982 -15.195  0.00  0.00    -0.000 C 
ATOM      6  C   UNL     1      30.111 -25.290 -14.535  0.00  0.00    -0.000 C 
ATOM      7  C   UNL     1      29.294 -24.245 -14.964  0.00  0.00    -0.000 C 
ENDBRANCH   1   2
BRANCH   1   8
ATOM      8  O   UNL     1      34.184 -24.203 -15.429  0.00  0.00    -0.475 OA
BRANCH   8   9
ATOM      9  C   UNL     1      34.578 -23.438 -16.458  0.00  0.00    +0.139 C 
ATOM     10  C   UNL     1      33.753 -23.272 -17.583  0.00  0.00    +0.037 C 
ATOM     11  C   UNL     1      35.823 -22.788 -16.435  0.00  0.00    +0.037 C 
ATOM     12  C   UNL     1      35.400 -21.839 -18.616  0.00  0.00    +0.072 C 
ATOM     13  C   UNL     1      34.161 -22.477 -18.654  0.00  0.00    +0.007 C 
ATOM     14  C   UNL     1      36.232 -21.994 -17.507  0.00  0.00    +0.007 C 
BRANCH  12  18
ATOM     15  F   UNL     1      34.861 -20.155 -20.227  0.00  0.00    -0.166 F 
ATOM     16  F   UNL     1      36.891 -20.172 -19.465  0.00  0.00    -0.166 F 
ATOM     17  F   UNL     1      36.235 -21.724 -20.840  0.00  0.00    -0.166 F 
ATOM     18  C   UNL     1      35.837 -20.989 -19.761  0.00  0.00    +0.419 C 
ENDBRANCH  12  18
ENDBRANCH   8   9
ENDBRANCH   1   8
BRANCH   1  19
ATOM     19  C   UNL     1      34.009 -24.129 -13.019  0.00  0.00    +0.025 C 
BRANCH  19  20
ATOM     20  C   UNL     1      35.536 -24.173 -12.956  0.00  0.00    -0.078 C 
BRANCH  20  21
ATOM     21  N   UNL     1      36.026 -25.438 -13.490  0.00  0.00    +0.382 N 
ATOM     22  C   UNL     1      37.122 -25.952 -12.682  0.00  0.00    -0.106 C 
ATOM     23  H   UNL     1      36.352 -25.294 -14.445  0.00  0.00    -0.085 HD
ATOM     24  H   UNL     1      35.263 -26.116 -13.474  0.00  0.00    -0.085 HD
ENDBRANCH  20  21
ENDBRANCH  19  20
ENDBRANCH   1  19
TORSDOF 7
ENDMDL
