MODEL 1
REMARK VINA RESULT:     -11.2      0.000      0.000
REMARK  Name = 445950
REMARK  8 active torsions:
REMARK  status: ('A' for Active; 'I' for Inactive)
REMARK    1  A    between atoms: N_1  and  C_20
REMARK    2  A    between atoms: N_3  and  C_13
REMARK    3  A    between atoms: C_19  and  O_25
REMARK    4  A    between atoms: O_25  and  C_26
REMARK    5  A    between atoms: C_26  and  C_27
REMARK    6  A    between atoms: C_27  and  O_28
REMARK    7  A    between atoms: C_27  and  C_30
REMARK    8  A    between atoms: C_30  and  N_31
REMARK                            x       y       z     vdW  Elec       q    Type
REMARK                         _______ _______ _______ _____ _____    ______ ____
ROOT
ATOM      1  N   UNL     1      36.055 -21.475 -18.573  0.00  0.00    -0.301 N 
ATOM      2  H   UNL     1      37.007 -21.266 -18.711  0.00  0.00    +0.153 HD
ATOM      3  N   UNL     1      35.478 -18.815 -22.502  0.00  0.00    -0.298 N 
ATOM      4  N   UNL     1      33.871 -21.121 -19.453  0.00  0.00    -0.233 NA
ATOM      5  N   UNL     1      33.580 -19.780 -21.434  0.00  0.00    -0.233 NA
ATOM      6  C   UNL     1      35.204 -20.904 -19.539  0.00  0.00    +0.113 C 
ATOM      7  C   UNL     1      35.784 -20.142 -20.538  0.00  0.00    +0.122 C 
ATOM      8  C   UNL     1      34.917 -19.601 -21.465  0.00  0.00    +0.113 C 
ATOM      9  C   UNL     1      33.132 -20.540 -20.416  0.00  0.00    +0.252 C 
ATOM     10  H   UNL     1      36.390 -19.084 -22.754  0.00  0.00    +0.153 HD
ENDROOT
BRANCH   3  13
ATOM     11  F   UNL     1      34.686 -19.103 -25.152  0.00  0.00    -0.203 F 
ATOM     12  F   UNL     1      35.249 -16.284 -21.372  0.00  0.00    -0.203 F 
ATOM     13  C   UNL     1      34.982 -17.728 -23.239  0.00  0.00    +0.105 C 
ATOM     14  C   UNL     1      34.592 -17.900 -24.571  0.00  0.00    +0.156 C 
ATOM     15  C   UNL     1      34.880 -16.465 -22.648  0.00  0.00    +0.156 C 
ATOM     16  C   UNL     1      34.103 -16.818 -25.304  0.00  0.00    +0.031 C 
ATOM     17  C   UNL     1      34.389 -15.384 -23.381  0.00  0.00    +0.031 C 
ATOM     18  C   UNL     1      34.001 -15.561 -24.708  0.00  0.00    +0.005 C 
ENDBRANCH   3  13
BRANCH   1  20
ATOM     19  C   UNL     1      35.332 -23.890 -15.224  0.00  0.00    +0.139 C 
ATOM     20  C   UNL     1      35.812 -22.287 -17.446  0.00  0.00    +0.049 C 
ATOM     21  C   UNL     1      36.576 -23.287 -15.383  0.00  0.00    +0.038 C 
ATOM     22  C   UNL     1      34.327 -23.698 -16.164  0.00  0.00    +0.038 C 
ATOM     23  C   UNL     1      36.817 -22.484 -16.498  0.00  0.00    +0.018 C 
ATOM     24  C   UNL     1      34.567 -22.894 -17.279  0.00  0.00    +0.018 C 
BRANCH  19  25
ATOM     25  O   UNL     1      35.097 -24.678 -14.129  0.00  0.00    -0.473 OA
BRANCH  25  26
ATOM     26  C   UNL     1      34.926 -24.010 -12.883  0.00  0.00    +0.232 C 
BRANCH  26  27
ATOM     27  C   UNL     1      35.939 -24.561 -11.884  0.00  0.00    +0.133 C 
BRANCH  27  28
ATOM     28  O   UNL     1      35.231 -25.093 -10.760  0.00  0.00    -0.383 OA
ATOM     29  H   UNL     1      35.745 -24.940  -9.952  0.00  0.00    +0.210 HD
ENDBRANCH  27  28
BRANCH  27  30
ATOM     30  C   UNL     1      36.819 -25.671 -12.463  0.00  0.00    -0.044 C 
BRANCH  30  31
ATOM     31  N   UNL     1      38.236 -25.338 -12.395  0.00  0.00    +0.386 N 
ATOM     32  C   UNL     1      38.420 -23.933 -12.027  0.00  0.00    -0.101 C 
ATOM     33  C   UNL     1      38.895 -25.617 -13.673  0.00  0.00    -0.101 C 
ATOM     34  H   UNL     1      38.663 -25.921 -11.676  0.00  0.00    -0.080 HD
ENDBRANCH  30  31
ENDBRANCH  27  30
ENDBRANCH  26  27
ENDBRANCH  25  26
ENDBRANCH  19  25
ENDBRANCH   1  20
TORSDOF 8
ENDMDL
MODEL 2
REMARK VINA RESULT:     -11.2      0.046      1.750
REMARK  Name = 445950
REMARK  8 active torsions:
REMARK  status: ('A' for Active; 'I' for Inactive)
REMARK    1  A    between atoms: N_1  and  C_20
REMARK    2  A    between atoms: N_3  and  C_13
REMARK    3  A    between atoms: C_19  and  O_25
REMARK    4  A    between atoms: O_25  and  C_26
REMARK    5  A    between atoms: C_26  and  C_27
REMARK    6  A    between atoms: C_27  and  O_28
REMARK    7  A    between atoms: C_27  and  C_30
REMARK    8  A    between atoms: C_30  and  N_31
REMARK                            x       y       z     vdW  Elec       q    Type
REMARK                         _______ _______ _______ _____ _____    ______ ____
ROOT
ATOM      1  N   UNL     1      36.028 -21.464 -18.593  0.00  0.00    -0.301 N 
ATOM      2  H   UNL     1      36.982 -21.265 -18.736  0.00  0.00    +0.153 HD
ATOM      3  N   UNL     1      35.458 -18.806 -22.524  0.00  0.00    -0.298 N 
ATOM      4  N   UNL     1      33.844 -21.091 -19.464  0.00  0.00    -0.233 NA
ATOM      5  N   UNL     1      33.556 -19.751 -21.446  0.00  0.00    -0.233 NA
ATOM      6  C   UNL     1      35.178 -20.888 -19.557  0.00  0.00    +0.113 C 
ATOM      7  C   UNL     1      35.761 -20.133 -20.559  0.00  0.00    +0.122 C 
ATOM      8  C   UNL     1      34.894 -19.584 -21.483  0.00  0.00    +0.113 C 
ATOM      9  C   UNL     1      33.106 -20.505 -20.425  0.00  0.00    +0.252 C 
ATOM     10  H   UNL     1      36.366 -19.084 -22.779  0.00  0.00    +0.153 HD
ENDROOT
BRANCH   3  13
ATOM     11  F   UNL     1      35.236 -16.277 -21.389  0.00  0.00    -0.203 F 
ATOM     12  F   UNL     1      34.671 -19.085 -25.177  0.00  0.00    -0.203 F 
ATOM     13  C   UNL     1      34.969 -17.715 -23.260  0.00  0.00    +0.105 C 
ATOM     14  C   UNL     1      34.867 -16.453 -22.666  0.00  0.00    +0.156 C 
ATOM     15  C   UNL     1      34.579 -17.883 -24.592  0.00  0.00    +0.156 C 
ATOM     16  C   UNL     1      34.379 -15.370 -23.397  0.00  0.00    +0.031 C 
ATOM     17  C   UNL     1      34.092 -16.799 -25.323  0.00  0.00    +0.031 C 
ATOM     18  C   UNL     1      33.992 -15.543 -24.726  0.00  0.00    +0.005 C 
ENDBRANCH   3  13
BRANCH   1  20
ATOM     19  C   UNL     1      35.301 -23.867 -15.236  0.00  0.00    +0.139 C 
ATOM     20  C   UNL     1      35.783 -22.273 -17.463  0.00  0.00    +0.049 C 
ATOM     21  C   UNL     1      34.305 -23.699 -16.192  0.00  0.00    +0.038 C 
ATOM     22  C   UNL     1      36.536 -23.246 -15.384  0.00  0.00    +0.038 C 
ATOM     23  C   UNL     1      34.547 -22.899 -17.309  0.00  0.00    +0.018 C 
ATOM     24  C   UNL     1      36.778 -22.446 -16.501  0.00  0.00    +0.018 C 
BRANCH  19  25
ATOM     25  O   UNL     1      35.063 -24.653 -14.140  0.00  0.00    -0.473 OA
BRANCH  25  26
ATOM     26  C   UNL     1      34.933 -23.985 -12.889  0.00  0.00    +0.232 C 
BRANCH  26  27
ATOM     27  C   UNL     1      35.951 -24.566 -11.911  0.00  0.00    +0.133 C 
BRANCH  27  28
ATOM     28  O   UNL     1      35.251 -25.091 -10.780  0.00  0.00    -0.383 OA
ATOM     29  H   UNL     1      34.368 -25.385 -11.054  0.00  0.00    +0.210 HD
ENDBRANCH  27  28
BRANCH  27  30
ATOM     30  C   UNL     1      36.797 -25.689 -12.514  0.00  0.00    -0.044 C 
BRANCH  30  31
ATOM     31  N   UNL     1      38.222 -25.387 -12.469  0.00  0.00    +0.386 N 
ATOM     32  C   UNL     1      38.443 -23.998 -12.061  0.00  0.00    -0.101 C 
ATOM     33  C   UNL     1      38.845 -25.638 -13.770  0.00  0.00    -0.101 C 
ATOM     34  H   UNL     1      38.653 -26.001 -11.779  0.00  0.00    -0.080 HD
ENDBRANCH  30  31
ENDBRANCH  27  30
ENDBRANCH  26  27
ENDBRANCH  25  26
ENDBRANCH  19  25
ENDBRANCH   1  20
TORSDOF 8
ENDMDL
MODEL 3
REMARK VINA RESULT:     -10.9      7.208     13.544
REMARK  Name = 445950
REMARK  8 active torsions:
REMARK  status: ('A' for Active; 'I' for Inactive)
REMARK    1  A    between atoms: N_1  and  C_20
REMARK    2  A    between atoms: N_3  and  C_13
REMARK    3  A    between atoms: C_19  and  O_25
REMARK    4  A    between atoms: O_25  and  C_26
REMARK    5  A    between atoms: C_26  and  C_27
REMARK    6  A    between atoms: C_27  and  O_28
REMARK    7  A    between atoms: C_27  and  C_30
REMARK    8  A    between atoms: C_30  and  N_31
REMARK                            x       y       z     vdW  Elec       q    Type
REMARK                         _______ _______ _______ _____ _____    ______ ____
ROOT
ATOM      1  N   UNL     1      33.499 -14.279 -23.344  0.00  0.00    -0.301 N 
ATOM      2  H   UNL     1      33.258 -14.773 -24.161  0.00  0.00    +0.153 HD
ATOM      3  N   UNL     1      34.789 -18.606 -21.778  0.00  0.00    -0.298 N 
ATOM      4  N   UNL     1      34.393 -14.527 -21.151  0.00  0.00    -0.233 NA
ATOM      5  N   UNL     1      35.044 -16.708 -20.361  0.00  0.00    -0.233 NA
ATOM      6  C   UNL     1      34.025 -15.094 -22.323  0.00  0.00    +0.113 C 
ATOM      7  C   UNL     1      34.139 -16.449 -22.577  0.00  0.00    +0.122 C 
ATOM      8  C   UNL     1      34.659 -17.214 -21.552  0.00  0.00    +0.113 C 
ATOM      9  C   UNL     1      34.886 -15.377 -20.232  0.00  0.00    +0.252 C 
ATOM     10  H   UNL     1      34.948 -18.841 -22.720  0.00  0.00    +0.153 HD
ENDROOT
BRANCH   3  13
ATOM     11  F   UNL     1      32.367 -19.772 -21.068  0.00  0.00    -0.203 F 
ATOM     12  F   UNL     1      37.103 -19.723 -20.713  0.00  0.00    -0.203 F 
ATOM     13  C   UNL     1      34.737 -19.714 -20.917  0.00  0.00    +0.105 C 
ATOM     14  C   UNL     1      33.505 -20.281 -20.575  0.00  0.00    +0.156 C 
ATOM     15  C   UNL     1      35.915 -20.255 -20.394  0.00  0.00    +0.156 C 
ATOM     16  C   UNL     1      33.453 -21.380 -19.717  0.00  0.00    +0.031 C 
ATOM     17  C   UNL     1      35.861 -21.355 -19.537  0.00  0.00    +0.031 C 
ATOM     18  C   UNL     1      34.631 -21.917 -19.199  0.00  0.00    +0.005 C 
ENDBRANCH   3  13
BRANCH   1  20
ATOM     19  C   UNL     1      32.760 -10.160 -23.594  0.00  0.00    +0.139 C 
ATOM     20  C   UNL     1      33.250 -12.893 -23.428  0.00  0.00    +0.049 C 
ATOM     21  C   UNL     1      32.058 -10.932 -22.673  0.00  0.00    +0.038 C 
ATOM     22  C   UNL     1      33.705 -10.742 -24.431  0.00  0.00    +0.038 C 
ATOM     23  C   UNL     1      32.304 -12.302 -22.590  0.00  0.00    +0.018 C 
ATOM     24  C   UNL     1      33.951 -12.113 -24.348  0.00  0.00    +0.018 C 
BRANCH  19  25
ATOM     25  O   UNL     1      32.519  -8.814 -23.674  0.00  0.00    -0.473 OA
BRANCH  25  26
ATOM     26  C   UNL     1      31.236  -8.367 -23.247  0.00  0.00    +0.232 C 
BRANCH  26  27
ATOM     27  C   UNL     1      31.413  -7.148 -22.345  0.00  0.00    +0.133 C 
BRANCH  27  28
ATOM     28  O   UNL     1      32.143  -7.543 -21.180  0.00  0.00    -0.383 OA
ATOM     29  H   UNL     1      32.989  -7.069 -21.153  0.00  0.00    +0.210 HD
ENDBRANCH  27  28
BRANCH  27  30
ATOM     30  C   UNL     1      32.170  -6.002 -23.018  0.00  0.00    -0.044 C 
BRANCH  30  31
ATOM     31  N   UNL     1      31.875  -5.911 -24.442  0.00  0.00    +0.386 N 
ATOM     32  C   UNL     1      33.100  -5.681 -25.210  0.00  0.00    -0.101 C 
ATOM     33  C   UNL     1      30.907  -4.843 -24.702  0.00  0.00    -0.101 C 
ATOM     34  H   UNL     1      31.467  -6.798 -24.737  0.00  0.00    -0.080 HD
ENDBRANCH  30  31
ENDBRANCH  27  30
ENDBRANCH  26  27
ENDBRANCH  25  26
ENDBRANCH  19  25
ENDBRANCH   1  20
TORSDOF 8
ENDMDL
MODEL 4
REMARK VINA RESULT:     -10.9      7.182     13.510
REMARK  Name = 445950
REMARK  8 active torsions:
REMARK  status: ('A' for Active; 'I' for Inactive)
REMARK    1  A    between atoms: N_1  and  C_20
REMARK    2  A    between atoms: N_3  and  C_13
REMARK    3  A    between atoms: C_19  and  O_25
REMARK    4  A    between atoms: O_25  and  C_26
REMARK    5  A    between atoms: C_26  and  C_27
REMARK    6  A    between atoms: C_27  and  O_28
REMARK    7  A    between atoms: C_27  and  C_30
REMARK    8  A    between atoms: C_30  and  N_31
REMARK                            x       y       z     vdW  Elec       q    Type
REMARK                         _______ _______ _______ _____ _____    ______ ____
ROOT
ATOM      1  N   UNL     1      33.391 -14.314 -23.311  0.00  0.00    -0.301 N 
ATOM      2  H   UNL     1      33.100 -14.813 -24.108  0.00  0.00    +0.153 HD
ATOM      3  N   UNL     1      34.692 -18.645 -21.764  0.00  0.00    -0.298 N 
ATOM      4  N   UNL     1      34.395 -14.553 -21.165  0.00  0.00    -0.233 NA
ATOM      5  N   UNL     1      35.051 -16.736 -20.384  0.00  0.00    -0.233 NA
ATOM      6  C   UNL     1      33.957 -15.126 -22.309  0.00  0.00    +0.113 C 
ATOM      7  C   UNL     1      34.035 -16.486 -22.552  0.00  0.00    +0.122 C 
ATOM      8  C   UNL     1      34.596 -17.248 -21.547  0.00  0.00    +0.113 C 
ATOM      9  C   UNL     1      34.922 -15.402 -20.262  0.00  0.00    +0.252 C 
ATOM     10  H   UNL     1      34.797 -18.893 -22.710  0.00  0.00    +0.153 HD
ENDROOT
BRANCH   3  13
ATOM     11  F   UNL     1      37.036 -19.727 -20.731  0.00  0.00    -0.203 F 
ATOM     12  F   UNL     1      32.296 -19.827 -20.992  0.00  0.00    -0.203 F 
ATOM     13  C   UNL     1      34.667 -19.742 -20.888  0.00  0.00    +0.105 C 
ATOM     14  C   UNL     1      35.860 -20.268 -20.383  0.00  0.00    +0.156 C 
ATOM     15  C   UNL     1      33.448 -20.319 -20.518  0.00  0.00    +0.156 C 
ATOM     16  C   UNL     1      35.835 -21.361 -19.516  0.00  0.00    +0.031 C 
ATOM     17  C   UNL     1      33.424 -21.411 -19.650  0.00  0.00    +0.031 C 
ATOM     18  C   UNL     1      34.616 -21.931 -19.149  0.00  0.00    +0.005 C 
ENDBRANCH   3  13
BRANCH   1  20
ATOM     19  C   UNL     1      32.706 -10.187 -23.567  0.00  0.00    +0.139 C 
ATOM     20  C   UNL     1      33.161 -12.925 -23.397  0.00  0.00    +0.049 C 
ATOM     21  C   UNL     1      33.668 -10.777 -24.380  0.00  0.00    +0.038 C 
ATOM     22  C   UNL     1      31.968 -10.953 -22.671  0.00  0.00    +0.038 C 
ATOM     23  C   UNL     1      33.896 -12.151 -24.295  0.00  0.00    +0.018 C 
ATOM     24  C   UNL     1      32.197 -12.326 -22.586  0.00  0.00    +0.018 C 
BRANCH  19  25
ATOM     25  O   UNL     1      32.481  -8.838 -23.653  0.00  0.00    -0.473 OA
BRANCH  25  26
ATOM     26  C   UNL     1      31.244  -8.360 -23.136  0.00  0.00    +0.232 C 
BRANCH  26  27
ATOM     27  C   UNL     1      31.517  -7.167 -22.223  0.00  0.00    +0.133 C 
BRANCH  27  28
ATOM     28  O   UNL     1      32.362  -7.596 -21.152  0.00  0.00    -0.383 OA
ATOM     29  H   UNL     1      32.191  -7.050 -20.368  0.00  0.00    +0.210 HD
ENDBRANCH  27  28
BRANCH  27  30
ATOM     30  C   UNL     1      32.206  -6.003 -22.938  0.00  0.00    -0.044 C 
BRANCH  30  31
ATOM     31  N   UNL     1      31.908  -5.983 -24.364  0.00  0.00    +0.386 N 
ATOM     32  C   UNL     1      33.130  -5.784 -25.145  0.00  0.00    -0.101 C 
ATOM     33  C   UNL     1      30.933  -4.934 -24.674  0.00  0.00    -0.101 C 
ATOM     34  H   UNL     1      31.504  -6.885 -24.616  0.00  0.00    -0.080 HD
ENDBRANCH  30  31
ENDBRANCH  27  30
ENDBRANCH  26  27
ENDBRANCH  25  26
ENDBRANCH  19  25
ENDBRANCH   1  20
TORSDOF 8
ENDMDL
MODEL 5
REMARK VINA RESULT:     -10.6      3.979      5.968
REMARK  Name = 445950
REMARK  8 active torsions:
REMARK  status: ('A' for Active; 'I' for Inactive)
REMARK    1  A    between atoms: N_1  and  C_20
REMARK    2  A    between atoms: N_3  and  C_13
REMARK    3  A    between atoms: C_19  and  O_25
REMARK    4  A    between atoms: O_25  and  C_26
REMARK    5  A    between atoms: C_26  and  C_27
REMARK    6  A    between atoms: C_27  and  O_28
REMARK    7  A    between atoms: C_27  and  C_30
REMARK    8  A    between atoms: C_30  and  N_31
REMARK                            x       y       z     vdW  Elec       q    Type
REMARK                         _______ _______ _______ _____ _____    ______ ____
ROOT
ATOM      1  N   UNL     1      34.432 -17.363 -22.165  0.00  0.00    -0.301 N 
ATOM      2  H   UNL     1      34.597 -17.421 -23.134  0.00  0.00    +0.153 HD
ATOM      3  N   UNL     1      32.740 -13.034 -23.274  0.00  0.00    -0.298 N 
ATOM      4  N   UNL     1      33.581 -15.949 -20.449  0.00  0.00    -0.233 NA
ATOM      5  N   UNL     1      32.727 -13.766 -21.008  0.00  0.00    -0.233 NA
ATOM      6  C   UNL     1      33.853 -16.145 -21.759  0.00  0.00    +0.113 C 
ATOM      7  C   UNL     1      33.590 -15.202 -22.736  0.00  0.00    +0.122 C 
ATOM      8  C   UNL     1      33.023 -14.022 -22.299  0.00  0.00    +0.113 C 
ATOM      9  C   UNL     1      33.028 -14.759 -20.149  0.00  0.00    +0.252 C 
ATOM     10  H   UNL     1      32.530 -13.402 -24.162  0.00  0.00    +0.153 HD
ENDROOT
BRANCH   3  13
ATOM     11  F   UNL     1      34.608 -11.477 -24.624  0.00  0.00    -0.203 F 
ATOM     12  F   UNL     1      30.792 -11.698 -21.806  0.00  0.00    -0.203 F 
ATOM     13  C   UNL     1      32.701 -11.631 -23.217  0.00  0.00    +0.105 C 
ATOM     14  C   UNL     1      33.653 -10.872 -23.904  0.00  0.00    +0.156 C 
ATOM     15  C   UNL     1      31.712 -10.985 -22.469  0.00  0.00    +0.156 C 
ATOM     16  C   UNL     1      33.615  -9.478 -23.844  0.00  0.00    +0.031 C 
ATOM     17  C   UNL     1      31.675  -9.591 -22.411  0.00  0.00    +0.031 C 
ATOM     18  C   UNL     1      32.625  -8.839 -23.098  0.00  0.00    +0.005 C 
ENDBRANCH   3  13
BRANCH   1  20
ATOM     19  C   UNL     1      35.592 -20.796 -20.057  0.00  0.00    +0.139 C 
ATOM     20  C   UNL     1      34.823 -18.519 -21.455  0.00  0.00    +0.049 C 
ATOM     21  C   UNL     1      36.559 -19.898 -20.496  0.00  0.00    +0.038 C 
ATOM     22  C   UNL     1      34.244 -20.566 -20.310  0.00  0.00    +0.038 C 
ATOM     23  C   UNL     1      36.173 -18.755 -21.198  0.00  0.00    +0.018 C 
ATOM     24  C   UNL     1      33.858 -19.424 -21.012  0.00  0.00    +0.018 C 
BRANCH  19  25
ATOM     25  O   UNL     1      35.972 -21.917 -19.368  0.00  0.00    -0.473 OA
BRANCH  25  26
ATOM     26  C   UNL     1      35.639 -21.962 -17.984  0.00  0.00    +0.232 C 
BRANCH  26  27
ATOM     27  C   UNL     1      36.926 -21.911 -17.165  0.00  0.00    +0.133 C 
BRANCH  27  28
ATOM     28  O   UNL     1      37.365 -20.552 -17.086  0.00  0.00    -0.383 OA
ATOM     29  H   UNL     1      36.902 -20.105 -16.360  0.00  0.00    +0.210 HD
ENDBRANCH  27  28
BRANCH  27  30
ATOM     30  C   UNL     1      36.759 -22.443 -15.740  0.00  0.00    -0.044 C 
BRANCH  30  31
ATOM     31  N   UNL     1      36.875 -23.894 -15.680  0.00  0.00    +0.386 N 
ATOM     32  C   UNL     1      35.660 -24.487 -15.118  0.00  0.00    -0.101 C 
ATOM     33  C   UNL     1      38.043 -24.287 -14.888  0.00  0.00    -0.101 C 
ATOM     34  H   UNL     1      36.997 -24.242 -16.631  0.00  0.00    -0.080 HD
ENDBRANCH  30  31
ENDBRANCH  27  30
ENDBRANCH  26  27
ENDBRANCH  25  26
ENDBRANCH  19  25
ENDBRANCH   1  20
TORSDOF 8
ENDMDL
MODEL 6
REMARK VINA RESULT:     -10.6      7.445     13.489
REMARK  Name = 445950
REMARK  8 active torsions:
REMARK  status: ('A' for Active; 'I' for Inactive)
REMARK    1  A    between atoms: N_1  and  C_20
REMARK    2  A    between atoms: N_3  and  C_13
REMARK    3  A    between atoms: C_19  and  O_25
REMARK    4  A    between atoms: O_25  and  C_26
REMARK    5  A    between atoms: C_26  and  C_27
REMARK    6  A    between atoms: C_27  and  O_28
REMARK    7  A    between atoms: C_27  and  C_30
REMARK    8  A    between atoms: C_30  and  N_31
REMARK                            x       y       z     vdW  Elec       q    Type
REMARK                         _______ _______ _______ _____ _____    ______ ____
ROOT
ATOM      1  N   UNL     1      33.483 -14.322 -23.368  0.00  0.00    -0.301 N 
ATOM      2  H   UNL     1      33.220 -14.823 -24.174  0.00  0.00    +0.153 HD
ATOM      3  N   UNL     1      34.765 -18.643 -21.777  0.00  0.00    -0.298 N 
ATOM      4  N   UNL     1      34.419 -14.553 -21.191  0.00  0.00    -0.233 NA
ATOM      5  N   UNL     1      35.066 -16.731 -20.388  0.00  0.00    -0.233 NA
ATOM      6  C   UNL     1      34.023 -15.130 -22.348  0.00  0.00    +0.113 C 
ATOM      7  C   UNL     1      34.118 -16.489 -22.588  0.00  0.00    +0.122 C 
ATOM      8  C   UNL     1      34.652 -17.246 -21.564  0.00  0.00    +0.113 C 
ATOM      9  C   UNL     1      34.923 -15.397 -20.271  0.00  0.00    +0.252 C 
ATOM     10  H   UNL     1      34.902 -18.890 -22.719  0.00  0.00    +0.153 HD
ENDROOT
BRANCH   3  13
ATOM     11  F   UNL     1      32.348 -19.795 -21.025  0.00  0.00    -0.203 F 
ATOM     12  F   UNL     1      37.087 -19.753 -20.724  0.00  0.00    -0.203 F 
ATOM     13  C   UNL     1      34.719 -19.740 -20.902  0.00  0.00    +0.105 C 
ATOM     14  C   UNL     1      33.490 -20.300 -20.539  0.00  0.00    +0.156 C 
ATOM     15  C   UNL     1      35.902 -20.277 -20.385  0.00  0.00    +0.156 C 
ATOM     16  C   UNL     1      33.445 -21.389 -19.667  0.00  0.00    +0.031 C 
ATOM     17  C   UNL     1      35.856 -21.366 -19.514  0.00  0.00    +0.031 C 
ATOM     18  C   UNL     1      34.629 -21.922 -19.156  0.00  0.00    +0.005 C 
ENDBRANCH   3  13
BRANCH   1  20
ATOM     19  C   UNL     1      32.776 -10.200 -23.649  0.00  0.00    +0.139 C 
ATOM     20  C   UNL     1      33.245 -12.935 -23.463  0.00  0.00    +0.049 C 
ATOM     21  C   UNL     1      33.703 -10.799 -24.496  0.00  0.00    +0.038 C 
ATOM     22  C   UNL     1      32.081 -10.955 -22.712  0.00  0.00    +0.038 C 
ATOM     23  C   UNL     1      33.939 -12.171 -24.402  0.00  0.00    +0.018 C 
ATOM     24  C   UNL     1      32.316 -12.327 -22.618  0.00  0.00    +0.018 C 
BRANCH  19  25
ATOM     25  O   UNL     1      32.545  -8.853 -23.743  0.00  0.00    -0.473 OA
BRANCH  25  26
ATOM     26  C   UNL     1      33.677  -7.999 -23.615  0.00  0.00    +0.232 C 
BRANCH  26  27
ATOM     27  C   UNL     1      33.205  -6.547 -23.642  0.00  0.00    +0.133 C 
BRANCH  27  28
ATOM     28  O   UNL     1      33.278  -6.067 -24.988  0.00  0.00    -0.383 OA
ATOM     29  H   UNL     1      33.748  -6.715 -25.536  0.00  0.00    +0.210 HD
ENDBRANCH  27  28
BRANCH  27  30
ATOM     30  C   UNL     1      31.769  -6.367 -23.147  0.00  0.00    -0.044 C 
BRANCH  30  31
ATOM     31  N   UNL     1      31.710  -5.639 -21.887  0.00  0.00    +0.386 N 
ATOM     32  C   UNL     1      32.032  -6.521 -20.764  0.00  0.00    -0.101 C 
ATOM     33  C   UNL     1      30.387  -5.039 -21.697  0.00  0.00    -0.101 C 
ATOM     34  H   UNL     1      32.403  -4.891 -21.922  0.00  0.00    -0.080 HD
ENDBRANCH  30  31
ENDBRANCH  27  30
ENDBRANCH  26  27
ENDBRANCH  25  26
ENDBRANCH  19  25
ENDBRANCH   1  20
TORSDOF 8
ENDMDL
MODEL 7
REMARK VINA RESULT:     -10.6      4.035      6.123
REMARK  Name = 445950
REMARK  8 active torsions:
REMARK  status: ('A' for Active; 'I' for Inactive)
REMARK    1  A    between atoms: N_1  and  C_20
REMARK    2  A    between atoms: N_3  and  C_13
REMARK    3  A    between atoms: C_19  and  O_25
REMARK    4  A    between atoms: O_25  and  C_26
REMARK    5  A    between atoms: C_26  and  C_27
REMARK    6  A    between atoms: C_27  and  O_28
REMARK    7  A    between atoms: C_27  and  C_30
REMARK    8  A    between atoms: C_30  and  N_31
REMARK                            x       y       z     vdW  Elec       q    Type
REMARK                         _______ _______ _______ _____ _____    ______ ____
ROOT
ATOM      1  N   UNL     1      34.485 -17.240 -22.244  0.00  0.00    -0.301 N 
ATOM      2  H   UNL     1      34.655 -17.287 -23.213  0.00  0.00    +0.153 HD
ATOM      3  N   UNL     1      32.767 -12.912 -23.319  0.00  0.00    -0.298 N 
ATOM      4  N   UNL     1      33.614 -15.849 -20.519  0.00  0.00    -0.233 NA
ATOM      5  N   UNL     1      32.747 -13.667 -21.061  0.00  0.00    -0.233 NA
ATOM      6  C   UNL     1      33.894 -16.030 -21.830  0.00  0.00    +0.113 C 
ATOM      7  C   UNL     1      33.630 -15.079 -22.799  0.00  0.00    +0.122 C 
ATOM      8  C   UNL     1      33.052 -13.907 -22.353  0.00  0.00    +0.113 C 
ATOM      9  C   UNL     1      33.051 -14.666 -20.210  0.00  0.00    +0.252 C 
ATOM     10  H   UNL     1      32.565 -13.272 -24.212  0.00  0.00    +0.153 HD
ENDROOT
BRANCH   3  13
ATOM     11  F   UNL     1      30.764 -11.605 -21.901  0.00  0.00    -0.203 F 
ATOM     12  F   UNL     1      34.668 -11.329 -24.591  0.00  0.00    -0.203 F 
ATOM     13  C   UNL     1      32.718 -11.510 -23.248  0.00  0.00    +0.105 C 
ATOM     14  C   UNL     1      31.699 -10.878 -22.529  0.00  0.00    +0.156 C 
ATOM     15  C   UNL     1      33.684 -10.738 -23.898  0.00  0.00    +0.156 C 
ATOM     16  C   UNL     1      31.648  -9.485 -22.461  0.00  0.00    +0.031 C 
ATOM     17  C   UNL     1      33.633  -9.345 -23.829  0.00  0.00    +0.031 C 
ATOM     18  C   UNL     1      32.616  -8.719 -23.110  0.00  0.00    +0.005 C 
ENDBRANCH   3  13
BRANCH   1  20
ATOM     19  C   UNL     1      35.658 -20.685 -20.165  0.00  0.00    +0.139 C 
ATOM     20  C   UNL     1      34.880 -18.399 -21.544  0.00  0.00    +0.049 C 
ATOM     21  C   UNL     1      36.620 -19.771 -20.581  0.00  0.00    +0.038 C 
ATOM     22  C   UNL     1      34.311 -20.467 -20.431  0.00  0.00    +0.038 C 
ATOM     23  C   UNL     1      36.230 -18.624 -21.273  0.00  0.00    +0.018 C 
ATOM     24  C   UNL     1      33.921 -19.321 -21.123  0.00  0.00    +0.018 C 
BRANCH  19  25
ATOM     25  O   UNL     1      36.042 -21.811 -19.484  0.00  0.00    -0.473 OA
BRANCH  25  26
ATOM     26  C   UNL     1      35.561 -21.949 -18.152  0.00  0.00    +0.232 C 
BRANCH  26  27
ATOM     27  C   UNL     1      36.753 -22.023 -17.201  0.00  0.00    +0.133 C 
BRANCH  27  28
ATOM     28  O   UNL     1      37.296 -20.709 -17.046  0.00  0.00    -0.383 OA
ATOM     29  H   UNL     1      38.186 -20.770 -16.663  0.00  0.00    +0.210 HD
ENDBRANCH  27  28
BRANCH  27  30
ATOM     30  C   UNL     1      36.390 -22.557 -15.814  0.00  0.00    -0.044 C 
BRANCH  30  31
ATOM     31  N   UNL     1      36.725 -23.967 -15.665  0.00  0.00    +0.386 N 
ATOM     32  C   UNL     1      35.618 -24.699 -15.048  0.00  0.00    -0.101 C 
ATOM     33  C   UNL     1      37.945 -24.128 -14.869  0.00  0.00    -0.101 C 
ATOM     34  H   UNL     1      36.892 -24.353 -16.594  0.00  0.00    -0.080 HD
ENDBRANCH  30  31
ENDBRANCH  27  30
ENDBRANCH  26  27
ENDBRANCH  25  26
ENDBRANCH  19  25
ENDBRANCH   1  20
TORSDOF 8
ENDMDL
MODEL 8
REMARK VINA RESULT:     -10.3      6.386      9.744
REMARK  Name = 445950
REMARK  8 active torsions:
REMARK  status: ('A' for Active; 'I' for Inactive)
REMARK    1  A    between atoms: N_1  and  C_20
REMARK    2  A    between atoms: N_3  and  C_13
REMARK    3  A    between atoms: C_19  and  O_25
REMARK    4  A    between atoms: O_25  and  C_26
REMARK    5  A    between atoms: C_26  and  C_27
REMARK    6  A    between atoms: C_27  and  O_28
REMARK    7  A    between atoms: C_27  and  C_30
REMARK    8  A    between atoms: C_30  and  N_31
REMARK                            x       y       z     vdW  Elec       q    Type
REMARK                         _______ _______ _______ _____ _____    ______ ____
ROOT
ATOM      1  N   UNL     1      34.154 -13.501 -23.118  0.00  0.00    -0.301 N 
ATOM      2  H   UNL     1      34.868 -13.176 -23.712  0.00  0.00    +0.153 HD
ATOM      3  N   UNL     1      32.485  -9.050 -23.609  0.00  0.00    -0.298 N 
ATOM      4  N   UNL     1      32.147 -12.859 -22.008  0.00  0.00    -0.233 NA
ATOM      5  N   UNL     1      31.305 -10.615 -22.256  0.00  0.00    -0.233 NA
ATOM      6  C   UNL     1      33.179 -12.529 -22.818  0.00  0.00    +0.113 C 
ATOM      7  C   UNL     1      33.333 -11.272 -23.374  0.00  0.00    +0.122 C 
ATOM      8  C   UNL     1      32.359 -10.348 -23.056  0.00  0.00    +0.113 C 
ATOM      9  C   UNL     1      31.263 -11.872 -21.774  0.00  0.00    +0.252 C 
ATOM     10  H   UNL     1      32.937  -9.034 -24.483  0.00  0.00    +0.153 HD
ENDROOT
BRANCH   3  13
ATOM     11  F   UNL     1      33.505  -7.980 -21.254  0.00  0.00    -0.203 F 
ATOM     12  F   UNL     1      30.649  -7.508 -25.019  0.00  0.00    -0.203 F 
ATOM     13  C   UNL     1      32.090  -7.783 -23.151  0.00  0.00    +0.105 C 
ATOM     14  C   UNL     1      32.617  -7.268 -21.962  0.00  0.00    +0.156 C 
ATOM     15  C   UNL     1      31.164  -7.029 -23.877  0.00  0.00    +0.156 C 
ATOM     16  C   UNL     1      32.222  -6.010 -21.505  0.00  0.00    +0.031 C 
ATOM     17  C   UNL     1      30.769  -5.771 -23.420  0.00  0.00    +0.031 C 
ATOM     18  C   UNL     1      31.299  -5.262 -22.236  0.00  0.00    +0.005 C 
ENDBRANCH   3  13
BRANCH   1  20
ATOM     19  C   UNL     1      34.610 -17.510 -21.982  0.00  0.00    +0.139 C 
ATOM     20  C   UNL     1      34.307 -14.851 -22.735  0.00  0.00    +0.049 C 
ATOM     21  C   UNL     1      34.530 -16.523 -21.006  0.00  0.00    +0.038 C 
ATOM     22  C   UNL     1      34.539 -17.181 -23.331  0.00  0.00    +0.038 C 
ATOM     23  C   UNL     1      34.378 -15.188 -21.384  0.00  0.00    +0.018 C 
ATOM     24  C   UNL     1      34.387 -15.846 -23.709  0.00  0.00    +0.018 C 
BRANCH  19  25
ATOM     25  O   UNL     1      34.758 -18.820 -21.610  0.00  0.00    -0.473 OA
BRANCH  25  26
ATOM     26  C   UNL     1      33.563 -19.556 -21.366  0.00  0.00    +0.232 C 
BRANCH  26  27
ATOM     27  C   UNL     1      33.792 -20.487 -20.178  0.00  0.00    +0.133 C 
BRANCH  27  28
ATOM     28  O   UNL     1      32.748 -21.465 -20.156  0.00  0.00    -0.383 OA
ATOM     29  H   UNL     1      32.920 -22.106 -19.448  0.00  0.00    +0.210 HD
ENDBRANCH  27  28
BRANCH  27  30
ATOM     30  C   UNL     1      35.133 -21.221 -20.232  0.00  0.00    -0.044 C 
BRANCH  30  31
ATOM     31  N   UNL     1      36.129 -20.609 -19.363  0.00  0.00    +0.386 N 
ATOM     32  C   UNL     1      37.264 -20.116 -20.144  0.00  0.00    -0.101 C 
ATOM     33  C   UNL     1      36.587 -21.562 -18.349  0.00  0.00    -0.101 C 
ATOM     34  H   UNL     1      35.692 -19.818 -18.890  0.00  0.00    -0.080 HD
ENDBRANCH  30  31
ENDBRANCH  27  30
ENDBRANCH  26  27
ENDBRANCH  25  26
ENDBRANCH  19  25
ENDBRANCH   1  20
TORSDOF 8
ENDMDL
MODEL 9
REMARK VINA RESULT:     -10.3      6.321      9.787
REMARK  Name = 445950
REMARK  8 active torsions:
REMARK  status: ('A' for Active; 'I' for Inactive)
REMARK    1  A    between atoms: N_1  and  C_20
REMARK    2  A    between atoms: N_3  and  C_13
REMARK    3  A    between atoms: C_19  and  O_25
REMARK    4  A    between atoms: O_25  and  C_26
REMARK    5  A    between atoms: C_26  and  C_27
REMARK    6  A    between atoms: C_27  and  O_28
REMARK    7  A    between atoms: C_27  and  C_30
REMARK    8  A    between atoms: C_30  and  N_31
REMARK                            x       y       z     vdW  Elec       q    Type
REMARK                         _______ _______ _______ _____ _____    ______ ____
ROOT
ATOM      1  N   UNL     1      34.209 -13.512 -23.210  0.00  0.00    -0.301 N 
ATOM      2  H   UNL     1      34.811 -13.142 -23.896  0.00  0.00    +0.153 HD
ATOM      3  N   UNL     1      32.227  -9.167 -23.409  0.00  0.00    -0.298 N 
ATOM      4  N   UNL     1      32.344 -12.996 -21.822  0.00  0.00    -0.233 NA
ATOM      5  N   UNL     1      31.344 -10.805 -21.922  0.00  0.00    -0.233 NA
ATOM      6  C   UNL     1      33.231 -12.601 -22.765  0.00  0.00    +0.113 C 
ATOM      7  C   UNL     1      33.230 -11.335 -23.322  0.00  0.00    +0.122 C 
ATOM      8  C   UNL     1      32.257 -10.472 -22.859  0.00  0.00    +0.113 C 
ATOM      9  C   UNL     1      31.445 -12.064 -21.454  0.00  0.00    +0.252 C 
ATOM     10  H   UNL     1      32.549  -9.121 -24.337  0.00  0.00    +0.153 HD
ENDROOT
BRANCH   3  13
ATOM     11  F   UNL     1      30.534  -7.476 -24.826  0.00  0.00    -0.203 F 
ATOM     12  F   UNL     1      33.093  -8.303 -20.911  0.00  0.00    -0.203 F 
ATOM     13  C   UNL     1      31.825  -7.928 -22.885  0.00  0.00    +0.105 C 
ATOM     14  C   UNL     1      30.974  -7.096 -23.618  0.00  0.00    +0.156 C 
ATOM     15  C   UNL     1      32.277  -7.517 -21.627  0.00  0.00    +0.156 C 
ATOM     16  C   UNL     1      30.578  -5.863 -23.098  0.00  0.00    +0.031 C 
ATOM     17  C   UNL     1      31.880  -6.284 -21.108  0.00  0.00    +0.031 C 
ATOM     18  C   UNL     1      31.031  -5.458 -21.842  0.00  0.00    +0.005 C 
ENDBRANCH   3  13
BRANCH   1  20
ATOM     19  C   UNL     1      35.057 -17.489 -22.196  0.00  0.00    +0.139 C 
ATOM     20  C   UNL     1      34.494 -14.851 -22.869  0.00  0.00    +0.049 C 
ATOM     21  C   UNL     1      34.952 -17.127 -23.535  0.00  0.00    +0.038 C 
ATOM     22  C   UNL     1      34.884 -16.544 -21.191  0.00  0.00    +0.038 C 
ATOM     23  C   UNL     1      34.670 -15.803 -23.872  0.00  0.00    +0.018 C 
ATOM     24  C   UNL     1      34.601 -15.221 -21.528  0.00  0.00    +0.018 C 
BRANCH  19  25
ATOM     25  O   UNL     1      35.335 -18.789 -21.865  0.00  0.00    -0.473 OA
BRANCH  25  26
ATOM     26  C   UNL     1      36.385 -19.001 -20.927  0.00  0.00    +0.232 C 
BRANCH  26  27
ATOM     27  C   UNL     1      36.332 -20.448 -20.444  0.00  0.00    +0.133 C 
BRANCH  27  28
ATOM     28  O   UNL     1      36.533 -20.466 -19.028  0.00  0.00    -0.383 OA
ATOM     29  H   UNL     1      37.473 -20.321 -18.834  0.00  0.00    +0.210 HD
ENDBRANCH  27  28
BRANCH  27  30
ATOM     30  C   UNL     1      35.000 -21.138 -20.746  0.00  0.00    -0.044 C 
BRANCH  30  31
ATOM     31  N   UNL     1      33.984 -20.829 -19.749  0.00  0.00    +0.386 N 
ATOM     32  C   UNL     1      33.558 -22.044 -19.051  0.00  0.00    -0.101 C 
ATOM     33  C   UNL     1      32.832 -20.172 -20.371  0.00  0.00    -0.101 C 
ATOM     34  H   UNL     1      34.393 -20.190 -19.068  0.00  0.00    -0.080 HD
ENDBRANCH  30  31
ENDBRANCH  27  30
ENDBRANCH  26  27
ENDBRANCH  25  26
ENDBRANCH  19  25
ENDBRANCH   1  20
TORSDOF 8
ENDMDL
