MODEL 1
REMARK VINA RESULT:      -6.6      0.000      0.000
REMARK  Name = 1491
REMARK  4 active torsions:
REMARK  status: ('A' for Active; 'I' for Inactive)
REMARK    1  A    between atoms: C_1  and  C_12
REMARK    2  A    between atoms: C_2  and  O_7
REMARK    3  A    between atoms: C_5  and  O_9
REMARK    4  A    between atoms: C_12  and  O_13
REMARK                            x       y       z     vdW  Elec       q    Type
REMARK                         _______ _______ _______ _____ _____    ______ ____
ROOT
ATOM      1  C   UNL     1      29.429 -23.791 -15.996  0.00  0.00    +0.109 C 
ATOM      2  C   UNL     1      30.746 -23.351 -16.131  0.00  0.00    +0.143 C 
ATOM      3  C   UNL     1      29.096 -24.699 -14.992  0.00  0.00    +0.013 C 
ATOM      4  C   UNL     1      31.730 -23.819 -15.260  0.00  0.00    +0.073 C 
ATOM      5  C   UNL     1      31.397 -24.727 -14.255  0.00  0.00    +0.137 C 
ATOM      6  C   UNL     1      30.080 -25.167 -14.121  0.00  0.00    +0.037 C 
ENDROOT
BRANCH   2   7
ATOM      7  O   UNL     1      31.090 -22.460 -17.104  0.00  0.00    -0.505 OA
ATOM      8  H   UNL     1      30.934 -21.545 -16.978  0.00  0.00    +0.292 HD
ENDBRANCH   2   7
BRANCH   5   9
ATOM      9  O   UNL     1      32.357 -25.186 -13.407  0.00  0.00    -0.505 OA
ATOM     10  H   UNL     1      32.906 -25.901 -13.663  0.00  0.00    +0.292 HD
ENDBRANCH   5   9
BRANCH   1  12
ATOM     11  O   UNL     1      27.690 -24.023 -17.623  0.00  0.00    -0.245 OA
ATOM     12  C   UNL     1      28.385 -23.312 -16.892  0.00  0.00    +0.341 C 
BRANCH  12  13
ATOM     13  O   UNL     1      28.241 -21.960 -16.844  0.00  0.00    -0.477 OA
ATOM     14  H   UNL     1      27.561 -21.580 -16.324  0.00  0.00    +0.295 HD
ENDBRANCH  12  13
ENDBRANCH   1  12
TORSDOF 4
ENDMDL
MODEL 2
REMARK VINA RESULT:      -6.6      7.162      9.307
REMARK  Name = 1491
REMARK  4 active torsions:
REMARK  status: ('A' for Active; 'I' for Inactive)
REMARK    1  A    between atoms: C_1  and  C_12
REMARK    2  A    between atoms: C_2  and  O_7
REMARK    3  A    between atoms: C_5  and  O_9
REMARK    4  A    between atoms: C_12  and  O_13
REMARK                            x       y       z     vdW  Elec       q    Type
REMARK                         _______ _______ _______ _____ _____    ______ ____
ROOT
ATOM      1  C   UNL     1      38.893 -25.763 -14.099  0.00  0.00    +0.109 C 
ATOM      2  C   UNL     1      37.683 -26.117 -14.696  0.00  0.00    +0.143 C 
ATOM      3  C   UNL     1      38.899 -25.149 -12.847  0.00  0.00    +0.013 C 
ATOM      4  C   UNL     1      36.480 -25.857 -14.041  0.00  0.00    +0.073 C 
ATOM      5  C   UNL     1      36.486 -25.242 -12.789  0.00  0.00    +0.137 C 
ATOM      6  C   UNL     1      37.696 -24.889 -12.192  0.00  0.00    +0.037 C 
ENDROOT
BRANCH   2   7
ATOM      7  O   UNL     1      37.656 -26.722 -15.918  0.00  0.00    -0.505 OA
ATOM      8  H   UNL     1      38.321 -27.341 -16.148  0.00  0.00    +0.292 HD
ENDBRANCH   2   7
BRANCH   5   9
ATOM      9  O   UNL     1      35.312 -24.987 -12.151  0.00  0.00    -0.505 OA
ATOM     10  H   UNL     1      34.605 -25.600 -12.206  0.00  0.00    +0.292 HD
ENDBRANCH   5   9
BRANCH   1  12
ATOM     11  O   UNL     1      41.142 -26.566 -14.240  0.00  0.00    -0.245 OA
ATOM     12  C   UNL     1      40.162 -26.029 -14.763  0.00  0.00    +0.341 C 
BRANCH  12  13
ATOM     13  O   UNL     1      40.164 -25.619 -16.061  0.00  0.00    -0.477 OA
ATOM     14  H   UNL     1      39.734 -26.133 -16.715  0.00  0.00    +0.295 HD
ENDBRANCH  12  13
ENDBRANCH   1  12
TORSDOF 4
ENDMDL
MODEL 3
REMARK VINA RESULT:      -6.5      5.940      7.609
REMARK  Name = 1491
REMARK  4 active torsions:
REMARK  status: ('A' for Active; 'I' for Inactive)
REMARK    1  A    between atoms: C_1  and  C_12
REMARK    2  A    between atoms: C_2  and  O_7
REMARK    3  A    between atoms: C_5  and  O_9
REMARK    4  A    between atoms: C_12  and  O_13
REMARK                            x       y       z     vdW  Elec       q    Type
REMARK                         _______ _______ _______ _____ _____    ______ ____
ROOT
ATOM      1  C   UNL     1      34.306 -21.506 -19.593  0.00  0.00    +0.109 C 
ATOM      2  C   UNL     1      33.735 -20.488 -20.357  0.00  0.00    +0.143 C 
ATOM      3  C   UNL     1      35.691 -21.568 -19.437  0.00  0.00    +0.013 C 
ATOM      4  C   UNL     1      34.549 -19.531 -20.962  0.00  0.00    +0.073 C 
ATOM      5  C   UNL     1      35.934 -19.593 -20.806  0.00  0.00    +0.137 C 
ATOM      6  C   UNL     1      36.504 -20.611 -20.042  0.00  0.00    +0.037 C 
ENDROOT
BRANCH   2   7
ATOM      7  O   UNL     1      32.384 -20.408 -20.518  0.00  0.00    -0.505 OA
ATOM      8  H   UNL     1      31.813 -20.724 -19.846  0.00  0.00    +0.292 HD
ENDBRANCH   2   7
BRANCH   5   9
ATOM      9  O   UNL     1      36.728 -18.660 -21.398  0.00  0.00    -0.505 OA
ATOM     10  H   UNL     1      37.658 -18.704 -21.296  0.00  0.00    +0.292 HD
ENDBRANCH   5   9
BRANCH   1  12
ATOM     11  O   UNL     1      32.453 -22.284 -18.296  0.00  0.00    -0.245 OA
ATOM     12  C   UNL     1      33.475 -22.513 -18.948  0.00  0.00    +0.341 C 
BRANCH  12  13
ATOM     13  O   UNL     1      33.946 -23.775 -19.140  0.00  0.00    -0.477 OA
ATOM     14  H   UNL     1      34.662 -24.091 -18.625  0.00  0.00    +0.295 HD
ENDBRANCH  12  13
ENDBRANCH   1  12
TORSDOF 4
ENDMDL
MODEL 4
REMARK VINA RESULT:      -6.5      1.146      2.082
REMARK  Name = 1491
REMARK  4 active torsions:
REMARK  status: ('A' for Active; 'I' for Inactive)
REMARK    1  A    between atoms: C_1  and  C_12
REMARK    2  A    between atoms: C_2  and  O_7
REMARK    3  A    between atoms: C_5  and  O_9
REMARK    4  A    between atoms: C_12  and  O_13
REMARK                            x       y       z     vdW  Elec       q    Type
REMARK                         _______ _______ _______ _____ _____    ______ ____
ROOT
ATOM      1  C   UNL     1      29.841 -23.785 -15.815  0.00  0.00    +0.109 C 
ATOM      2  C   UNL     1      29.648 -24.704 -14.784  0.00  0.00    +0.143 C 
ATOM      3  C   UNL     1      31.094 -23.202 -16.006  0.00  0.00    +0.013 C 
ATOM      4  C   UNL     1      30.708 -25.041 -13.943  0.00  0.00    +0.073 C 
ATOM      5  C   UNL     1      31.961 -24.458 -14.133  0.00  0.00    +0.137 C 
ATOM      6  C   UNL     1      32.154 -23.539 -15.165  0.00  0.00    +0.037 C 
ENDROOT
BRANCH   2   7
ATOM      7  O   UNL     1      28.431 -25.286 -14.584  0.00  0.00    -0.505 OA
ATOM      8  H   UNL     1      28.326 -26.208 -14.716  0.00  0.00    +0.292 HD
ENDBRANCH   2   7
BRANCH   5   9
ATOM      9  O   UNL     1      32.995 -24.786 -13.312  0.00  0.00    -0.505 OA
ATOM     10  H   UNL     1      33.213 -25.686 -13.169  0.00  0.00    +0.292 HD
ENDBRANCH   5   9
BRANCH   1  12
ATOM     11  O   UNL     1      27.954 -24.212 -17.222  0.00  0.00    -0.245 OA
ATOM     12  C   UNL     1      28.749 -23.421 -16.708  0.00  0.00    +0.341 C 
BRANCH  12  13
ATOM     13  O   UNL     1      28.683 -22.080 -16.928  0.00  0.00    -0.477 OA
ATOM     14  H   UNL     1      29.386 -21.526 -16.655  0.00  0.00    +0.295 HD
ENDBRANCH  12  13
ENDBRANCH   1  12
TORSDOF 4
ENDMDL
MODEL 5
REMARK VINA RESULT:      -6.4      5.874      7.568
REMARK  Name = 1491
REMARK  4 active torsions:
REMARK  status: ('A' for Active; 'I' for Inactive)
REMARK    1  A    between atoms: C_1  and  C_12
REMARK    2  A    between atoms: C_2  and  O_7
REMARK    3  A    between atoms: C_5  and  O_9
REMARK    4  A    between atoms: C_12  and  O_13
REMARK                            x       y       z     vdW  Elec       q    Type
REMARK                         _______ _______ _______ _____ _____    ______ ____
ROOT
ATOM      1  C   UNL     1      34.014 -21.418 -19.585  0.00  0.00    +0.109 C 
ATOM      2  C   UNL     1      35.401 -21.289 -19.513  0.00  0.00    +0.143 C 
ATOM      3  C   UNL     1      33.271 -20.535 -20.367  0.00  0.00    +0.013 C 
ATOM      4  C   UNL     1      36.045 -20.276 -20.225  0.00  0.00    +0.073 C 
ATOM      5  C   UNL     1      35.301 -19.393 -21.008  0.00  0.00    +0.137 C 
ATOM      6  C   UNL     1      33.914 -19.523 -21.079  0.00  0.00    +0.037 C 
ENDROOT
BRANCH   2   7
ATOM      7  O   UNL     1      36.146 -22.144 -18.757  0.00  0.00    -0.505 OA
ATOM      8  H   UNL     1      35.761 -22.568 -18.014  0.00  0.00    +0.292 HD
ENDBRANCH   2   7
BRANCH   5   9
ATOM      9  O   UNL     1      35.929 -18.405 -21.700  0.00  0.00    -0.505 OA
ATOM     10  H   UNL     1      36.107 -17.583 -21.286  0.00  0.00    +0.292 HD
ENDBRANCH   5   9
BRANCH   1  12
ATOM     11  O   UNL     1      32.331 -22.308 -18.137  0.00  0.00    -0.245 OA
ATOM     12  C   UNL     1      33.322 -22.471 -18.853  0.00  0.00    +0.341 C 
BRANCH  12  13
ATOM     13  O   UNL     1      33.889 -23.693 -19.042  0.00  0.00    -0.477 OA
ATOM     14  H   UNL     1      34.769 -23.849 -18.762  0.00  0.00    +0.295 HD
ENDBRANCH  12  13
ENDBRANCH   1  12
TORSDOF 4
ENDMDL
MODEL 6
REMARK VINA RESULT:      -6.3      6.484      8.347
REMARK  Name = 1491
REMARK  4 active torsions:
REMARK  status: ('A' for Active; 'I' for Inactive)
REMARK    1  A    between atoms: C_1  and  C_12
REMARK    2  A    between atoms: C_2  and  O_7
REMARK    3  A    between atoms: C_5  and  O_9
REMARK    4  A    between atoms: C_12  and  O_13
REMARK                            x       y       z     vdW  Elec       q    Type
REMARK                         _______ _______ _______ _____ _____    ______ ____
ROOT
ATOM      1  C   UNL     1      37.405 -24.597 -12.900  0.00  0.00    +0.109 C 
ATOM      2  C   UNL     1      36.268 -24.421 -13.688  0.00  0.00    +0.143 C 
ATOM      3  C   UNL     1      38.320 -25.603 -13.209  0.00  0.00    +0.013 C 
ATOM      4  C   UNL     1      36.047 -25.251 -14.787  0.00  0.00    +0.073 C 
ATOM      5  C   UNL     1      36.962 -26.257 -15.096  0.00  0.00    +0.137 C 
ATOM      6  C   UNL     1      38.099 -26.433 -14.308  0.00  0.00    +0.037 C 
ENDROOT
BRANCH   2   7
ATOM      7  O   UNL     1      35.365 -23.441 -13.404  0.00  0.00    -0.505 OA
ATOM      8  H   UNL     1      35.582 -22.543 -13.562  0.00  0.00    +0.292 HD
ENDBRANCH   2   7
BRANCH   5   9
ATOM      9  O   UNL     1      36.744 -27.068 -16.167  0.00  0.00    -0.505 OA
ATOM     10  H   UNL     1      36.804 -27.999 -16.070  0.00  0.00    +0.292 HD
ENDBRANCH   5   9
BRANCH   1  12
ATOM     11  O   UNL     1      38.551 -22.889 -11.677  0.00  0.00    -0.245 OA
ATOM     12  C   UNL     1      37.659 -23.739 -11.750  0.00  0.00    +0.341 C 
BRANCH  12  13
ATOM     13  O   UNL     1      36.789 -23.967 -10.730  0.00  0.00    -0.477 OA
ATOM     14  H   UNL     1      36.841 -24.763 -10.239  0.00  0.00    +0.295 HD
ENDBRANCH  12  13
ENDBRANCH   1  12
TORSDOF 4
ENDMDL
MODEL 7
REMARK VINA RESULT:      -6.3      6.036      7.461
REMARK  Name = 1491
REMARK  4 active torsions:
REMARK  status: ('A' for Active; 'I' for Inactive)
REMARK    1  A    between atoms: C_1  and  C_12
REMARK    2  A    between atoms: C_2  and  O_7
REMARK    3  A    between atoms: C_5  and  O_9
REMARK    4  A    between atoms: C_12  and  O_13
REMARK                            x       y       z     vdW  Elec       q    Type
REMARK                         _______ _______ _______ _____ _____    ______ ____
ROOT
ATOM      1  C   UNL     1      34.784 -20.213 -20.469  0.00  0.00    +0.109 C 
ATOM      2  C   UNL     1      33.512 -20.703 -20.172  0.00  0.00    +0.143 C 
ATOM      3  C   UNL     1      35.907 -20.775 -19.862  0.00  0.00    +0.013 C 
ATOM      4  C   UNL     1      33.364 -21.756 -19.270  0.00  0.00    +0.073 C 
ATOM      5  C   UNL     1      34.487 -22.319 -18.664  0.00  0.00    +0.137 C 
ATOM      6  C   UNL     1      35.759 -21.828 -18.960  0.00  0.00    +0.037 C 
ENDROOT
BRANCH   2   7
ATOM      7  O   UNL     1      32.403 -20.169 -20.758  0.00  0.00    -0.505 OA
ATOM      8  H   UNL     1      31.832 -20.714 -21.263  0.00  0.00    +0.292 HD
ENDBRANCH   2   7
BRANCH   5   9
ATOM      9  O   UNL     1      34.342 -23.345 -17.782  0.00  0.00    -0.505 OA
ATOM     10  H   UNL     1      33.795 -23.240 -17.028  0.00  0.00    +0.292 HD
ENDBRANCH   5   9
BRANCH   1  12
ATOM     11  O   UNL     1      34.616 -19.130 -22.595  0.00  0.00    -0.245 OA
ATOM     12  C   UNL     1      34.963 -19.117 -21.411  0.00  0.00    +0.341 C 
BRANCH  12  13
ATOM     13  O   UNL     1      35.568 -18.038 -20.844  0.00  0.00    -0.477 OA
ATOM     14  H   UNL     1      35.180 -17.621 -20.101  0.00  0.00    +0.295 HD
ENDBRANCH  12  13
ENDBRANCH   1  12
TORSDOF 4
ENDMDL
MODEL 8
REMARK VINA RESULT:      -6.3     10.480     12.240
REMARK  Name = 1491
REMARK  4 active torsions:
REMARK  status: ('A' for Active; 'I' for Inactive)
REMARK    1  A    between atoms: C_1  and  C_12
REMARK    2  A    between atoms: C_2  and  O_7
REMARK    3  A    between atoms: C_5  and  O_9
REMARK    4  A    between atoms: C_12  and  O_13
REMARK                            x       y       z     vdW  Elec       q    Type
REMARK                         _______ _______ _______ _____ _____    ______ ____
ROOT
ATOM      1  C   UNL     1      34.622 -16.293 -22.554  0.00  0.00    +0.109 C 
ATOM      2  C   UNL     1      35.119 -17.104 -23.574  0.00  0.00    +0.143 C 
ATOM      3  C   UNL     1      33.771 -15.231 -22.859  0.00  0.00    +0.013 C 
ATOM      4  C   UNL     1      34.766 -16.853 -24.900  0.00  0.00    +0.073 C 
ATOM      5  C   UNL     1      33.915 -15.790 -25.205  0.00  0.00    +0.137 C 
ATOM      6  C   UNL     1      33.418 -14.979 -24.185  0.00  0.00    +0.037 C 
ENDROOT
BRANCH   2   7
ATOM      7  O   UNL     1      35.949 -18.149 -23.295  0.00  0.00    -0.505 OA
ATOM      8  H   UNL     1      36.856 -18.101 -23.524  0.00  0.00    +0.292 HD
ENDBRANCH   2   7
BRANCH   5   9
ATOM      9  O   UNL     1      33.572 -15.544 -26.498  0.00  0.00    -0.505 OA
ATOM     10  H   UNL     1      34.199 -15.677 -27.183  0.00  0.00    +0.292 HD
ENDBRANCH   5   9
BRANCH   1  12
ATOM     11  O   UNL     1      35.328 -17.627 -20.698  0.00  0.00    -0.245 OA
ATOM     12  C   UNL     1      34.974 -16.540 -21.162  0.00  0.00    +0.341 C 
BRANCH  12  13
ATOM     13  O   UNL     1      34.876 -15.420 -20.396  0.00  0.00    -0.477 OA
ATOM     14  H   UNL     1      34.523 -15.475 -19.530  0.00  0.00    +0.295 HD
ENDBRANCH  12  13
ENDBRANCH   1  12
TORSDOF 4
ENDMDL
MODEL 9
REMARK VINA RESULT:      -6.3      9.258     11.040
REMARK  Name = 1491
REMARK  4 active torsions:
REMARK  status: ('A' for Active; 'I' for Inactive)
REMARK    1  A    between atoms: C_1  and  C_12
REMARK    2  A    between atoms: C_2  and  O_7
REMARK    3  A    between atoms: C_5  and  O_9
REMARK    4  A    between atoms: C_12  and  O_13
REMARK                            x       y       z     vdW  Elec       q    Type
REMARK                         _______ _______ _______ _____ _____    ______ ____
ROOT
ATOM      1  C   UNL     1      34.899 -18.549 -22.276  0.00  0.00    +0.109 C 
ATOM      2  C   UNL     1      34.947 -17.155 -22.299  0.00  0.00    +0.143 C 
ATOM      3  C   UNL     1      34.753 -19.262 -23.466  0.00  0.00    +0.013 C 
ATOM      4  C   UNL     1      34.849 -16.475 -23.513  0.00  0.00    +0.073 C 
ATOM      5  C   UNL     1      34.703 -17.188 -24.702  0.00  0.00    +0.137 C 
ATOM      6  C   UNL     1      34.656 -18.582 -24.679  0.00  0.00    +0.037 C 
ENDROOT
BRANCH   2   7
ATOM      7  O   UNL     1      35.093 -16.441 -21.147  0.00  0.00    -0.505 OA
ATOM      8  H   UNL     1      35.742 -16.692 -20.520  0.00  0.00    +0.292 HD
ENDBRANCH   2   7
BRANCH   5   9
ATOM      9  O   UNL     1      34.606 -16.524 -25.886  0.00  0.00    -0.505 OA
ATOM     10  H   UNL     1      33.765 -16.381 -26.275  0.00  0.00    +0.292 HD
ENDBRANCH   5   9
BRANCH   1  12
ATOM     11  O   UNL     1      34.128 -20.007 -20.542  0.00  0.00    -0.245 OA
ATOM     12  C   UNL     1      35.004 -19.281 -21.021  0.00  0.00    +0.341 C 
BRANCH  12  13
ATOM     13  O   UNL     1      36.201 -19.084 -20.404  0.00  0.00    -0.477 OA
ATOM     14  H   UNL     1      36.498 -19.691 -19.755  0.00  0.00    +0.295 HD
ENDBRANCH  12  13
ENDBRANCH   1  12
TORSDOF 4
ENDMDL
