MODEL 1
REMARK VINA RESULT:      -7.8      0.000      0.000
REMARK  Name = 444797
REMARK  7 active torsions:
REMARK  status: ('A' for Active; 'I' for Inactive)
REMARK    1  A    between atoms: C_1  and  C_3
REMARK    2  A    between atoms: C_1  and  C_6
REMARK    3  A    between atoms: C_1  and  C_13
REMARK    4  A    between atoms: C_3  and  O_4
REMARK    5  A    between atoms: C_6  and  C_7
REMARK    6  A    between atoms: C_13  and  C_15
REMARK    7  A    between atoms: C_15  and  O_16
REMARK                            x       y       z     vdW  Elec       q    Type
REMARK                         _______ _______ _______ _____ _____    ______ ____
ROOT
ATOM      1  C   UNL     1      34.890 -17.351 -22.360  0.00  0.00    +0.114 C 
ENDROOT
BRANCH   1   3
ATOM      2  O   UNL     1      35.046 -16.198 -20.237  0.00  0.00    -0.250 OA
ATOM      3  C   UNL     1      34.822 -16.143 -21.440  0.00  0.00    +0.314 C 
BRANCH   3   4
ATOM      4  O   UNL     1      34.502 -14.990 -22.079  0.00  0.00    -0.480 OA
ATOM      5  H   UNL     1      33.886 -14.398 -21.695  0.00  0.00    +0.295 HD
ENDBRANCH   3   4
ENDBRANCH   1   3
BRANCH   1   6
ATOM      6  C   UNL     1      35.777 -18.439 -21.724  0.00  0.00    +0.038 C 
BRANCH   6   7
ATOM      7  C   UNL     1      35.005 -19.496 -20.976  0.00  0.00    -0.022 C 
ATOM      8  C   UNL     1      33.619 -19.461 -20.986  0.00  0.00    -0.004 C 
ATOM      9  C   UNL     1      35.694 -20.487 -20.293  0.00  0.00    -0.004 C 
ATOM     10  C   UNL     1      32.904 -20.439 -20.294  0.00  0.00    -0.000 C 
ATOM     11  C   UNL     1      34.979 -21.465 -19.602  0.00  0.00    -0.000 C 
ATOM     12  C   UNL     1      33.584 -21.441 -19.602  0.00  0.00    -0.000 C 
ENDBRANCH   6   7
ENDBRANCH   1   6
BRANCH   1  13
ATOM     13  C   UNL     1      35.338 -16.929 -23.767  0.00  0.00    +0.121 C 
BRANCH  13  15
ATOM     14  O   UNL     1      34.176 -18.788 -24.789  0.00  0.00    -0.250 OA
ATOM     15  C   UNL     1      34.547 -17.624 -24.851  0.00  0.00    +0.314 C 
BRANCH  15  16
ATOM     16  O   UNL     1      34.295 -16.815 -25.910  0.00  0.00    -0.480 OA
ATOM     17  H   UNL     1      33.443 -16.804 -26.300  0.00  0.00    +0.295 HD
ENDBRANCH  15  16
ENDBRANCH  13  15
ENDBRANCH   1  13
TORSDOF 7
ENDMDL
MODEL 2
REMARK VINA RESULT:      -7.8      0.147      1.256
REMARK  Name = 444797
REMARK  7 active torsions:
REMARK  status: ('A' for Active; 'I' for Inactive)
REMARK    1  A    between atoms: C_1  and  C_3
REMARK    2  A    between atoms: C_1  and  C_6
REMARK    3  A    between atoms: C_1  and  C_13
REMARK    4  A    between atoms: C_3  and  O_4
REMARK    5  A    between atoms: C_6  and  C_7
REMARK    6  A    between atoms: C_13  and  C_15
REMARK    7  A    between atoms: C_15  and  O_16
REMARK                            x       y       z     vdW  Elec       q    Type
REMARK                         _______ _______ _______ _____ _____    ______ ____
ROOT
ATOM      1  C   UNL     1      34.860 -17.368 -22.301  0.00  0.00    +0.114 C 
ENDROOT
BRANCH   1   3
ATOM      2  O   UNL     1      35.022 -16.136 -20.222  0.00  0.00    -0.250 OA
ATOM      3  C   UNL     1      34.825 -16.121 -21.432  0.00  0.00    +0.314 C 
BRANCH   3   4
ATOM      4  O   UNL     1      34.568 -14.983 -22.123  0.00  0.00    -0.480 OA
ATOM      5  H   UNL     1      35.247 -14.350 -22.252  0.00  0.00    +0.295 HD
ENDBRANCH   3   4
ENDBRANCH   1   3
BRANCH   1   6
ATOM      6  C   UNL     1      35.763 -18.431 -21.648  0.00  0.00    +0.038 C 
BRANCH   6   7
ATOM      7  C   UNL     1      35.004 -19.514 -20.922  0.00  0.00    -0.022 C 
ATOM      8  C   UNL     1      35.705 -20.510 -20.260  0.00  0.00    -0.004 C 
ATOM      9  C   UNL     1      33.617 -19.494 -20.928  0.00  0.00    -0.004 C 
ATOM     10  C   UNL     1      35.004 -21.511 -19.589  0.00  0.00    -0.000 C 
ATOM     11  C   UNL     1      32.916 -20.495 -20.257  0.00  0.00    -0.000 C 
ATOM     12  C   UNL     1      33.609 -21.504 -19.588  0.00  0.00    -0.000 C 
ENDBRANCH   6   7
ENDBRANCH   1   6
BRANCH   1  13
ATOM     13  C   UNL     1      35.265 -17.007 -23.739  0.00  0.00    +0.121 C 
BRANCH  13  15
ATOM     14  O   UNL     1      34.317 -19.005 -24.720  0.00  0.00    -0.250 OA
ATOM     15  C   UNL     1      34.484 -17.794 -24.766  0.00  0.00    +0.314 C 
BRANCH  15  16
ATOM     16  O   UNL     1      33.989 -17.008 -25.755  0.00  0.00    -0.480 OA
ATOM     17  H   UNL     1      33.203 -17.255 -26.200  0.00  0.00    +0.295 HD
ENDBRANCH  15  16
ENDBRANCH  13  15
ENDBRANCH   1  13
TORSDOF 7
ENDMDL
MODEL 3
REMARK VINA RESULT:      -7.5      1.369      3.038
REMARK  Name = 444797
REMARK  7 active torsions:
REMARK  status: ('A' for Active; 'I' for Inactive)
REMARK    1  A    between atoms: C_1  and  C_3
REMARK    2  A    between atoms: C_1  and  C_6
REMARK    3  A    between atoms: C_1  and  C_13
REMARK    4  A    between atoms: C_3  and  O_4
REMARK    5  A    between atoms: C_6  and  C_7
REMARK    6  A    between atoms: C_13  and  C_15
REMARK    7  A    between atoms: C_15  and  O_16
REMARK                            x       y       z     vdW  Elec       q    Type
REMARK                         _______ _______ _______ _____ _____    ______ ____
ROOT
ATOM      1  C   UNL     1      34.968 -17.487 -21.611  0.00  0.00    +0.114 C 
ENDROOT
BRANCH   1   3
ATOM      2  O   UNL     1      35.250 -18.336 -23.862  0.00  0.00    -0.250 OA
ATOM      3  C   UNL     1      35.325 -17.391 -23.086  0.00  0.00    +0.314 C 
BRANCH   3   4
ATOM      4  O   UNL     1      35.726 -16.153 -23.468  0.00  0.00    -0.480 OA
ATOM      5  H   UNL     1      36.608 -16.012 -23.749  0.00  0.00    +0.295 HD
ENDBRANCH   3   4
ENDBRANCH   1   3
BRANCH   1   6
ATOM      6  C   UNL     1      33.803 -18.478 -21.424  0.00  0.00    +0.038 C 
BRANCH   6   7
ATOM      7  C   UNL     1      34.186 -19.739 -20.691  0.00  0.00    -0.022 C 
ATOM      8  C   UNL     1      35.520 -20.108 -20.623  0.00  0.00    -0.004 C 
ATOM      9  C   UNL     1      33.197 -20.508 -20.095  0.00  0.00    -0.004 C 
ATOM     10  C   UNL     1      35.875 -21.275 -19.945  0.00  0.00    -0.000 C 
ATOM     11  C   UNL     1      33.551 -21.673 -19.418  0.00  0.00    -0.000 C 
ATOM     12  C   UNL     1      34.890 -22.057 -19.342  0.00  0.00    -0.000 C 
ENDBRANCH   6   7
ENDBRANCH   1   6
BRANCH   1  13
ATOM     13  C   UNL     1      34.695 -16.091 -21.033  0.00  0.00    +0.121 C 
BRANCH  13  15
ATOM     14  O   UNL     1      33.006 -15.172 -22.501  0.00  0.00    -0.250 OA
ATOM     15  C   UNL     1      33.318 -15.584 -21.392  0.00  0.00    +0.314 C 
BRANCH  15  16
ATOM     16  O   UNL     1      32.458 -15.629 -20.344  0.00  0.00    -0.480 OA
ATOM     17  H   UNL     1      32.056 -16.440 -20.101  0.00  0.00    +0.295 HD
ENDBRANCH  15  16
ENDBRANCH  13  15
ENDBRANCH   1  13
TORSDOF 7
ENDMDL
MODEL 4
REMARK VINA RESULT:      -7.3      8.378     10.625
REMARK  Name = 444797
REMARK  7 active torsions:
REMARK  status: ('A' for Active; 'I' for Inactive)
REMARK    1  A    between atoms: C_1  and  C_3
REMARK    2  A    between atoms: C_1  and  C_6
REMARK    3  A    between atoms: C_1  and  C_13
REMARK    4  A    between atoms: C_3  and  O_4
REMARK    5  A    between atoms: C_6  and  C_7
REMARK    6  A    between atoms: C_13  and  C_15
REMARK    7  A    between atoms: C_15  and  O_16
REMARK                            x       y       z     vdW  Elec       q    Type
REMARK                         _______ _______ _______ _____ _____    ______ ____
ROOT
ATOM      1  C   UNL     1      38.070 -24.454 -13.707  0.00  0.00    +0.114 C 
ENDROOT
BRANCH   1   3
ATOM      2  O   UNL     1      37.746 -25.237 -11.438  0.00  0.00    -0.250 OA
ATOM      3  C   UNL     1      38.157 -24.363 -12.192  0.00  0.00    +0.314 C 
BRANCH   3   4
ATOM      4  O   UNL     1      38.746 -23.224 -11.748  0.00  0.00    -0.480 OA
ATOM      5  H   UNL     1      39.593 -22.981 -12.066  0.00  0.00    +0.295 HD
ENDBRANCH   3   4
ENDBRANCH   1   3
BRANCH   1   6
ATOM      6  C   UNL     1      36.595 -24.396 -14.146  0.00  0.00    +0.038 C 
BRANCH   6   7
ATOM      7  C   UNL     1      36.355 -23.548 -15.370  0.00  0.00    -0.022 C 
ATOM      8  C   UNL     1      35.108 -23.564 -15.975  0.00  0.00    -0.004 C 
ATOM      9  C   UNL     1      37.385 -22.764 -15.868  0.00  0.00    -0.004 C 
ATOM     10  C   UNL     1      34.886 -22.780 -17.108  0.00  0.00    -0.000 C 
ATOM     11  C   UNL     1      37.163 -21.980 -16.999  0.00  0.00    -0.000 C 
ATOM     12  C   UNL     1      35.913 -21.988 -17.619  0.00  0.00    -0.000 C 
ENDBRANCH   6   7
ENDBRANCH   1   6
BRANCH   1  13
ATOM     13  C   UNL     1      38.821 -25.694 -14.213  0.00  0.00    +0.121 C 
BRANCH  13  15
ATOM     14  O   UNL     1      40.983 -24.613 -14.301  0.00  0.00    -0.250 OA
ATOM     15  C   UNL     1      40.155 -25.343 -14.829  0.00  0.00    +0.314 C 
BRANCH  15  16
ATOM     16  O   UNL     1      40.337 -25.924 -16.041  0.00  0.00    -0.480 OA
ATOM     17  H   UNL     1      39.822 -25.650 -16.774  0.00  0.00    +0.295 HD
ENDBRANCH  15  16
ENDBRANCH  13  15
ENDBRANCH   1  13
TORSDOF 7
ENDMDL
MODEL 5
REMARK VINA RESULT:      -7.3      6.894      9.358
REMARK  Name = 444797
REMARK  7 active torsions:
REMARK  status: ('A' for Active; 'I' for Inactive)
REMARK    1  A    between atoms: C_1  and  C_3
REMARK    2  A    between atoms: C_1  and  C_6
REMARK    3  A    between atoms: C_1  and  C_13
REMARK    4  A    between atoms: C_3  and  O_4
REMARK    5  A    between atoms: C_6  and  C_7
REMARK    6  A    between atoms: C_13  and  C_15
REMARK    7  A    between atoms: C_15  and  O_16
REMARK                            x       y       z     vdW  Elec       q    Type
REMARK                         _______ _______ _______ _____ _____    ______ ____
ROOT
ATOM      1  C   UNL     1      36.514 -24.279 -15.520  0.00  0.00    +0.114 C 
ENDROOT
BRANCH   1   3
ATOM      2  O   UNL     1      37.821 -23.392 -13.684  0.00  0.00    -0.250 OA
ATOM      3  C   UNL     1      37.768 -23.726 -14.862  0.00  0.00    +0.314 C 
BRANCH   3   4
ATOM      4  O   UNL     1      38.832 -23.647 -15.699  0.00  0.00    -0.480 OA
ATOM      5  H   UNL     1      39.621 -23.230 -15.415  0.00  0.00    +0.295 HD
ENDBRANCH   3   4
ENDBRANCH   1   3
BRANCH   1   6
ATOM      6  C   UNL     1      35.440 -23.177 -15.598  0.00  0.00    +0.038 C 
BRANCH   6   7
ATOM      7  C   UNL     1      35.196 -22.660 -16.993  0.00  0.00    -0.022 C 
ATOM      8  C   UNL     1      33.968 -22.882 -17.596  0.00  0.00    -0.004 C 
ATOM      9  C   UNL     1      36.204 -21.969 -17.650  0.00  0.00    -0.004 C 
ATOM     10  C   UNL     1      33.742 -22.405 -18.887  0.00  0.00    -0.000 C 
ATOM     11  C   UNL     1      35.978 -21.492 -18.939  0.00  0.00    -0.000 C 
ATOM     12  C   UNL     1      34.747 -21.709 -19.559  0.00  0.00    -0.000 C 
ENDBRANCH   6   7
ENDBRANCH   1   6
BRANCH   1  13
ATOM     13  C   UNL     1      36.046 -25.552 -14.798  0.00  0.00    +0.121 C 
BRANCH  13  15
ATOM     14  O   UNL     1      37.788 -27.139 -14.256  0.00  0.00    -0.250 OA
ATOM     15  C   UNL     1      36.962 -26.724 -15.057  0.00  0.00    +0.314 C 
BRANCH  15  16
ATOM     16  O   UNL     1      36.774 -27.269 -16.285  0.00  0.00    -0.480 OA
ATOM     17  H   UNL     1      36.747 -26.719 -17.043  0.00  0.00    +0.295 HD
ENDBRANCH  15  16
ENDBRANCH  13  15
ENDBRANCH   1  13
TORSDOF 7
ENDMDL
MODEL 6
REMARK VINA RESULT:      -7.3      7.663      9.792
REMARK  Name = 444797
REMARK  7 active torsions:
REMARK  status: ('A' for Active; 'I' for Inactive)
REMARK    1  A    between atoms: C_1  and  C_3
REMARK    2  A    between atoms: C_1  and  C_6
REMARK    3  A    between atoms: C_1  and  C_13
REMARK    4  A    between atoms: C_3  and  O_4
REMARK    5  A    between atoms: C_6  and  C_7
REMARK    6  A    between atoms: C_13  and  C_15
REMARK    7  A    between atoms: C_15  and  O_16
REMARK                            x       y       z     vdW  Elec       q    Type
REMARK                         _______ _______ _______ _____ _____    ______ ____
ROOT
ATOM      1  C   UNL     1      29.649 -23.808 -15.519  0.00  0.00    +0.114 C 
ENDROOT
BRANCH   1   3
ATOM      2  O   UNL     1      30.575 -25.883 -14.681  0.00  0.00    -0.250 OA
ATOM      3  C   UNL     1      29.597 -25.158 -14.823  0.00  0.00    +0.314 C 
BRANCH   3   4
ATOM      4  O   UNL     1      28.365 -25.484 -14.358  0.00  0.00    -0.480 OA
ATOM      5  H   UNL     1      28.118 -25.250 -13.485  0.00  0.00    +0.295 HD
ENDBRANCH   3   4
ENDBRANCH   1   3
BRANCH   1   6
ATOM      6  C   UNL     1      30.770 -22.949 -14.902  0.00  0.00    +0.038 C 
BRANCH   6   7
ATOM      7  C   UNL     1      32.076 -23.019 -15.653  0.00  0.00    -0.022 C 
ATOM      8  C   UNL     1      32.073 -22.905 -17.034  0.00  0.00    -0.004 C 
ATOM      9  C   UNL     1      33.258 -23.193 -14.948  0.00  0.00    -0.004 C 
ATOM     10  C   UNL     1      33.281 -22.970 -17.729  0.00  0.00    -0.000 C 
ATOM     11  C   UNL     1      34.465 -23.257 -15.643  0.00  0.00    -0.000 C 
ATOM     12  C   UNL     1      34.477 -23.146 -17.033  0.00  0.00    -0.000 C 
ENDBRANCH   6   7
ENDBRANCH   1   6
BRANCH   1  13
ATOM     13  C   UNL     1      28.267 -23.138 -15.493  0.00  0.00    +0.121 C 
BRANCH  13  15
ATOM     14  O   UNL     1      27.504 -21.617 -17.212  0.00  0.00    -0.250 OA
ATOM     15  C   UNL     1      27.792 -22.757 -16.875  0.00  0.00    +0.314 C 
BRANCH  15  16
ATOM     16  O   UNL     1      27.712 -23.824 -17.709  0.00  0.00    -0.480 OA
ATOM     17  H   UNL     1      28.239 -24.583 -17.553  0.00  0.00    +0.295 HD
ENDBRANCH  15  16
ENDBRANCH  13  15
ENDBRANCH   1  13
TORSDOF 7
ENDMDL
MODEL 7
REMARK VINA RESULT:      -7.2      8.076      9.870
REMARK  Name = 444797
REMARK  7 active torsions:
REMARK  status: ('A' for Active; 'I' for Inactive)
REMARK    1  A    between atoms: C_1  and  C_3
REMARK    2  A    between atoms: C_1  and  C_6
REMARK    3  A    between atoms: C_1  and  C_13
REMARK    4  A    between atoms: C_3  and  O_4
REMARK    5  A    between atoms: C_6  and  C_7
REMARK    6  A    between atoms: C_13  and  C_15
REMARK    7  A    between atoms: C_15  and  O_16
REMARK                            x       y       z     vdW  Elec       q    Type
REMARK                         _______ _______ _______ _____ _____    ______ ____
ROOT
ATOM      1  C   UNL     1      36.545 -24.320 -15.163  0.00  0.00    +0.114 C 
ENDROOT
BRANCH   1   3
ATOM      2  O   UNL     1      38.312 -23.926 -13.555  0.00  0.00    -0.250 OA
ATOM      3  C   UNL     1      37.961 -23.979 -14.728  0.00  0.00    +0.314 C 
BRANCH   3   4
ATOM      4  O   UNL     1      38.808 -23.752 -15.762  0.00  0.00    -0.480 OA
ATOM      5  H   UNL     1      39.191 -22.905 -15.877  0.00  0.00    +0.295 HD
ENDBRANCH   3   4
ENDBRANCH   1   3
BRANCH   1   6
ATOM      6  C   UNL     1      35.578 -23.217 -14.690  0.00  0.00    +0.038 C 
BRANCH   6   7
ATOM      7  C   UNL     1      34.261 -23.204 -15.424  0.00  0.00    -0.022 C 
ATOM      8  C   UNL     1      34.253 -23.106 -16.807  0.00  0.00    -0.004 C 
ATOM      9  C   UNL     1      33.079 -23.292 -14.704  0.00  0.00    -0.004 C 
ATOM     10  C   UNL     1      33.035 -23.093 -17.486  0.00  0.00    -0.000 C 
ATOM     11  C   UNL     1      31.862 -23.281 -15.383  0.00  0.00    -0.000 C 
ATOM     12  C   UNL     1      31.839 -23.181 -16.774  0.00  0.00    -0.000 C 
ENDBRANCH   6   7
ENDBRANCH   1   6
BRANCH   1  13
ATOM     13  C   UNL     1      36.161 -25.729 -14.687  0.00  0.00    +0.121 C 
BRANCH  13  15
ATOM     14  O   UNL     1      38.107 -27.165 -14.645  0.00  0.00    -0.250 OA
ATOM     15  C   UNL     1      37.096 -26.787 -15.223  0.00  0.00    +0.314 C 
BRANCH  15  16
ATOM     16  O   UNL     1      36.696 -27.273 -16.424  0.00  0.00    -0.480 OA
ATOM     17  H   UNL     1      35.837 -27.632 -16.523  0.00  0.00    +0.295 HD
ENDBRANCH  15  16
ENDBRANCH  13  15
ENDBRANCH   1  13
TORSDOF 7
ENDMDL
MODEL 8
REMARK VINA RESULT:      -7.2      2.356      3.425
REMARK  Name = 444797
REMARK  7 active torsions:
REMARK  status: ('A' for Active; 'I' for Inactive)
REMARK    1  A    between atoms: C_1  and  C_3
REMARK    2  A    between atoms: C_1  and  C_6
REMARK    3  A    between atoms: C_1  and  C_13
REMARK    4  A    between atoms: C_3  and  O_4
REMARK    5  A    between atoms: C_6  and  C_7
REMARK    6  A    between atoms: C_13  and  C_15
REMARK    7  A    between atoms: C_15  and  O_16
REMARK                            x       y       z     vdW  Elec       q    Type
REMARK                         _______ _______ _______ _____ _____    ______ ____
ROOT
ATOM      1  C   UNL     1      33.296 -14.818 -23.370  0.00  0.00    +0.114 C 
ENDROOT
BRANCH   1   3
ATOM      2  O   UNL     1      32.665 -14.304 -21.089  0.00  0.00    -0.250 OA
ATOM      3  C   UNL     1      32.563 -14.048 -22.283  0.00  0.00    +0.314 C 
BRANCH   3   4
ATOM      4  O   UNL     1      31.792 -13.038 -22.757  0.00  0.00    -0.480 OA
ATOM      5  H   UNL     1      32.193 -12.286 -23.148  0.00  0.00    +0.295 HD
ENDBRANCH   3   4
ENDBRANCH   1   3
BRANCH   1   6
ATOM      6  C   UNL     1      34.656 -15.304 -22.833  0.00  0.00    +0.038 C 
BRANCH   6   7
ATOM      7  C   UNL     1      34.728 -16.794 -22.613  0.00  0.00    -0.022 C 
ATOM      8  C   UNL     1      34.961 -17.631 -23.693  0.00  0.00    -0.004 C 
ATOM      9  C   UNL     1      34.561 -17.302 -21.333  0.00  0.00    -0.004 C 
ATOM     10  C   UNL     1      35.027 -19.010 -23.489  0.00  0.00    -0.000 C 
ATOM     11  C   UNL     1      34.627 -18.679 -21.130  0.00  0.00    -0.000 C 
ATOM     12  C   UNL     1      34.861 -19.534 -22.207  0.00  0.00    -0.000 C 
ENDBRANCH   6   7
ENDBRANCH   1   6
BRANCH   1  13
ATOM     13  C   UNL     1      33.398 -13.973 -24.649  0.00  0.00    +0.121 C 
BRANCH  13  15
ATOM     14  O   UNL     1      33.836 -15.709 -26.275  0.00  0.00    -0.250 OA
ATOM     15  C   UNL     1      33.129 -14.786 -25.893  0.00  0.00    +0.314 C 
BRANCH  15  16
ATOM     16  O   UNL     1      32.015 -14.378 -26.549  0.00  0.00    -0.480 OA
ATOM     17  H   UNL     1      31.969 -14.444 -27.483  0.00  0.00    +0.295 HD
ENDBRANCH  15  16
ENDBRANCH  13  15
ENDBRANCH   1  13
TORSDOF 7
ENDMDL
MODEL 9
REMARK VINA RESULT:      -7.1      9.210     11.126
REMARK  Name = 444797
REMARK  7 active torsions:
REMARK  status: ('A' for Active; 'I' for Inactive)
REMARK    1  A    between atoms: C_1  and  C_3
REMARK    2  A    between atoms: C_1  and  C_6
REMARK    3  A    between atoms: C_1  and  C_13
REMARK    4  A    between atoms: C_3  and  O_4
REMARK    5  A    between atoms: C_6  and  C_7
REMARK    6  A    between atoms: C_13  and  C_15
REMARK    7  A    between atoms: C_15  and  O_16
REMARK                            x       y       z     vdW  Elec       q    Type
REMARK                         _______ _______ _______ _____ _____    ______ ____
ROOT
ATOM      1  C   UNL     1      37.002 -25.199 -14.158  0.00  0.00    +0.114 C 
ENDROOT
BRANCH   1   3
ATOM      2  O   UNL     1      36.396 -26.892 -15.780  0.00  0.00    -0.250 OA
ATOM      3  C   UNL     1      37.194 -26.486 -14.943  0.00  0.00    +0.314 C 
BRANCH   3   4
ATOM      4  O   UNL     1      38.342 -27.142 -14.640  0.00  0.00    -0.480 OA
ATOM      5  H   UNL     1      38.439 -27.554 -13.804  0.00  0.00    +0.295 HD
ENDBRANCH   3   4
ENDBRANCH   1   3
BRANCH   1   6
ATOM      6  C   UNL     1      36.483 -24.092 -15.097  0.00  0.00    +0.038 C 
BRANCH   6   7
ATOM      7  C   UNL     1      34.990 -23.887 -15.032  0.00  0.00    -0.022 C 
ATOM      8  C   UNL     1      34.310 -23.479 -16.169  0.00  0.00    -0.004 C 
ATOM      9  C   UNL     1      34.323 -24.113 -13.838  0.00  0.00    -0.004 C 
ATOM     10  C   UNL     1      32.929 -23.289 -16.110  0.00  0.00    -0.000 C 
ATOM     11  C   UNL     1      32.943 -23.924 -13.779  0.00  0.00    -0.000 C 
ATOM     12  C   UNL     1      32.246 -23.512 -14.915  0.00  0.00    -0.000 C 
ENDBRANCH   6   7
ENDBRANCH   1   6
BRANCH   1  13
ATOM     13  C   UNL     1      38.293 -24.827 -13.414  0.00  0.00    +0.121 C 
BRANCH  13  15
ATOM     14  O   UNL     1      37.215 -24.792 -11.249  0.00  0.00    -0.250 OA
ATOM     15  C   UNL     1      38.019 -24.296 -12.026  0.00  0.00    +0.314 C 
BRANCH  15  16
ATOM     16  O   UNL     1      38.763 -23.200 -11.733  0.00  0.00    -0.480 OA
ATOM     17  H   UNL     1      39.201 -23.137 -10.908  0.00  0.00    +0.295 HD
ENDBRANCH  15  16
ENDBRANCH  13  15
ENDBRANCH   1  13
TORSDOF 7
ENDMDL
