MODEL 1
REMARK VINA RESULT:      -5.3      0.000      0.000
REMARK  Name = 7967
REMARK  0 active torsions:
REMARK  status: ('A' for Active; 'I' for Inactive)
REMARK                            x       y       z     vdW  Elec       q    Type
REMARK                         _______ _______ _______ _____ _____    ______ ____
ROOT
ATOM      1  O   UNL     1      33.011 -22.484 -19.475  0.00  0.00    -0.296 OA
ATOM      2  C   UNL     1      35.326 -19.428 -20.930  0.00  0.00    +0.001 C 
ATOM      3  C   UNL     1      35.935 -20.744 -20.450  0.00  0.00    +0.008 C 
ATOM      4  C   UNL     1      33.879 -19.629 -21.377  0.00  0.00    +0.008 C 
ATOM      5  C   UNL     1      35.124 -21.362 -19.319  0.00  0.00    +0.065 C 
ATOM      6  C   UNL     1      33.023 -20.220 -20.267  0.00  0.00    +0.065 C 
ATOM      7  C   UNL     1      33.666 -21.469 -19.705  0.00  0.00    +0.151 C 
ENDROOT
TORSDOF 0
ENDMDL
MODEL 2
REMARK VINA RESULT:      -5.2      1.920      2.720
REMARK  Name = 7967
REMARK  0 active torsions:
REMARK  status: ('A' for Active; 'I' for Inactive)
REMARK                            x       y       z     vdW  Elec       q    Type
REMARK                         _______ _______ _______ _____ _____    ______ ____
ROOT
ATOM      1  O   UNL     1      35.897 -18.635 -20.782  0.00  0.00    -0.296 OA
ATOM      2  C   UNL     1      33.691 -21.881 -19.595  0.00  0.00    +0.001 C 
ATOM      3  C   UNL     1      35.130 -21.670 -19.129  0.00  0.00    +0.008 C 
ATOM      4  C   UNL     1      33.036 -20.551 -19.964  0.00  0.00    +0.008 C 
ATOM      5  C   UNL     1      35.965 -20.956 -20.184  0.00  0.00    +0.065 C 
ATOM      6  C   UNL     1      33.824 -19.814 -21.037  0.00  0.00    +0.065 C 
ATOM      7  C   UNL     1      35.278 -19.688 -20.640  0.00  0.00    +0.151 C 
ENDROOT
TORSDOF 0
ENDMDL
MODEL 3
REMARK VINA RESULT:      -5.2      1.146      2.266
REMARK  Name = 7967
REMARK  0 active torsions:
REMARK  status: ('A' for Active; 'I' for Inactive)
REMARK                            x       y       z     vdW  Elec       q    Type
REMARK                         _______ _______ _______ _____ _____    ______ ____
ROOT
ATOM      1  O   UNL     1      35.453 -22.387 -18.137  0.00  0.00    -0.296 OA
ATOM      2  C   UNL     1      34.011 -19.928 -21.085  0.00  0.00    +0.001 C 
ATOM      3  C   UNL     1      33.108 -20.487 -19.988  0.00  0.00    +0.008 C 
ATOM      4  C   UNL     1      35.463 -19.859 -20.615  0.00  0.00    +0.008 C 
ATOM      5  C   UNL     1      33.569 -21.862 -19.525  0.00  0.00    +0.065 C 
ATOM      6  C   UNL     1      35.975 -21.221 -20.167  0.00  0.00    +0.065 C 
ATOM      7  C   UNL     1      35.035 -21.838 -19.156  0.00  0.00    +0.151 C 
ENDROOT
TORSDOF 0
ENDMDL
MODEL 4
REMARK VINA RESULT:      -5.1      0.747      2.042
REMARK  Name = 7967
REMARK  0 active torsions:
REMARK  status: ('A' for Active; 'I' for Inactive)
REMARK                            x       y       z     vdW  Elec       q    Type
REMARK                         _______ _______ _______ _____ _____    ______ ____
ROOT
ATOM      1  O   UNL     1      32.600 -21.983 -18.691  0.00  0.00    -0.296 OA
ATOM      2  C   UNL     1      35.546 -20.101 -20.835  0.00  0.00    +0.001 C 
ATOM      3  C   UNL     1      34.151 -19.499 -20.680  0.00  0.00    +0.008 C 
ATOM      4  C   UNL     1      35.867 -21.039 -19.672  0.00  0.00    +0.008 C 
ATOM      5  C   UNL     1      33.081 -20.576 -20.573  0.00  0.00    +0.065 C 
ATOM      6  C   UNL     1      34.835 -22.150 -19.544  0.00  0.00    +0.065 C 
ATOM      7  C   UNL     1      33.436 -21.577 -19.496  0.00  0.00    +0.151 C 
ENDROOT
TORSDOF 0
ENDMDL
MODEL 5
REMARK VINA RESULT:      -5.0      4.540      5.575
REMARK  Name = 7967
REMARK  0 active torsions:
REMARK  status: ('A' for Active; 'I' for Inactive)
REMARK                            x       y       z     vdW  Elec       q    Type
REMARK                         _______ _______ _______ _____ _____    ______ ____
ROOT
ATOM      1  O   UNL     1      34.906 -16.611 -25.938  0.00  0.00    -0.296 OA
ATOM      2  C   UNL     1      34.824 -18.674 -22.395  0.00  0.00    +0.001 C 
ATOM      3  C   UNL     1      35.017 -19.380 -23.735  0.00  0.00    +0.008 C 
ATOM      4  C   UNL     1      35.288 -17.221 -22.473  0.00  0.00    +0.008 C 
ATOM      5  C   UNL     1      34.286 -18.662 -24.862  0.00  0.00    +0.065 C 
ATOM      6  C   UNL     1      34.562 -16.455 -23.570  0.00  0.00    +0.065 C 
ATOM      7  C   UNL     1      34.652 -17.195 -24.886  0.00  0.00    +0.151 C 
ENDROOT
TORSDOF 0
ENDMDL
MODEL 6
REMARK VINA RESULT:      -5.0      1.779      3.048
REMARK  Name = 7967
REMARK  0 active torsions:
REMARK  status: ('A' for Active; 'I' for Inactive)
REMARK                            x       y       z     vdW  Elec       q    Type
REMARK                         _______ _______ _______ _____ _____    ______ ____
ROOT
ATOM      1  O   UNL     1      34.285 -19.247 -22.336  0.00  0.00    -0.296 OA
ATOM      2  C   UNL     1      34.864 -21.693 -19.097  0.00  0.00    +0.001 C 
ATOM      3  C   UNL     1      33.506 -21.572 -19.783  0.00  0.00    +0.008 C 
ATOM      4  C   UNL     1      35.996 -21.352 -20.064  0.00  0.00    +0.008 C 
ATOM      5  C   UNL     1      33.290 -20.182 -20.365  0.00  0.00    +0.065 C 
ATOM      6  C   UNL     1      35.836 -19.957 -20.650  0.00  0.00    +0.065 C 
ATOM      7  C   UNL     1      34.455 -19.783 -21.242  0.00  0.00    +0.151 C 
ENDROOT
TORSDOF 0
ENDMDL
MODEL 7
REMARK VINA RESULT:      -4.8      4.138      5.270
REMARK  Name = 7967
REMARK  0 active torsions:
REMARK  status: ('A' for Active; 'I' for Inactive)
REMARK                            x       y       z     vdW  Elec       q    Type
REMARK                         _______ _______ _______ _____ _____    ______ ____
ROOT
ATOM      1  O   UNL     1      34.124 -17.509 -25.620  0.00  0.00    -0.296 OA
ATOM      2  C   UNL     1      35.148 -17.813 -21.661  0.00  0.00    +0.001 C 
ATOM      3  C   UNL     1      34.662 -16.500 -22.270  0.00  0.00    +0.008 C 
ATOM      4  C   UNL     1      34.623 -19.009 -22.453  0.00  0.00    +0.008 C 
ATOM      5  C   UNL     1      35.068 -16.372 -23.732  0.00  0.00    +0.065 C 
ATOM      6  C   UNL     1      35.030 -18.936 -23.918  0.00  0.00    +0.065 C 
ATOM      7  C   UNL     1      34.650 -17.598 -24.511  0.00  0.00    +0.151 C 
ENDROOT
TORSDOF 0
ENDMDL
MODEL 8
REMARK VINA RESULT:      -4.8      3.342      4.406
REMARK  Name = 7967
REMARK  0 active torsions:
REMARK  status: ('A' for Active; 'I' for Inactive)
REMARK                            x       y       z     vdW  Elec       q    Type
REMARK                         _______ _______ _______ _____ _____    ______ ____
ROOT
ATOM      1  O   UNL     1      35.721 -18.264 -20.619  0.00  0.00    -0.296 OA
ATOM      2  C   UNL     1      34.533 -17.696 -24.503  0.00  0.00    +0.001 C 
ATOM      3  C   UNL     1      35.158 -16.573 -23.678  0.00  0.00    +0.008 C 
ATOM      4  C   UNL     1      34.976 -19.063 -23.986  0.00  0.00    +0.008 C 
ATOM      5  C   UNL     1      34.818 -16.702 -22.200  0.00  0.00    +0.065 C 
ATOM      6  C   UNL     1      34.630 -19.248 -22.515  0.00  0.00    +0.065 C 
ATOM      7  C   UNL     1      35.151 -18.089 -21.695  0.00  0.00    +0.151 C 
ENDROOT
TORSDOF 0
ENDMDL
MODEL 9
REMARK VINA RESULT:      -4.8      6.162      7.365
REMARK  Name = 7967
REMARK  0 active torsions:
REMARK  status: ('A' for Active; 'I' for Inactive)
REMARK                            x       y       z     vdW  Elec       q    Type
REMARK                         _______ _______ _______ _____ _____    ______ ____
ROOT
ATOM      1  O   UNL     1      27.851 -24.291 -17.273  0.00  0.00    -0.296 OA
ATOM      2  C   UNL     1      31.109 -23.731 -14.847  0.00  0.00    +0.001 C 
ATOM      3  C   UNL     1      30.318 -25.037 -14.847  0.00  0.00    +0.008 C 
ATOM      4  C   UNL     1      30.963 -23.005 -16.183  0.00  0.00    +0.008 C 
ATOM      5  C   UNL     1      28.845 -24.805 -15.152  0.00  0.00    +0.065 C 
ATOM      6  C   UNL     1      29.504 -22.727 -16.517  0.00  0.00    +0.065 C 
ATOM      7  C   UNL     1      28.684 -23.993 -16.418  0.00  0.00    +0.151 C 
ENDROOT
TORSDOF 0
ENDMDL
