MODEL 1
REMARK VINA RESULT:      -7.0      0.000      0.000
REMARK  Name = 4178
REMARK  4 active torsions:
REMARK  status: ('A' for Active; 'I' for Inactive)
REMARK    1  A    between atoms: O_1  and  C_2
REMARK    2  A    between atoms: O_1  and  C_10
REMARK    3  A    between atoms: C_10  and  C_11
REMARK    4  A    between atoms: C_11  and  N_13
REMARK                            x       y       z     vdW  Elec       q    Type
REMARK                         _______ _______ _______ _____ _____    ______ ____
ROOT
ATOM      1  O   UNL     1      34.711 -18.691 -21.685  0.00  0.00    -0.478 OA
ENDROOT
BRANCH   1   2
ATOM      2  C   UNL     1      34.939 -19.732 -20.824  0.00  0.00    +0.130 C 
ATOM      3  C   UNL     1      36.245 -20.074 -20.482  0.00  0.00    +0.012 C 
ATOM      4  C   UNL     1      33.864 -20.442 -20.299  0.00  0.00    +0.012 C 
ATOM      5  C   UNL     1      36.476 -21.134 -19.605  0.00  0.00    -0.001 C 
ATOM      6  C   UNL     1      34.096 -21.502 -19.422  0.00  0.00    -0.001 C 
ATOM      7  C   UNL     1      35.402 -21.848 -19.075  0.00  0.00    -0.000 C 
ATOM      8  C   UNL     1      37.408 -19.320 -21.038  0.00  0.00    +0.034 C 
ATOM      9  C   UNL     1      32.458 -20.088 -20.657  0.00  0.00    +0.034 C 
ENDBRANCH   1   2
BRANCH   1  10
ATOM     10  C   UNL     1      34.571 -19.019 -23.062  0.00  0.00    +0.184 C 
BRANCH  10  11
ATOM     11  C   UNL     1      35.308 -17.985 -23.915  0.00  0.00    -0.021 C 
ATOM     12  C   UNL     1      34.502 -17.590 -25.153  0.00  0.00    -0.020 C 
BRANCH  11  13
ATOM     13  N   UNL     1      35.590 -16.803 -23.101  0.00  0.00    +0.384 N 
ATOM     14  H   UNL     1      35.376 -17.003 -22.124  0.00  0.00    -0.089 HD
ATOM     15  H   UNL     1      35.015 -16.024 -23.423  0.00  0.00    -0.089 HD
ATOM     16  H   UNL     1      36.576 -16.557 -23.190  0.00  0.00    -0.089 HD
ENDBRANCH  11  13
ENDBRANCH  10  11
ENDBRANCH   1  10
TORSDOF 4
ENDMDL
MODEL 2
REMARK VINA RESULT:      -6.9      0.024      2.383
REMARK  Name = 4178
REMARK  4 active torsions:
REMARK  status: ('A' for Active; 'I' for Inactive)
REMARK    1  A    between atoms: O_1  and  C_2
REMARK    2  A    between atoms: O_1  and  C_10
REMARK    3  A    between atoms: C_10  and  C_11
REMARK    4  A    between atoms: C_11  and  N_13
REMARK                            x       y       z     vdW  Elec       q    Type
REMARK                         _______ _______ _______ _____ _____    ______ ____
ROOT
ATOM      1  O   UNL     1      34.728 -18.689 -21.666  0.00  0.00    -0.478 OA
ENDROOT
BRANCH   1   2
ATOM      2  C   UNL     1      34.945 -19.737 -20.811  0.00  0.00    +0.130 C 
ATOM      3  C   UNL     1      33.863 -20.442 -20.292  0.00  0.00    +0.012 C 
ATOM      4  C   UNL     1      36.246 -20.088 -20.464  0.00  0.00    +0.012 C 
ATOM      5  C   UNL     1      34.083 -21.507 -19.420  0.00  0.00    -0.001 C 
ATOM      6  C   UNL     1      36.467 -21.154 -19.593  0.00  0.00    -0.001 C 
ATOM      7  C   UNL     1      35.386 -21.865 -19.071  0.00  0.00    -0.000 C 
ATOM      8  C   UNL     1      32.461 -20.076 -20.655  0.00  0.00    +0.034 C 
ATOM      9  C   UNL     1      37.417 -19.340 -21.012  0.00  0.00    +0.034 C 
ENDBRANCH   1   2
BRANCH   1  10
ATOM     10  C   UNL     1      34.560 -19.010 -23.042  0.00  0.00    +0.184 C 
BRANCH  10  11
ATOM     11  C   UNL     1      35.316 -17.997 -23.902  0.00  0.00    -0.021 C 
ATOM     12  C   UNL     1      34.533 -17.626 -25.163  0.00  0.00    -0.020 C 
BRANCH  11  13
ATOM     13  N   UNL     1      35.587 -16.798 -23.109  0.00  0.00    +0.384 N 
ATOM     14  H   UNL     1      34.924 -16.065 -23.363  0.00  0.00    -0.089 HD
ATOM     15  H   UNL     1      36.537 -16.476 -23.294  0.00  0.00    -0.089 HD
ATOM     16  H   UNL     1      35.489 -17.017 -22.118  0.00  0.00    -0.089 HD
ENDBRANCH  11  13
ENDBRANCH  10  11
ENDBRANCH   1  10
TORSDOF 4
ENDMDL
MODEL 3
REMARK VINA RESULT:      -6.8      3.309      4.661
REMARK  Name = 4178
REMARK  4 active torsions:
REMARK  status: ('A' for Active; 'I' for Inactive)
REMARK    1  A    between atoms: O_1  and  C_2
REMARK    2  A    between atoms: O_1  and  C_10
REMARK    3  A    between atoms: C_10  and  C_11
REMARK    4  A    between atoms: C_11  and  N_13
REMARK                            x       y       z     vdW  Elec       q    Type
REMARK                         _______ _______ _______ _____ _____    ______ ____
ROOT
ATOM      1  O   UNL     1      34.695 -15.191 -23.380  0.00  0.00    -0.478 OA
ENDROOT
BRANCH   1   2
ATOM      2  C   UNL     1      34.727 -16.496 -22.964  0.00  0.00    +0.130 C 
ATOM      3  C   UNL     1      34.776 -17.521 -23.904  0.00  0.00    +0.012 C 
ATOM      4  C   UNL     1      34.709 -16.788 -21.604  0.00  0.00    +0.012 C 
ATOM      5  C   UNL     1      34.808 -18.849 -23.481  0.00  0.00    -0.001 C 
ATOM      6  C   UNL     1      34.742 -18.116 -21.180  0.00  0.00    -0.001 C 
ATOM      7  C   UNL     1      34.791 -19.147 -22.118  0.00  0.00    -0.000 C 
ATOM      8  C   UNL     1      34.796 -17.222 -25.368  0.00  0.00    +0.034 C 
ATOM      9  C   UNL     1      34.656 -15.699 -20.583  0.00  0.00    +0.034 C 
ENDBRANCH   1   2
BRANCH   1  10
ATOM     10  C   UNL     1      33.417 -14.649 -23.690  0.00  0.00    +0.184 C 
BRANCH  10  11
ATOM     11  C   UNL     1      33.300 -13.241 -23.104  0.00  0.00    -0.021 C 
ATOM     12  C   UNL     1      33.673 -12.167 -24.126  0.00  0.00    -0.020 C 
BRANCH  11  13
ATOM     13  N   UNL     1      31.932 -13.030 -22.631  0.00  0.00    +0.384 N 
ATOM     14  H   UNL     1      31.503 -12.270 -23.159  0.00  0.00    -0.089 HD
ATOM     15  H   UNL     1      31.950 -12.787 -21.640  0.00  0.00    -0.089 HD
ATOM     16  H   UNL     1      31.391 -13.883 -22.762  0.00  0.00    -0.089 HD
ENDBRANCH  11  13
ENDBRANCH  10  11
ENDBRANCH   1  10
TORSDOF 4
ENDMDL
MODEL 4
REMARK VINA RESULT:      -6.8      3.310      4.693
REMARK  Name = 4178
REMARK  4 active torsions:
REMARK  status: ('A' for Active; 'I' for Inactive)
REMARK    1  A    between atoms: O_1  and  C_2
REMARK    2  A    between atoms: O_1  and  C_10
REMARK    3  A    between atoms: C_10  and  C_11
REMARK    4  A    between atoms: C_11  and  N_13
REMARK                            x       y       z     vdW  Elec       q    Type
REMARK                         _______ _______ _______ _____ _____    ______ ____
ROOT
ATOM      1  O   UNL     1      34.705 -15.189 -23.382  0.00  0.00    -0.478 OA
ENDROOT
BRANCH   1   2
ATOM      2  C   UNL     1      34.733 -16.493 -22.962  0.00  0.00    +0.130 C 
ATOM      3  C   UNL     1      34.712 -16.782 -21.601  0.00  0.00    +0.012 C 
ATOM      4  C   UNL     1      34.783 -17.520 -23.900  0.00  0.00    +0.012 C 
ATOM      5  C   UNL     1      34.742 -18.109 -21.173  0.00  0.00    -0.001 C 
ATOM      6  C   UNL     1      34.811 -18.848 -23.472  0.00  0.00    -0.001 C 
ATOM      7  C   UNL     1      34.791 -19.143 -22.110  0.00  0.00    -0.000 C 
ATOM      8  C   UNL     1      34.658 -15.690 -20.584  0.00  0.00    +0.034 C 
ATOM      9  C   UNL     1      34.806 -17.226 -25.364  0.00  0.00    +0.034 C 
ENDBRANCH   1   2
BRANCH   1  10
ATOM     10  C   UNL     1      33.430 -14.647 -23.701  0.00  0.00    +0.184 C 
BRANCH  10  11
ATOM     11  C   UNL     1      33.305 -13.244 -23.105  0.00  0.00    -0.021 C 
ATOM     12  C   UNL     1      33.679 -12.160 -24.118  0.00  0.00    -0.020 C 
BRANCH  11  13
ATOM     13  N   UNL     1      31.934 -13.040 -22.636  0.00  0.00    +0.384 N 
ATOM     14  H   UNL     1      31.614 -12.112 -22.912  0.00  0.00    -0.089 HD
ATOM     15  H   UNL     1      31.908 -13.120 -21.619  0.00  0.00    -0.089 HD
ATOM     16  H   UNL     1      31.325 -13.746 -23.048  0.00  0.00    -0.089 HD
ENDBRANCH  11  13
ENDBRANCH  10  11
ENDBRANCH   1  10
TORSDOF 4
ENDMDL
MODEL 5
REMARK VINA RESULT:      -6.7      2.475      5.186
REMARK  Name = 4178
REMARK  4 active torsions:
REMARK  status: ('A' for Active; 'I' for Inactive)
REMARK    1  A    between atoms: O_1  and  C_2
REMARK    2  A    between atoms: O_1  and  C_10
REMARK    3  A    between atoms: C_10  and  C_11
REMARK    4  A    between atoms: C_11  and  N_13
REMARK                            x       y       z     vdW  Elec       q    Type
REMARK                         _______ _______ _______ _____ _____    ______ ____
ROOT
ATOM      1  O   UNL     1      34.840 -18.579 -21.462  0.00  0.00    -0.478 OA
ENDROOT
BRANCH   1   2
ATOM      2  C   UNL     1      34.766 -17.644 -22.460  0.00  0.00    +0.130 C 
ATOM      3  C   UNL     1      34.668 -16.293 -22.137  0.00  0.00    +0.012 C 
ATOM      4  C   UNL     1      34.787 -18.050 -23.790  0.00  0.00    +0.012 C 
ATOM      5  C   UNL     1      34.592 -15.341 -23.153  0.00  0.00    -0.001 C 
ATOM      6  C   UNL     1      34.712 -17.098 -24.807  0.00  0.00    -0.001 C 
ATOM      7  C   UNL     1      34.614 -15.744 -24.489  0.00  0.00    -0.000 C 
ATOM      8  C   UNL     1      34.645 -15.843 -20.713  0.00  0.00    +0.034 C 
ATOM      9  C   UNL     1      34.891 -19.496 -24.153  0.00  0.00    +0.034 C 
ENDBRANCH   1   2
BRANCH   1  10
ATOM     10  C   UNL     1      33.607 -19.065 -20.947  0.00  0.00    +0.184 C 
BRANCH  10  11
ATOM     11  C   UNL     1      33.759 -20.532 -20.543  0.00  0.00    -0.021 C 
ATOM     12  C   UNL     1      35.165 -20.835 -20.022  0.00  0.00    -0.020 C 
BRANCH  11  13
ATOM     13  N   UNL     1      32.765 -20.856 -19.521  0.00  0.00    +0.384 N 
ATOM     14  H   UNL     1      32.195 -21.641 -19.837  0.00  0.00    -0.089 HD
ATOM     15  H   UNL     1      32.167 -20.045 -19.360  0.00  0.00    -0.089 HD
ATOM     16  H   UNL     1      33.238 -21.107 -18.654  0.00  0.00    -0.089 HD
ENDBRANCH  11  13
ENDBRANCH  10  11
ENDBRANCH   1  10
TORSDOF 4
ENDMDL
MODEL 6
REMARK VINA RESULT:      -6.6      2.362      5.204
REMARK  Name = 4178
REMARK  4 active torsions:
REMARK  status: ('A' for Active; 'I' for Inactive)
REMARK    1  A    between atoms: O_1  and  C_2
REMARK    2  A    between atoms: O_1  and  C_10
REMARK    3  A    between atoms: C_10  and  C_11
REMARK    4  A    between atoms: C_11  and  N_13
REMARK                            x       y       z     vdW  Elec       q    Type
REMARK                         _______ _______ _______ _____ _____    ______ ____
ROOT
ATOM      1  O   UNL     1      34.870 -18.921 -21.776  0.00  0.00    -0.478 OA
ENDROOT
BRANCH   1   2
ATOM      2  C   UNL     1      34.783 -17.925 -22.713  0.00  0.00    +0.130 C 
ATOM      3  C   UNL     1      34.743 -18.250 -24.066  0.00  0.00    +0.012 C 
ATOM      4  C   UNL     1      34.739 -16.595 -22.306  0.00  0.00    +0.012 C 
ATOM      5  C   UNL     1      34.656 -17.236 -25.019  0.00  0.00    -0.001 C 
ATOM      6  C   UNL     1      34.651 -15.581 -23.260  0.00  0.00    -0.001 C 
ATOM      7  C   UNL     1      34.610 -15.901 -24.616  0.00  0.00    -0.000 C 
ATOM      8  C   UNL     1      34.790 -19.673 -24.516  0.00  0.00    +0.034 C 
ATOM      9  C   UNL     1      34.782 -16.231 -20.858  0.00  0.00    +0.034 C 
ENDBRANCH   1   2
BRANCH   1  10
ATOM     10  C   UNL     1      33.689 -19.209 -21.037  0.00  0.00    +0.184 C 
BRANCH  10  11
ATOM     11  C   UNL     1      33.754 -20.639 -20.500  0.00  0.00    -0.021 C 
ATOM     12  C   UNL     1      35.116 -20.952 -19.879  0.00  0.00    -0.020 C 
BRANCH  11  13
ATOM     13  N   UNL     1      32.695 -20.831 -19.510  0.00  0.00    +0.384 N 
ATOM     14  H   UNL     1      31.806 -20.983 -19.988  0.00  0.00    -0.089 HD
ATOM     15  H   UNL     1      32.626 -20.000 -18.922  0.00  0.00    -0.089 HD
ATOM     16  H   UNL     1      32.913 -21.640 -18.931  0.00  0.00    -0.089 HD
ENDBRANCH  11  13
ENDBRANCH  10  11
ENDBRANCH   1  10
TORSDOF 4
ENDMDL
MODEL 7
REMARK VINA RESULT:      -6.6      2.820      5.667
REMARK  Name = 4178
REMARK  4 active torsions:
REMARK  status: ('A' for Active; 'I' for Inactive)
REMARK    1  A    between atoms: O_1  and  C_2
REMARK    2  A    between atoms: O_1  and  C_10
REMARK    3  A    between atoms: C_10  and  C_11
REMARK    4  A    between atoms: C_11  and  N_13
REMARK                            x       y       z     vdW  Elec       q    Type
REMARK                         _______ _______ _______ _____ _____    ______ ____
ROOT
ATOM      1  O   UNL     1      35.364 -17.302 -22.515  0.00  0.00    -0.478 OA
ENDROOT
BRANCH   1   2
ATOM      2  C   UNL     1      34.624 -16.218 -22.908  0.00  0.00    +0.130 C 
ATOM      3  C   UNL     1      34.217 -15.280 -21.963  0.00  0.00    +0.012 C 
ATOM      4  C   UNL     1      34.282 -16.063 -24.247  0.00  0.00    +0.012 C 
ATOM      5  C   UNL     1      33.464 -14.176 -22.363  0.00  0.00    -0.001 C 
ATOM      6  C   UNL     1      33.529 -14.959 -24.647  0.00  0.00    -0.001 C 
ATOM      7  C   UNL     1      33.120 -14.016 -23.705  0.00  0.00    -0.000 C 
ATOM      8  C   UNL     1      34.577 -15.433 -20.522  0.00  0.00    +0.034 C 
ATOM      9  C   UNL     1      34.711 -17.062 -25.272  0.00  0.00    +0.034 C 
ENDBRANCH   1   2
BRANCH   1  10
ATOM     10  C   UNL     1      34.683 -18.548 -22.439  0.00  0.00    +0.184 C 
BRANCH  10  11
ATOM     11  C   UNL     1      34.551 -18.974 -20.976  0.00  0.00    -0.021 C 
ATOM     12  C   UNL     1      33.436 -20.002 -20.781  0.00  0.00    -0.020 C 
BRANCH  11  13
ATOM     13  N   UNL     1      35.826 -19.526 -20.519  0.00  0.00    +0.384 N 
ATOM     14  H   UNL     1      36.594 -18.998 -20.935  0.00  0.00    -0.089 HD
ATOM     15  H   UNL     1      35.894 -20.504 -20.800  0.00  0.00    -0.089 HD
ATOM     16  H   UNL     1      35.881 -19.460 -19.503  0.00  0.00    -0.089 HD
ENDBRANCH  11  13
ENDBRANCH  10  11
ENDBRANCH   1  10
TORSDOF 4
ENDMDL
MODEL 8
REMARK VINA RESULT:      -6.6      3.627      6.178
REMARK  Name = 4178
REMARK  4 active torsions:
REMARK  status: ('A' for Active; 'I' for Inactive)
REMARK    1  A    between atoms: O_1  and  C_2
REMARK    2  A    between atoms: O_1  and  C_10
REMARK    3  A    between atoms: C_10  and  C_11
REMARK    4  A    between atoms: C_11  and  N_13
REMARK                            x       y       z     vdW  Elec       q    Type
REMARK                         _______ _______ _______ _____ _____    ______ ____
ROOT
ATOM      1  O   UNL     1      35.945 -22.366 -18.473  0.00  0.00    -0.478 OA
ENDROOT
BRANCH   1   2
ATOM      2  C   UNL     1      35.057 -21.600 -19.181  0.00  0.00    +0.130 C 
ATOM      3  C   UNL     1      33.689 -21.793 -19.012  0.00  0.00    +0.012 C 
ATOM      4  C   UNL     1      35.529 -20.635 -20.066  0.00  0.00    +0.012 C 
ATOM      5  C   UNL     1      32.785 -21.014 -19.734  0.00  0.00    -0.001 C 
ATOM      6  C   UNL     1      34.625 -19.855 -20.787  0.00  0.00    -0.001 C 
ATOM      7  C   UNL     1      33.253 -20.044 -20.621  0.00  0.00    -0.000 C 
ATOM      8  C   UNL     1      33.169 -22.824 -18.066  0.00  0.00    +0.034 C 
ATOM      9  C   UNL     1      36.994 -20.417 -20.258  0.00  0.00    +0.034 C 
ENDBRANCH   1   2
BRANCH   1  10
ATOM     10  C   UNL     1      36.393 -21.842 -17.229  0.00  0.00    +0.184 C 
BRANCH  10  11
ATOM     11  C   UNL     1      36.287 -22.920 -16.149  0.00  0.00    -0.021 C 
ATOM     12  C   UNL     1      37.640 -23.201 -15.492  0.00  0.00    -0.020 C 
BRANCH  11  13
ATOM     13  N   UNL     1      35.318 -22.496 -15.139  0.00  0.00    +0.384 N 
ATOM     14  H   UNL     1      34.686 -23.269 -14.928  0.00  0.00    -0.089 HD
ATOM     15  H   UNL     1      34.780 -21.705 -15.495  0.00  0.00    -0.089 HD
ATOM     16  H   UNL     1      35.810 -22.218 -14.290  0.00  0.00    -0.089 HD
ENDBRANCH  11  13
ENDBRANCH  10  11
ENDBRANCH   1  10
TORSDOF 4
ENDMDL
MODEL 9
REMARK VINA RESULT:      -6.6      3.642      5.787
REMARK  Name = 4178
REMARK  4 active torsions:
REMARK  status: ('A' for Active; 'I' for Inactive)
REMARK    1  A    between atoms: O_1  and  C_2
REMARK    2  A    between atoms: O_1  and  C_10
REMARK    3  A    between atoms: C_10  and  C_11
REMARK    4  A    between atoms: C_11  and  N_13
REMARK                            x       y       z     vdW  Elec       q    Type
REMARK                         _______ _______ _______ _____ _____    ______ ____
ROOT
ATOM      1  O   UNL     1      35.917 -22.394 -18.451  0.00  0.00    -0.478 OA
ENDROOT
BRANCH   1   2
ATOM      2  C   UNL     1      35.033 -21.630 -19.166  0.00  0.00    +0.130 C 
ATOM      3  C   UNL     1      35.510 -20.669 -20.053  0.00  0.00    +0.012 C 
ATOM      4  C   UNL     1      33.665 -21.817 -18.999  0.00  0.00    +0.012 C 
ATOM      5  C   UNL     1      34.610 -19.890 -20.780  0.00  0.00    -0.001 C 
ATOM      6  C   UNL     1      32.765 -21.038 -19.726  0.00  0.00    -0.001 C 
ATOM      7  C   UNL     1      33.237 -20.074 -20.617  0.00  0.00    -0.000 C 
ATOM      8  C   UNL     1      36.976 -20.457 -20.243  0.00  0.00    +0.034 C 
ATOM      9  C   UNL     1      33.139 -22.843 -18.050  0.00  0.00    +0.034 C 
ENDBRANCH   1   2
BRANCH   1  10
ATOM     10  C   UNL     1      36.369 -21.862 -17.213  0.00  0.00    +0.184 C 
BRANCH  10  11
ATOM     11  C   UNL     1      36.275 -22.934 -16.127  0.00  0.00    -0.021 C 
ATOM     12  C   UNL     1      37.635 -23.216 -15.486  0.00  0.00    -0.020 C 
BRANCH  11  13
ATOM     13  N   UNL     1      35.320 -22.503 -15.106  0.00  0.00    +0.384 N 
ATOM     14  H   UNL     1      35.558 -22.936 -14.213  0.00  0.00    -0.089 HD
ATOM     15  H   UNL     1      34.379 -22.786 -15.381  0.00  0.00    -0.089 HD
ATOM     16  H   UNL     1      35.356 -21.489 -15.013  0.00  0.00    -0.089 HD
ENDBRANCH  11  13
ENDBRANCH  10  11
ENDBRANCH   1  10
TORSDOF 4
ENDMDL
