MODEL 1
REMARK VINA RESULT:      -8.3      0.000      0.000
REMARK  Name = 6918483
REMARK  1 active torsions:
REMARK  status: ('A' for Active; 'I' for Inactive)
REMARK    1  A    between atoms: C_16  and  O_20
REMARK                            x       y       z     vdW  Elec       q    Type
REMARK                         _______ _______ _______ _____ _____    ______ ____
ROOT
ATOM      1  O   UNL     1      36.577 -25.894 -15.053  0.00  0.00    -0.218 OA
ATOM      2  O   UNL     1      38.538 -23.847 -14.414  0.00  0.00    -0.306 OA
ATOM      3  O   UNL     1      37.069 -23.162 -16.089  0.00  0.00    -0.304 OA
ATOM      4  O   UNL     1      37.904 -25.758 -15.645  0.00  0.00    -0.197 OA
ATOM      5  C   UNL     1      36.223 -24.679 -14.340  0.00  0.00    +0.178 C 
ATOM      6  C   UNL     1      36.280 -25.088 -12.833  0.00  0.00    +0.033 C 
ATOM      7  C   UNL     1      34.771 -24.351 -14.783  0.00  0.00    +0.038 C 
ATOM      8  C   UNL     1      35.558 -24.071 -11.910  0.00  0.00    +0.003 C 
ATOM      9  C   UNL     1      37.175 -23.510 -14.704  0.00  0.00    +0.268 C 
ATOM     10  C   UNL     1      34.092 -23.347 -13.837  0.00  0.00    +0.003 C 
ATOM     11  C   UNL     1      34.761 -23.883 -16.263  0.00  0.00    +0.059 C 
ATOM     12  C   UNL     1      37.712 -25.371 -12.320  0.00  0.00    +0.008 C 
ATOM     13  C   UNL     1      34.126 -23.823 -12.393  0.00  0.00    +0.000 C 
ATOM     14  C   UNL     1      38.783 -25.237 -14.645  0.00  0.00    +0.221 C 
ATOM     15  C   UNL     1      38.672 -26.019 -13.323  0.00  0.00    +0.059 C 
ATOM     16  C   UNL     1      35.766 -22.743 -16.483  0.00  0.00    +0.234 C 
ATOM     17  C   UNL     1      35.516 -24.525 -10.446  0.00  0.00    +0.000 C 
ATOM     18  C   UNL     1      33.363 -23.516 -16.769  0.00  0.00    +0.005 C 
ATOM     19  C   UNL     1      40.196 -25.360 -15.214  0.00  0.00    +0.064 C 
ENDROOT
BRANCH  16  20
ATOM     20  O   UNL     1      35.780 -22.401 -17.868  0.00  0.00    -0.360 OA
ATOM     21  H   UNL     1      35.643 -23.200 -18.399  0.00  0.00    +0.213 HD
ENDBRANCH  16  20
TORSDOF 1
ENDMDL
MODEL 2
REMARK VINA RESULT:      -8.1      2.240      5.470
REMARK  Name = 6918483
REMARK  1 active torsions:
REMARK  status: ('A' for Active; 'I' for Inactive)
REMARK    1  A    between atoms: C_16  and  O_20
REMARK                            x       y       z     vdW  Elec       q    Type
REMARK                         _______ _______ _______ _____ _____    ______ ____
ROOT
ATOM      1  O   UNL     1      34.182 -25.368 -15.037  0.00  0.00    -0.218 OA
ATOM      2  O   UNL     1      33.052 -22.872 -14.066  0.00  0.00    -0.306 OA
ATOM      3  O   UNL     1      34.306 -23.963 -12.431  0.00  0.00    -0.304 OA
ATOM      4  O   UNL     1      32.862 -25.195 -14.438  0.00  0.00    -0.197 OA
ATOM      5  C   UNL     1      35.000 -24.194 -14.785  0.00  0.00    +0.178 C 
ATOM      6  C   UNL     1      35.118 -23.502 -16.181  0.00  0.00    +0.033 C 
ATOM      7  C   UNL     1      36.372 -24.745 -14.308  0.00  0.00    +0.038 C 
ATOM      8  C   UNL     1      36.266 -22.459 -16.235  0.00  0.00    +0.003 C 
ATOM      9  C   UNL     1      34.373 -23.289 -13.693  0.00  0.00    +0.268 C 
ATOM     10  C   UNL     1      37.479 -23.681 -14.386  0.00  0.00    +0.003 C 
ATOM     11  C   UNL     1      36.231 -25.362 -12.890  0.00  0.00    +0.059 C 
ATOM     12  C   UNL     1      33.792 -22.883 -16.682  0.00  0.00    +0.008 C 
ATOM     13  C   UNL     1      37.588 -23.083 -15.780  0.00  0.00    +0.000 C 
ATOM     14  C   UNL     1      32.378 -23.898 -14.800  0.00  0.00    +0.221 C 
ATOM     15  C   UNL     1      32.512 -23.640 -16.312  0.00  0.00    +0.059 C 
ATOM     16  C   UNL     1      35.573 -24.367 -11.923  0.00  0.00    +0.234 C 
ATOM     17  C   UNL     1      36.455 -21.860 -17.634  0.00  0.00    +0.000 C 
ATOM     18  C   UNL     1      37.551 -25.907 -12.338  0.00  0.00    +0.005 C 
ATOM     19  C   UNL     1      30.908 -23.861 -14.385  0.00  0.00    +0.064 C 
ENDROOT
BRANCH  16  20
ATOM     20  O   UNL     1      35.393 -25.005 -10.659  0.00  0.00    -0.360 OA
ATOM     21  H   UNL     1      35.178 -25.940 -10.797  0.00  0.00    +0.213 HD
ENDBRANCH  16  20
TORSDOF 1
ENDMDL
MODEL 3
REMARK VINA RESULT:      -7.9      1.666      3.074
REMARK  Name = 6918483
REMARK  1 active torsions:
REMARK  status: ('A' for Active; 'I' for Inactive)
REMARK    1  A    between atoms: C_16  and  O_20
REMARK                            x       y       z     vdW  Elec       q    Type
REMARK                         _______ _______ _______ _____ _____    ______ ____
ROOT
ATOM      1  O   UNL     1      35.156 -24.981 -15.975  0.00  0.00    -0.218 OA
ATOM      2  O   UNL     1      36.059 -22.786 -14.298  0.00  0.00    -0.306 OA
ATOM      3  O   UNL     1      36.137 -22.248 -16.565  0.00  0.00    -0.304 OA
ATOM      4  O   UNL     1      36.517 -24.767 -15.495  0.00  0.00    -0.197 OA
ATOM      5  C   UNL     1      34.366 -23.776 -15.786  0.00  0.00    +0.178 C 
ATOM      6  C   UNL     1      33.378 -24.141 -14.633  0.00  0.00    +0.033 C 
ATOM      7  C   UNL     1      33.616 -23.562 -17.129  0.00  0.00    +0.038 C 
ATOM      8  C   UNL     1      32.184 -23.154 -14.533  0.00  0.00    +0.003 C 
ATOM      9  C   UNL     1      35.266 -22.553 -15.470  0.00  0.00    +0.268 C 
ATOM     10  C   UNL     1      32.439 -22.584 -16.982  0.00  0.00    +0.003 C 
ATOM     11  C   UNL     1      34.618 -23.133 -18.234  0.00  0.00    +0.059 C 
ATOM     12  C   UNL     1      34.064 -24.311 -13.256  0.00  0.00    +0.008 C 
ATOM     13  C   UNL     1      31.479 -23.020 -15.886  0.00  0.00    +0.000 C 
ATOM     14  C   UNL     1      36.442 -24.161 -14.203  0.00  0.00    +0.221 C 
ATOM     15  C   UNL     1      35.472 -24.915 -13.274  0.00  0.00    +0.059 C 
ATOM     16  C   UNL     1      35.457 -21.932 -17.775  0.00  0.00    +0.234 C 
ATOM     17  C   UNL     1      31.156 -23.574 -13.476  0.00  0.00    +0.000 C 
ATOM     18  C   UNL     1      33.949 -22.878 -19.588  0.00  0.00    +0.005 C 
ATOM     19  C   UNL     1      37.858 -24.199 -13.631  0.00  0.00    +0.064 C 
ENDROOT
BRANCH  16  20
ATOM     20  O   UNL     1      36.415 -21.625 -18.788  0.00  0.00    -0.360 OA
ATOM     21  H   UNL     1      36.601 -20.674 -18.779  0.00  0.00    +0.213 HD
ENDBRANCH  16  20
TORSDOF 1
ENDMDL
MODEL 4
REMARK VINA RESULT:      -7.9      2.140      4.606
REMARK  Name = 6918483
REMARK  1 active torsions:
REMARK  status: ('A' for Active; 'I' for Inactive)
REMARK    1  A    between atoms: C_16  and  O_20
REMARK                            x       y       z     vdW  Elec       q    Type
REMARK                         _______ _______ _______ _____ _____    ______ ____
ROOT
ATOM      1  O   UNL     1      35.118 -22.231 -14.567  0.00  0.00    -0.218 OA
ATOM      2  O   UNL     1      36.233 -24.780 -15.405  0.00  0.00    -0.306 OA
ATOM      3  O   UNL     1      34.173 -25.030 -14.345  0.00  0.00    -0.304 OA
ATOM      4  O   UNL     1      36.035 -23.064 -13.797  0.00  0.00    -0.197 OA
ATOM      5  C   UNL     1      34.564 -22.991 -15.674  0.00  0.00    +0.178 C 
ATOM      6  C   UNL     1      35.238 -22.373 -16.940  0.00  0.00    +0.033 C 
ATOM      7  C   UNL     1      33.038 -22.703 -15.647  0.00  0.00    +0.038 C 
ATOM      8  C   UNL     1      34.505 -22.753 -18.254  0.00  0.00    +0.003 C 
ATOM      9  C   UNL     1      34.829 -24.510 -15.507  0.00  0.00    +0.268 C 
ATOM     10  C   UNL     1      32.355 -23.088 -16.970  0.00  0.00    +0.003 C 
ATOM     11  C   UNL     1      32.390 -23.389 -14.415  0.00  0.00    +0.059 C 
ATOM     12  C   UNL     1      36.751 -22.677 -17.050  0.00  0.00    +0.008 C 
ATOM     13  C   UNL     1      33.015 -22.413 -18.162  0.00  0.00    +0.000 C 
ATOM     14  C   UNL     1      36.910 -23.725 -14.715  0.00  0.00    +0.221 C 
ATOM     15  C   UNL     1      37.523 -22.741 -15.728  0.00  0.00    +0.059 C 
ATOM     16  C   UNL     1      32.757 -24.879 -14.363  0.00  0.00    +0.234 C 
ATOM     17  C   UNL     1      35.099 -22.059 -19.486  0.00  0.00    +0.000 C 
ATOM     18  C   UNL     1      30.876 -23.172 -14.331  0.00  0.00    +0.005 C 
ATOM     19  C   UNL     1      38.008 -24.368 -13.870  0.00  0.00    +0.064 C 
ENDROOT
BRANCH  16  20
ATOM     20  O   UNL     1      32.207 -25.449 -13.176  0.00  0.00    -0.360 OA
ATOM     21  H   UNL     1      31.263 -25.236 -13.123  0.00  0.00    +0.213 HD
ENDBRANCH  16  20
TORSDOF 1
ENDMDL
MODEL 5
REMARK VINA RESULT:      -7.6     11.981     14.680
REMARK  Name = 6918483
REMARK  1 active torsions:
REMARK  status: ('A' for Active; 'I' for Inactive)
REMARK    1  A    between atoms: C_16  and  O_20
REMARK                            x       y       z     vdW  Elec       q    Type
REMARK                         _______ _______ _______ _____ _____    ______ ____
ROOT
ATOM      1  O   UNL     1      31.730 -14.096 -24.110  0.00  0.00    -0.218 OA
ATOM      2  O   UNL     1      34.341 -13.158 -24.972  0.00  0.00    -0.306 OA
ATOM      3  O   UNL     1      33.156 -11.516 -23.819  0.00  0.00    -0.304 OA
ATOM      4  O   UNL     1      32.045 -13.490 -25.400  0.00  0.00    -0.197 OA
ATOM      5  C   UNL     1      32.818 -13.872 -23.175  0.00  0.00    +0.178 C 
ATOM      6  C   UNL     1      33.472 -15.279 -23.001  0.00  0.00    +0.033 C 
ATOM      7  C   UNL     1      32.139 -13.396 -21.861  0.00  0.00    +0.038 C 
ATOM      8  C   UNL     1      34.393 -15.361 -21.755  0.00  0.00    +0.003 C 
ATOM      9  C   UNL     1      33.799 -12.790 -23.697  0.00  0.00    +0.268 C 
ATOM     10  C   UNL     1      33.084 -13.501 -20.653  0.00  0.00    +0.003 C 
ATOM     11  C   UNL     1      31.562 -11.968 -22.049  0.00  0.00    +0.059 C 
ATOM     12  C   UNL     1      34.214 -15.780 -24.263  0.00  0.00    +0.008 C 
ATOM     13  C   UNL     1      33.646 -14.906 -20.499  0.00  0.00    +0.000 C 
ATOM     14  C   UNL     1      33.377 -13.869 -25.754  0.00  0.00    +0.221 C 
ATOM     15  C   UNL     1      33.597 -15.387 -25.609  0.00  0.00    +0.059 C 
ATOM     16  C   UNL     1      32.634 -11.012 -22.594  0.00  0.00    +0.234 C 
ATOM     17  C   UNL     1      34.948 -16.771 -21.520  0.00  0.00    +0.000 C 
ATOM     18  C   UNL     1      30.895 -11.417 -20.786  0.00  0.00    +0.005 C 
ATOM     19  C   UNL     1      33.569 -13.443 -27.208  0.00  0.00    +0.064 C 
ENDROOT
BRANCH  16  20
ATOM     20  O   UNL     1      32.038  -9.736 -22.825  0.00  0.00    -0.360 OA
ATOM     21  H   UNL     1      32.645  -9.186 -23.345  0.00  0.00    +0.213 HD
ENDBRANCH  16  20
TORSDOF 1
ENDMDL
MODEL 6
REMARK VINA RESULT:      -7.4     17.021     19.992
REMARK  Name = 6918483
REMARK  1 active torsions:
REMARK  status: ('A' for Active; 'I' for Inactive)
REMARK    1  A    between atoms: C_16  and  O_20
REMARK                            x       y       z     vdW  Elec       q    Type
REMARK                         _______ _______ _______ _____ _____    ______ ____
ROOT
ATOM      1  O   UNL     1      30.748  -7.415 -23.642  0.00  0.00    -0.218 OA
ATOM      2  O   UNL     1      32.076  -5.649 -21.755  0.00  0.00    -0.306 OA
ATOM      3  O   UNL     1      31.834  -7.809 -20.914  0.00  0.00    -0.304 OA
ATOM      4  O   UNL     1      30.095  -6.558 -22.658  0.00  0.00    -0.197 OA
ATOM      5  C   UNL     1      32.165  -7.530 -23.341  0.00  0.00    +0.178 C 
ATOM      6  C   UNL     1      32.865  -6.712 -24.472  0.00  0.00    +0.033 C 
ATOM      7  C   UNL     1      32.487  -9.045 -23.453  0.00  0.00    +0.038 C 
ATOM      8  C   UNL     1      34.382  -7.024 -24.584  0.00  0.00    +0.003 C 
ATOM      9  C   UNL     1      32.483  -7.015 -21.913  0.00  0.00    +0.268 C 
ATOM     10  C   UNL     1      33.998  -9.306 -23.568  0.00  0.00    +0.003 C 
ATOM     11  C   UNL     1      31.833  -9.816 -22.275  0.00  0.00    +0.059 C 
ATOM     12  C   UNL     1      32.626  -5.187 -24.377  0.00  0.00    +0.008 C 
ATOM     13  C   UNL     1      34.616  -8.530 -24.721  0.00  0.00    +0.000 C 
ATOM     14  C   UNL     1      30.887  -5.378 -22.503  0.00  0.00    +0.221 C 
ATOM     15  C   UNL     1      31.250  -4.751 -23.861  0.00  0.00    +0.059 C 
ATOM     16  C   UNL     1      32.214  -9.182 -20.929  0.00  0.00    +0.234 C 
ATOM     17  C   UNL     1      35.048  -6.307 -25.764  0.00  0.00    +0.000 C 
ATOM     18  C   UNL     1      32.127 -11.318 -22.301  0.00  0.00    +0.005 C 
ATOM     19  C   UNL     1      30.046  -4.405 -21.679  0.00  0.00    +0.064 C 
ENDROOT
BRANCH  16  20
ATOM     20  O   UNL     1      31.528  -9.872 -19.884  0.00  0.00    -0.360 OA
ATOM     21  H   UNL     1      32.112  -9.955 -19.115  0.00  0.00    +0.213 HD
ENDBRANCH  16  20
TORSDOF 1
ENDMDL
MODEL 7
REMARK VINA RESULT:      -7.2     15.624     18.555
REMARK  Name = 6918483
REMARK  1 active torsions:
REMARK  status: ('A' for Active; 'I' for Inactive)
REMARK    1  A    between atoms: C_16  and  O_20
REMARK                            x       y       z     vdW  Elec       q    Type
REMARK                         _______ _______ _______ _____ _____    ______ ____
ROOT
ATOM      1  O   UNL     1      31.141  -8.361 -23.434  0.00  0.00    -0.218 OA
ATOM      2  O   UNL     1      33.201  -6.935 -21.962  0.00  0.00    -0.306 OA
ATOM      3  O   UNL     1      32.101  -8.504 -20.634  0.00  0.00    -0.304 OA
ATOM      4  O   UNL     1      30.974  -7.095 -22.727  0.00  0.00    -0.197 OA
ATOM      5  C   UNL     1      32.385  -8.996 -23.033  0.00  0.00    +0.178 C 
ATOM      6  C   UNL     1      33.305  -8.863 -24.288  0.00  0.00    +0.033 C 
ATOM      7  C   UNL     1      32.018 -10.479 -22.754  0.00  0.00    +0.038 C 
ATOM      8  C   UNL     1      34.532  -9.812 -24.234  0.00  0.00    +0.003 C 
ATOM      9  C   UNL     1      32.972  -8.336 -21.759  0.00  0.00    +0.268 C 
ATOM     10  C   UNL     1      33.261 -11.383 -22.716  0.00  0.00    +0.003 C 
ATOM     11  C   UNL     1      31.163 -10.580 -21.463  0.00  0.00    +0.059 C 
ATOM     12  C   UNL     1      33.750  -7.410 -24.582  0.00  0.00    +0.008 C 
ATOM     13  C   UNL     1      34.088 -11.256 -23.986  0.00  0.00    +0.000 C 
ATOM     14  C   UNL     1      32.204  -6.372 -22.820  0.00  0.00    +0.221 C 
ATOM     15  C   UNL     1      32.726  -6.315 -24.267  0.00  0.00    +0.059 C 
ATOM     16  C   UNL     1      31.852  -9.863 -20.292  0.00  0.00    +0.234 C 
ATOM     17  C   UNL     1      35.375  -9.764 -25.513  0.00  0.00    +0.000 C 
ATOM     18  C   UNL     1      30.780 -12.019 -21.105  0.00  0.00    +0.005 C 
ATOM     19  C   UNL     1      31.910  -4.963 -22.308  0.00  0.00    +0.064 C 
ENDROOT
BRANCH  16  20
ATOM     20  O   UNL     1      30.995  -9.913 -19.152  0.00  0.00    -0.360 OA
ATOM     21  H   UNL     1      31.096 -10.770 -18.710  0.00  0.00    +0.213 HD
ENDBRANCH  16  20
TORSDOF 1
ENDMDL
MODEL 8
REMARK VINA RESULT:      -6.8      3.015      5.128
REMARK  Name = 6918483
REMARK  1 active torsions:
REMARK  status: ('A' for Active; 'I' for Inactive)
REMARK    1  A    between atoms: C_16  and  O_20
REMARK                            x       y       z     vdW  Elec       q    Type
REMARK                         _______ _______ _______ _____ _____    ______ ____
ROOT
ATOM      1  O   UNL     1      33.265 -22.580 -13.711  0.00  0.00    -0.218 OA
ATOM      2  O   UNL     1      34.489 -25.188 -14.094  0.00  0.00    -0.306 OA
ATOM      3  O   UNL     1      32.162 -25.310 -14.043  0.00  0.00    -0.304 OA
ATOM      4  O   UNL     1      33.708 -23.487 -12.657  0.00  0.00    -0.197 OA
ATOM      5  C   UNL     1      33.207 -23.283 -14.981  0.00  0.00    +0.178 C 
ATOM      6  C   UNL     1      34.399 -22.695 -15.801  0.00  0.00    +0.033 C 
ATOM      7  C   UNL     1      31.840 -22.890 -15.605  0.00  0.00    +0.038 C 
ATOM      8  C   UNL     1      34.291 -23.004 -17.318  0.00  0.00    +0.003 C 
ATOM      9  C   UNL     1      33.286 -24.819 -14.782  0.00  0.00    +0.268 C 
ATOM     10  C   UNL     1      31.780 -23.206 -17.109  0.00  0.00    +0.003 C 
ATOM     11  C   UNL     1      30.683 -23.548 -14.807  0.00  0.00    +0.059 C 
ATOM     12  C   UNL     1      35.789 -23.102 -15.258  0.00  0.00    +0.008 C 
ATOM     13  C   UNL     1      32.931 -22.561 -17.866  0.00  0.00    +0.000 C 
ATOM     14  C   UNL     1      34.856 -24.193 -13.134  0.00  0.00    +0.221 C 
ATOM     15  C   UNL     1      35.904 -23.239 -13.736  0.00  0.00    +0.059 C 
ATOM     16  C   UNL     1      30.906 -25.060 -14.667  0.00  0.00    +0.234 C 
ATOM     17  C   UNL     1      35.399 -22.334 -18.140  0.00  0.00    +0.000 C 
ATOM     18  C   UNL     1      29.299 -23.226 -15.378  0.00  0.00    +0.005 C 
ATOM     19  C   UNL     1      35.439 -24.924 -11.925  0.00  0.00    +0.064 C 
ENDROOT
BRANCH  16  20
ATOM     20  O   UNL     1      29.864 -25.607 -13.860  0.00  0.00    -0.360 OA
ATOM     21  H   UNL     1      29.027 -25.574 -14.348  0.00  0.00    +0.213 HD
ENDBRANCH  16  20
TORSDOF 1
ENDMDL
MODEL 9
REMARK VINA RESULT:      -6.8     16.838     19.299
REMARK  Name = 6918483
REMARK  1 active torsions:
REMARK  status: ('A' for Active; 'I' for Inactive)
REMARK    1  A    between atoms: C_16  and  O_20
REMARK                            x       y       z     vdW  Elec       q    Type
REMARK                         _______ _______ _______ _____ _____    ______ ____
ROOT
ATOM      1  O   UNL     1      34.586  -7.745 -22.560  0.00  0.00    -0.218 OA
ATOM      2  O   UNL     1      33.179  -9.120 -24.699  0.00  0.00    -0.306 OA
ATOM      3  O   UNL     1      32.494  -9.843 -22.591  0.00  0.00    -0.304 OA
ATOM      4  O   UNL     1      35.029  -8.957 -23.243  0.00  0.00    -0.197 OA
ATOM      5  C   UNL     1      33.186  -7.491 -22.853  0.00  0.00    +0.178 C 
ATOM      6  C   UNL     1      33.210  -6.238 -23.785  0.00  0.00    +0.033 C 
ATOM      7  C   UNL     1      32.533  -7.165 -21.482  0.00  0.00    +0.038 C 
ATOM      8  C   UNL     1      31.823  -5.552 -23.900  0.00  0.00    +0.003 C 
ATOM      9  C   UNL     1      32.508  -8.730 -23.493  0.00  0.00    +0.268 C 
ATOM     10  C   UNL     1      31.166  -6.481 -21.643  0.00  0.00    +0.003 C 
ATOM     11  C   UNL     1      32.463  -8.447 -20.609  0.00  0.00    +0.059 C 
ATOM     12  C   UNL     1      33.799  -6.518 -25.188  0.00  0.00    +0.008 C 
ATOM     13  C   UNL     1      31.259  -5.236 -22.512  0.00  0.00    +0.000 C 
ATOM     14  C   UNL     1      34.586  -8.886 -24.601  0.00  0.00    +0.221 C 
ATOM     15  C   UNL     1      34.943  -7.536 -25.248  0.00  0.00    +0.059 C 
ATOM     16  C   UNL     1      31.793  -9.595 -21.377  0.00  0.00    +0.234 C 
ATOM     17  C   UNL     1      31.867  -4.260 -24.724  0.00  0.00    +0.000 C 
ATOM     18  C   UNL     1      31.807  -8.212 -19.246  0.00  0.00    +0.005 C 
ATOM     19  C   UNL     1      35.287 -10.027 -25.337  0.00  0.00    +0.064 C 
ENDROOT
BRANCH  16  20
ATOM     20  O   UNL     1      31.823 -10.770 -20.568  0.00  0.00    -0.360 OA
ATOM     21  H   UNL     1      32.639 -11.263 -20.744  0.00  0.00    +0.213 HD
ENDBRANCH  16  20
TORSDOF 1
ENDMDL
