MODEL 1
REMARK VINA RESULT:      -8.3      0.000      0.000
REMARK  Name = 2763
REMARK  5 active torsions:
REMARK  status: ('A' for Active; 'I' for Inactive)
REMARK    1  A    between atoms: C_1  and  C_9
REMARK    2  A    between atoms: C_6  and  O_12
REMARK    3  A    between atoms: O_12  and  C_13
REMARK    4  A    between atoms: C_13  and  C_17
REMARK    5  A    between atoms: C_17  and  O_18
REMARK                            x       y       z     vdW  Elec       q    Type
REMARK                         _______ _______ _______ _____ _____    ______ ____
ROOT
ATOM      1  C   UNL     1      34.345 -14.662 -22.609  0.00  0.00    -0.020 C 
ATOM      2  C   UNL     1      34.971 -15.677 -23.333  0.00  0.00    -0.001 C 
ATOM      3  C   UNL     1      34.087 -14.833 -21.248  0.00  0.00    -0.001 C 
ATOM      4  C   UNL     1      35.338 -16.862 -22.697  0.00  0.00    +0.037 C 
ATOM      5  C   UNL     1      34.453 -16.019 -20.613  0.00  0.00    +0.037 C 
ATOM      6  C   UNL     1      35.078 -17.028 -21.340  0.00  0.00    +0.139 C 
ENDROOT
BRANCH   1   9
ATOM      7 CL   UNL     1      33.014 -14.905 -25.498  0.00  0.00    -0.099 Cl
ATOM      8 CL   UNL     1      33.746 -12.069 -25.740  0.00  0.00    -0.099 Cl
ATOM      9  C   UNL     1      33.953 -13.395 -23.287  0.00  0.00    +0.053 C 
ATOM     10  C   UNL     1      33.335 -13.395 -24.650  0.00  0.00    +0.137 C 
ATOM     11  C   UNL     1      32.498 -13.079 -23.446  0.00  0.00    +0.038 C 
ENDBRANCH   1   9
BRANCH   6  12
ATOM     12  O   UNL     1      35.437 -18.191 -20.716  0.00  0.00    -0.472 OA
BRANCH  12  13
ATOM     13  C   UNL     1      34.715 -19.366 -21.089  0.00  0.00    +0.221 C 
ATOM     14  C   UNL     1      34.960 -19.619 -22.573  0.00  0.00    +0.055 C 
ATOM     15  C   UNL     1      33.240 -19.131 -20.777  0.00  0.00    +0.055 C 
BRANCH  13  17
ATOM     16  O   UNL     1      34.666 -21.485 -19.891  0.00  0.00    -0.246 OA
ATOM     17  C   UNL     1      35.289 -20.488 -20.234  0.00  0.00    +0.350 C 
BRANCH  17  18
ATOM     18  O   UNL     1      36.582 -20.283 -19.877  0.00  0.00    -0.478 OA
ATOM     19  H   UNL     1      37.274 -20.519 -20.462  0.00  0.00    +0.295 HD
ENDBRANCH  17  18
ENDBRANCH  13  17
ENDBRANCH  12  13
ENDBRANCH   6  12
TORSDOF 5
ENDMDL
MODEL 2
REMARK VINA RESULT:      -8.2      7.143      9.654
REMARK  Name = 2763
REMARK  5 active torsions:
REMARK  status: ('A' for Active; 'I' for Inactive)
REMARK    1  A    between atoms: C_1  and  C_9
REMARK    2  A    between atoms: C_6  and  O_12
REMARK    3  A    between atoms: O_12  and  C_13
REMARK    4  A    between atoms: C_13  and  C_17
REMARK    5  A    between atoms: C_17  and  O_18
REMARK                            x       y       z     vdW  Elec       q    Type
REMARK                         _______ _______ _______ _____ _____    ______ ____
ROOT
ATOM      1  C   UNL     1      35.198 -22.717 -17.030  0.00  0.00    -0.020 C 
ATOM      2  C   UNL     1      36.497 -22.234 -17.188  0.00  0.00    -0.001 C 
ATOM      3  C   UNL     1      34.892 -23.554 -15.956  0.00  0.00    -0.001 C 
ATOM      4  C   UNL     1      37.489 -22.587 -16.274  0.00  0.00    +0.037 C 
ATOM      5  C   UNL     1      35.884 -23.908 -15.042  0.00  0.00    +0.037 C 
ATOM      6  C   UNL     1      37.178 -23.422 -15.205  0.00  0.00    +0.139 C 
ENDROOT
BRANCH   1   9
ATOM      7 CL   UNL     1      36.148 -21.442 -19.796  0.00  0.00    -0.099 Cl
ATOM      8 CL   UNL     1      33.368 -20.505 -19.969  0.00  0.00    -0.099 Cl
ATOM      9  C   UNL     1      34.138 -22.340 -18.006  0.00  0.00    +0.053 C 
ATOM     10  C   UNL     1      34.474 -21.720 -19.326  0.00  0.00    +0.137 C 
ATOM     11  C   UNL     1      33.993 -23.141 -19.263  0.00  0.00    +0.038 C 
ENDBRANCH   1   9
BRANCH   6  12
ATOM     12  O   UNL     1      38.151 -23.769 -14.309  0.00  0.00    -0.472 OA
BRANCH  12  13
ATOM     13  C   UNL     1      38.558 -25.138 -14.305  0.00  0.00    +0.221 C 
ATOM     14  C   UNL     1      37.633 -25.908 -15.242  0.00  0.00    +0.055 C 
ATOM     15  C   UNL     1      38.484 -25.648 -12.869  0.00  0.00    +0.055 C 
BRANCH  13  17
ATOM     16  O   UNL     1      40.935 -24.613 -14.243  0.00  0.00    -0.246 OA
ATOM     17  C   UNL     1      39.992 -25.141 -14.819  0.00  0.00    +0.350 C 
BRANCH  17  18
ATOM     18  O   UNL     1      40.138 -25.794 -16.000  0.00  0.00    -0.478 OA
ATOM     19  H   UNL     1      39.429 -25.822 -16.611  0.00  0.00    +0.295 HD
ENDBRANCH  17  18
ENDBRANCH  13  17
ENDBRANCH  12  13
ENDBRANCH   6  12
TORSDOF 5
ENDMDL
MODEL 3
REMARK VINA RESULT:      -8.2      9.973     11.370
REMARK  Name = 2763
REMARK  5 active torsions:
REMARK  status: ('A' for Active; 'I' for Inactive)
REMARK    1  A    between atoms: C_1  and  C_9
REMARK    2  A    between atoms: C_6  and  O_12
REMARK    3  A    between atoms: O_12  and  C_13
REMARK    4  A    between atoms: C_13  and  C_17
REMARK    5  A    between atoms: C_17  and  O_18
REMARK                            x       y       z     vdW  Elec       q    Type
REMARK                         _______ _______ _______ _____ _____    ______ ____
ROOT
ATOM      1  C   UNL     1      33.049 -23.398 -15.275  0.00  0.00    -0.020 C 
ATOM      2  C   UNL     1      33.339 -23.792 -13.968  0.00  0.00    -0.001 C 
ATOM      3  C   UNL     1      34.076 -23.279 -16.212  0.00  0.00    -0.001 C 
ATOM      4  C   UNL     1      34.655 -24.066 -13.599  0.00  0.00    +0.037 C 
ATOM      5  C   UNL     1      35.392 -23.553 -15.842  0.00  0.00    +0.037 C 
ATOM      6  C   UNL     1      35.676 -23.945 -14.537  0.00  0.00    +0.139 C 
ENDROOT
BRANCH   1   9
ATOM      7 CL   UNL     1      30.796 -25.414 -14.254  0.00  0.00    -0.099 Cl
ATOM      8 CL   UNL     1      29.180 -24.214 -16.395  0.00  0.00    -0.099 Cl
ATOM      9  C   UNL     1      31.642 -23.106 -15.671  0.00  0.00    +0.053 C 
ATOM     10  C   UNL     1      30.512 -23.996 -15.258  0.00  0.00    +0.137 C 
ATOM     11  C   UNL     1      30.676 -22.646 -14.623  0.00  0.00    +0.038 C 
ENDBRANCH   1   9
BRANCH   6  12
ATOM     12  O   UNL     1      36.967 -24.214 -14.174  0.00  0.00    -0.472 OA
BRANCH  12  13
ATOM     13  C   UNL     1      37.368 -25.585 -14.209  0.00  0.00    +0.221 C 
ATOM     14  C   UNL     1      36.431 -26.327 -15.156  0.00  0.00    +0.055 C 
ATOM     15  C   UNL     1      37.306 -26.130 -12.785  0.00  0.00    +0.055 C 
BRANCH  13  17
ATOM     16  O   UNL     1      39.568 -26.528 -14.655  0.00  0.00    -0.246 OA
ATOM     17  C   UNL     1      38.797 -25.580 -14.736  0.00  0.00    +0.350 C 
BRANCH  17  18
ATOM     18  O   UNL     1      39.151 -24.405 -15.318  0.00  0.00    -0.478 OA
ATOM     19  H   UNL     1      40.040 -24.112 -15.281  0.00  0.00    +0.295 HD
ENDBRANCH  17  18
ENDBRANCH  13  17
ENDBRANCH  12  13
ENDBRANCH   6  12
TORSDOF 5
ENDMDL
MODEL 4
REMARK VINA RESULT:      -8.2      9.545     10.816
REMARK  Name = 2763
REMARK  5 active torsions:
REMARK  status: ('A' for Active; 'I' for Inactive)
REMARK    1  A    between atoms: C_1  and  C_9
REMARK    2  A    between atoms: C_6  and  O_12
REMARK    3  A    between atoms: O_12  and  C_13
REMARK    4  A    between atoms: C_13  and  C_17
REMARK    5  A    between atoms: C_17  and  O_18
REMARK                            x       y       z     vdW  Elec       q    Type
REMARK                         _______ _______ _______ _____ _____    ______ ____
ROOT
ATOM      1  C   UNL     1      32.274 -23.330 -15.768  0.00  0.00    -0.020 C 
ATOM      2  C   UNL     1      32.690 -23.936 -14.583  0.00  0.00    -0.001 C 
ATOM      3  C   UNL     1      33.161 -23.211 -16.840  0.00  0.00    -0.001 C 
ATOM      4  C   UNL     1      33.992 -24.424 -14.469  0.00  0.00    +0.037 C 
ATOM      5  C   UNL     1      34.463 -23.698 -16.725  0.00  0.00    +0.037 C 
ATOM      6  C   UNL     1      34.872 -24.303 -15.540  0.00  0.00    +0.139 C 
ENDROOT
BRANCH   1   9
ATOM      7 CL   UNL     1      29.900 -25.455 -15.600  0.00  0.00    -0.099 Cl
ATOM      8 CL   UNL     1      28.312 -23.326 -16.859  0.00  0.00    -0.099 Cl
ATOM      9  C   UNL     1      30.884 -22.809 -15.891  0.00  0.00    +0.053 C 
ATOM     10  C   UNL     1      29.699 -23.722 -15.841  0.00  0.00    +0.137 C 
ATOM     11  C   UNL     1      29.999 -22.816 -14.683  0.00  0.00    +0.038 C 
ENDBRANCH   1   9
BRANCH   6  12
ATOM     12  O   UNL     1      36.148 -24.781 -15.427  0.00  0.00    -0.472 OA
BRANCH  12  13
ATOM     13  C   UNL     1      37.117 -23.890 -14.872  0.00  0.00    +0.221 C 
ATOM     14  C   UNL     1      36.534 -23.295 -13.594  0.00  0.00    +0.055 C 
ATOM     15  C   UNL     1      37.432 -22.824 -15.917  0.00  0.00    +0.055 C 
BRANCH  13  17
ATOM     16  O   UNL     1      39.134 -24.531 -13.667  0.00  0.00    -0.246 OA
ATOM     17  C   UNL     1      38.339 -24.749 -14.573  0.00  0.00    +0.350 C 
BRANCH  17  18
ATOM     18  O   UNL     1      38.475 -25.802 -15.419  0.00  0.00    -0.478 OA
ATOM     19  H   UNL     1      38.812 -25.669 -16.283  0.00  0.00    +0.295 HD
ENDBRANCH  17  18
ENDBRANCH  13  17
ENDBRANCH  12  13
ENDBRANCH   6  12
TORSDOF 5
ENDMDL
MODEL 5
REMARK VINA RESULT:      -8.1     10.090     11.637
REMARK  Name = 2763
REMARK  5 active torsions:
REMARK  status: ('A' for Active; 'I' for Inactive)
REMARK    1  A    between atoms: C_1  and  C_9
REMARK    2  A    between atoms: C_6  and  O_12
REMARK    3  A    between atoms: O_12  and  C_13
REMARK    4  A    between atoms: C_13  and  C_17
REMARK    5  A    between atoms: C_17  and  O_18
REMARK                            x       y       z     vdW  Elec       q    Type
REMARK                         _______ _______ _______ _____ _____    ______ ____
ROOT
ATOM      1  C   UNL     1      33.309 -23.450 -15.232  0.00  0.00    -0.020 C 
ATOM      2  C   UNL     1      33.616 -23.704 -13.895  0.00  0.00    -0.001 C 
ATOM      3  C   UNL     1      34.333 -23.332 -16.173  0.00  0.00    -0.001 C 
ATOM      4  C   UNL     1      34.947 -23.840 -13.499  0.00  0.00    +0.037 C 
ATOM      5  C   UNL     1      35.663 -23.467 -15.776  0.00  0.00    +0.037 C 
ATOM      6  C   UNL     1      35.964 -23.720 -14.441  0.00  0.00    +0.139 C 
ENDROOT
BRANCH   1   9
ATOM      7 CL   UNL     1      31.157 -25.304 -13.779  0.00  0.00    -0.099 Cl
ATOM      8 CL   UNL     1      29.472 -24.643 -16.094  0.00  0.00    -0.099 Cl
ATOM      9  C   UNL     1      31.888 -23.306 -15.656  0.00  0.00    +0.053 C 
ATOM     10  C   UNL     1      30.802 -24.138 -15.049  0.00  0.00    +0.137 C 
ATOM     11  C   UNL     1      30.910 -22.680 -14.709  0.00  0.00    +0.038 C 
ENDBRANCH   1   9
BRANCH   6  12
ATOM     12  O   UNL     1      37.268 -23.853 -14.053  0.00  0.00    -0.472 OA
BRANCH  12  13
ATOM     13  C   UNL     1      37.733 -25.183 -13.818  0.00  0.00    +0.221 C 
ATOM     14  C   UNL     1      39.213 -25.238 -14.186  0.00  0.00    +0.055 C 
ATOM     15  C   UNL     1      36.890 -26.133 -14.664  0.00  0.00    +0.055 C 
BRANCH  13  17
ATOM     16  O   UNL     1      37.920 -24.691 -11.440  0.00  0.00    -0.246 OA
ATOM     17  C   UNL     1      37.524 -25.434 -12.330  0.00  0.00    +0.350 C 
BRANCH  17  18
ATOM     18  O   UNL     1      36.844 -26.579 -12.069  0.00  0.00    -0.478 OA
ATOM     19  H   UNL     1      36.736 -27.224 -12.739  0.00  0.00    +0.295 HD
ENDBRANCH  17  18
ENDBRANCH  13  17
ENDBRANCH  12  13
ENDBRANCH   6  12
TORSDOF 5
ENDMDL
MODEL 6
REMARK VINA RESULT:      -8.0      3.953      6.695
REMARK  Name = 2763
REMARK  5 active torsions:
REMARK  status: ('A' for Active; 'I' for Inactive)
REMARK    1  A    between atoms: C_1  and  C_9
REMARK    2  A    between atoms: C_6  and  O_12
REMARK    3  A    between atoms: O_12  and  C_13
REMARK    4  A    between atoms: C_13  and  C_17
REMARK    5  A    between atoms: C_17  and  O_18
REMARK                            x       y       z     vdW  Elec       q    Type
REMARK                         _______ _______ _______ _____ _____    ______ ____
ROOT
ATOM      1  C   UNL     1      35.147 -17.632 -21.667  0.00  0.00    -0.020 C 
ATOM      2  C   UNL     1      35.207 -17.269 -23.013  0.00  0.00    -0.001 C 
ATOM      3  C   UNL     1      34.864 -16.669 -20.697  0.00  0.00    -0.001 C 
ATOM      4  C   UNL     1      34.985 -15.945 -23.389  0.00  0.00    +0.037 C 
ATOM      5  C   UNL     1      34.643 -15.344 -21.073  0.00  0.00    +0.037 C 
ATOM      6  C   UNL     1      34.704 -14.989 -22.418  0.00  0.00    +0.139 C 
ENDROOT
BRANCH   1   9
ATOM      7 CL   UNL     1      32.614 -19.319 -20.708  0.00  0.00    -0.099 Cl
ATOM      8 CL   UNL     1      34.630 -21.098 -19.520  0.00  0.00    -0.099 Cl
ATOM      9  C   UNL     1      35.383 -19.047 -21.264  0.00  0.00    +0.053 C 
ATOM     10  C   UNL     1      34.267 -19.921 -20.784  0.00  0.00    +0.137 C 
ATOM     11  C   UNL     1      34.866 -20.145 -22.142  0.00  0.00    +0.038 C 
ENDBRANCH   1   9
BRANCH   6  12
ATOM     12  O   UNL     1      34.487 -13.690 -22.786  0.00  0.00    -0.472 OA
BRANCH  12  13
ATOM     13  C   UNL     1      33.159 -13.354 -23.192  0.00  0.00    +0.221 C 
ATOM     14  C   UNL     1      32.203 -13.795 -22.088  0.00  0.00    +0.055 C 
ATOM     15  C   UNL     1      32.879 -14.057 -24.517  0.00  0.00    +0.055 C 
BRANCH  13  17
ATOM     16  O   UNL     1      32.323 -11.092 -22.853  0.00  0.00    -0.246 OA
ATOM     17  C   UNL     1      33.152 -11.840 -23.357  0.00  0.00    +0.350 C 
BRANCH  17  18
ATOM     18  O   UNL     1      34.167 -11.379 -24.131  0.00  0.00    -0.478 OA
ATOM     19  H   UNL     1      34.236 -11.649 -25.025  0.00  0.00    +0.295 HD
ENDBRANCH  17  18
ENDBRANCH  13  17
ENDBRANCH  12  13
ENDBRANCH   6  12
TORSDOF 5
ENDMDL
MODEL 7
REMARK VINA RESULT:      -8.0      4.285      6.778
REMARK  Name = 2763
REMARK  5 active torsions:
REMARK  status: ('A' for Active; 'I' for Inactive)
REMARK    1  A    between atoms: C_1  and  C_9
REMARK    2  A    between atoms: C_6  and  O_12
REMARK    3  A    between atoms: O_12  and  C_13
REMARK    4  A    between atoms: C_13  and  C_17
REMARK    5  A    between atoms: C_17  and  O_18
REMARK                            x       y       z     vdW  Elec       q    Type
REMARK                         _______ _______ _______ _____ _____    ______ ____
ROOT
ATOM      1  C   UNL     1      34.157 -20.569 -20.012  0.00  0.00    -0.020 C 
ATOM      2  C   UNL     1      32.986 -21.115 -19.484  0.00  0.00    -0.001 C 
ATOM      3  C   UNL     1      35.397 -21.092 -19.644  0.00  0.00    -0.001 C 
ATOM      4  C   UNL     1      33.056 -22.183 -18.590  0.00  0.00    +0.037 C 
ATOM      5  C   UNL     1      35.466 -22.160 -18.749  0.00  0.00    +0.037 C 
ATOM      6  C   UNL     1      34.295 -22.701 -18.227  0.00  0.00    +0.139 C 
ENDROOT
BRANCH   1   9
ATOM      7 CL   UNL     1      36.896 -19.115 -20.762  0.00  0.00    -0.099 Cl
ATOM      8 CL   UNL     1      35.140 -16.934 -21.655  0.00  0.00    -0.099 Cl
ATOM      9  C   UNL     1      34.083 -19.429 -20.967  0.00  0.00    +0.053 C 
ATOM     10  C   UNL     1      35.306 -18.668 -21.374  0.00  0.00    +0.137 C 
ATOM     11  C   UNL     1      34.644 -19.601 -22.345  0.00  0.00    +0.038 C 
ENDBRANCH   1   9
BRANCH   6  12
ATOM     12  O   UNL     1      34.363 -23.748 -17.350  0.00  0.00    -0.472 OA
BRANCH  12  13
ATOM     13  C   UNL     1      34.519 -23.416 -15.969  0.00  0.00    +0.221 C 
ATOM     14  C   UNL     1      33.161 -22.973 -15.434  0.00  0.00    +0.055 C 
ATOM     15  C   UNL     1      35.570 -22.314 -15.865  0.00  0.00    +0.055 C 
BRANCH  13  17
ATOM     16  O   UNL     1      35.955 -25.358 -15.656  0.00  0.00    -0.246 OA
ATOM     17  C   UNL     1      34.991 -24.695 -15.291  0.00  0.00    +0.350 C 
BRANCH  17  18
ATOM     18  O   UNL     1      34.232 -25.047 -14.222  0.00  0.00    -0.478 OA
ATOM     19  H   UNL     1      34.569 -24.945 -13.354  0.00  0.00    +0.295 HD
ENDBRANCH  17  18
ENDBRANCH  13  17
ENDBRANCH  12  13
ENDBRANCH   6  12
TORSDOF 5
ENDMDL
MODEL 8
REMARK VINA RESULT:      -8.0     10.233     11.585
REMARK  Name = 2763
REMARK  5 active torsions:
REMARK  status: ('A' for Active; 'I' for Inactive)
REMARK    1  A    between atoms: C_1  and  C_9
REMARK    2  A    between atoms: C_6  and  O_12
REMARK    3  A    between atoms: O_12  and  C_13
REMARK    4  A    between atoms: C_13  and  C_17
REMARK    5  A    between atoms: C_17  and  O_18
REMARK                            x       y       z     vdW  Elec       q    Type
REMARK                         _______ _______ _______ _____ _____    ______ ____
ROOT
ATOM      1  C   UNL     1      34.401 -23.575 -14.758  0.00  0.00    -0.020 C 
ATOM      2  C   UNL     1      34.111 -23.111 -16.042  0.00  0.00    -0.001 C 
ATOM      3  C   UNL     1      33.429 -24.257 -14.026  0.00  0.00    -0.001 C 
ATOM      4  C   UNL     1      32.848 -23.331 -16.593  0.00  0.00    +0.037 C 
ATOM      5  C   UNL     1      32.167 -24.476 -14.577  0.00  0.00    +0.037 C 
ATOM      6  C   UNL     1      31.883 -24.012 -15.858  0.00  0.00    +0.139 C 
ENDROOT
BRANCH   1   9
ATOM      7 CL   UNL     1      36.563 -25.897 -15.094  0.00  0.00    -0.099 Cl
ATOM      8 CL   UNL     1      37.935 -24.524 -12.888  0.00  0.00    -0.099 Cl
ATOM      9  C   UNL     1      35.750 -23.341 -14.169  0.00  0.00    +0.053 C 
ATOM     10  C   UNL     1      36.832 -24.372 -14.257  0.00  0.00    +0.137 C 
ATOM     11  C   UNL     1      36.913 -23.124 -15.087  0.00  0.00    +0.038 C 
ENDBRANCH   1   9
BRANCH   6  12
ATOM     12  O   UNL     1      30.645 -24.226 -16.399  0.00  0.00    -0.472 OA
BRANCH  12  13
ATOM     13  C   UNL     1      29.533 -23.688 -15.682  0.00  0.00    +0.221 C 
ATOM     14  C   UNL     1      30.045 -22.558 -14.794  0.00  0.00    +0.055 C 
ATOM     15  C   UNL     1      28.900 -24.818 -14.874  0.00  0.00    +0.055 C 
BRANCH  13  17
ATOM     16  O   UNL     1      28.444 -21.982 -17.037  0.00  0.00    -0.246 OA
ATOM     17  C   UNL     1      28.575 -23.165 -16.744  0.00  0.00    +0.350 C 
BRANCH  17  18
ATOM     18  O   UNL     1      27.861 -24.145 -17.353  0.00  0.00    -0.478 OA
ATOM     19  H   UNL     1      28.234 -24.622 -18.068  0.00  0.00    +0.295 HD
ENDBRANCH  17  18
ENDBRANCH  13  17
ENDBRANCH  12  13
ENDBRANCH   6  12
TORSDOF 5
ENDMDL
MODEL 9
REMARK VINA RESULT:      -7.9      7.092      9.783
REMARK  Name = 2763
REMARK  5 active torsions:
REMARK  status: ('A' for Active; 'I' for Inactive)
REMARK    1  A    between atoms: C_1  and  C_9
REMARK    2  A    between atoms: C_6  and  O_12
REMARK    3  A    between atoms: O_12  and  C_13
REMARK    4  A    between atoms: C_13  and  C_17
REMARK    5  A    between atoms: C_17  and  O_18
REMARK                            x       y       z     vdW  Elec       q    Type
REMARK                         _______ _______ _______ _____ _____    ______ ____
ROOT
ATOM      1  C   UNL     1      34.966 -22.704 -17.011  0.00  0.00    -0.020 C 
ATOM      2  C   UNL     1      36.319 -22.399 -17.161  0.00  0.00    -0.001 C 
ATOM      3  C   UNL     1      34.510 -23.292 -15.830  0.00  0.00    -0.001 C 
ATOM      4  C   UNL     1      37.216 -22.683 -16.132  0.00  0.00    +0.037 C 
ATOM      5  C   UNL     1      35.408 -23.576 -14.801  0.00  0.00    +0.037 C 
ATOM      6  C   UNL     1      36.757 -23.269 -14.957  0.00  0.00    +0.139 C 
ENDROOT
BRANCH   1   9
ATOM      7 CL   UNL     1      36.078 -21.052 -19.504  0.00  0.00    -0.099 Cl
ATOM      8 CL   UNL     1      33.236 -20.529 -20.038  0.00  0.00    -0.099 Cl
ATOM      9  C   UNL     1      34.007 -22.401 -18.110  0.00  0.00    +0.053 C 
ATOM     10  C   UNL     1      34.421 -21.620 -19.318  0.00  0.00    +0.137 C 
ATOM     11  C   UNL     1      34.172 -23.095 -19.427  0.00  0.00    +0.038 C 
ENDBRANCH   1   9
BRANCH   6  12
ATOM     12  O   UNL     1      37.636 -23.548 -13.948  0.00  0.00    -0.472 OA
BRANCH  12  13
ATOM     13  C   UNL     1      37.973 -24.923 -13.754  0.00  0.00    +0.221 C 
ATOM     14  C   UNL     1      39.480 -25.070 -13.937  0.00  0.00    +0.055 C 
ATOM     15  C   UNL     1      37.183 -25.748 -14.765  0.00  0.00    +0.055 C 
BRANCH  13  17
ATOM     16  O   UNL     1      37.824 -24.559 -11.351  0.00  0.00    -0.246 OA
ATOM     17  C   UNL     1      37.555 -25.250 -12.326  0.00  0.00    +0.350 C 
BRANCH  17  18
ATOM     18  O   UNL     1      36.841 -26.400 -12.226  0.00  0.00    -0.478 OA
ATOM     19  H   UNL     1      36.458 -26.783 -12.990  0.00  0.00    +0.295 HD
ENDBRANCH  17  18
ENDBRANCH  13  17
ENDBRANCH  12  13
ENDBRANCH   6  12
TORSDOF 5
ENDMDL
