MODEL 1
REMARK VINA RESULT:      -7.8      0.000      0.000
REMARK  Name = 1950
REMARK  7 active torsions:
REMARK  status: ('A' for Active; 'I' for Inactive)
REMARK    1  A    between atoms: N_2  and  C_13
REMARK    2  A    between atoms: C_3  and  O_5
REMARK    3  A    between atoms: O_5  and  C_6
REMARK    4  A    between atoms: C_6  and  C_7
REMARK    5  A    between atoms: C_13  and  P_14
REMARK    6  A    between atoms: P_14  and  O_16
REMARK    7  A    between atoms: P_14  and  O_18
REMARK                            x       y       z     vdW  Elec       q    Type
REMARK                         _______ _______ _______ _____ _____    ______ ____
ROOT
ATOM      1  O   UNL     1      36.051 -26.539 -15.782  0.00  0.00    -0.226 OA
ATOM      2  N   UNL     1      37.299 -25.248 -14.317  0.00  0.00    -0.260 N 
ATOM      3  C   UNL     1      36.181 -25.554 -15.063  0.00  0.00    +0.402 C 
ATOM      4  H   UNL     1      37.290 -24.424 -13.776  0.00  0.00    +0.153 HD
ENDROOT
BRANCH   3   5
ATOM      5  O   UNL     1      35.230 -24.591 -14.886  0.00  0.00    -0.430 OA
BRANCH   5   6
ATOM      6  C   UNL     1      35.665 -23.242 -15.090  0.00  0.00    +0.237 C 
BRANCH   6   7
ATOM      7  C   UNL     1      35.427 -22.786 -16.491  0.00  0.00    +0.021 C 
ATOM      8  C   UNL     1      34.200 -23.033 -17.106  0.00  0.00    -0.001 C 
ATOM      9  C   UNL     1      36.433 -22.115 -17.185  0.00  0.00    -0.001 C 
ATOM     10  C   UNL     1      33.978 -22.607 -18.415  0.00  0.00    -0.000 C 
ATOM     11  C   UNL     1      36.212 -21.689 -18.495  0.00  0.00    -0.000 C 
ATOM     12  C   UNL     1      34.984 -21.935 -19.110  0.00  0.00    -0.000 C 
ENDBRANCH   6   7
ENDBRANCH   5   6
ENDBRANCH   3   5
BRANCH   2  13
ATOM     13  C   UNL     1      38.487 -26.073 -14.287  0.00  0.00    +0.209 C 
BRANCH  13  14
ATOM     14  P   UNL     1      39.838 -25.084 -14.886  0.00  0.00    +0.357 P 
ATOM     15  O   UNL     1      40.821 -24.647 -13.842  0.00  0.00    -0.256 OA
BRANCH  14  16
ATOM     16  O   UNL     1      40.459 -25.968 -16.089  0.00  0.00    -0.322 OA
ATOM     17  H   UNL     1      39.765 -26.167 -16.736  0.00  0.00    +0.220 HD
ENDBRANCH  14  16
BRANCH  14  18
ATOM     18  O   UNL     1      39.091 -23.879 -15.664  0.00  0.00    -0.322 OA
ATOM     19  H   UNL     1      38.325 -24.229 -16.144  0.00  0.00    +0.220 HD
ENDBRANCH  14  18
ENDBRANCH  13  14
ENDBRANCH   2  13
TORSDOF 7
ENDMDL
MODEL 2
REMARK VINA RESULT:      -7.8      2.087      3.423
REMARK  Name = 1950
REMARK  7 active torsions:
REMARK  status: ('A' for Active; 'I' for Inactive)
REMARK    1  A    between atoms: N_2  and  C_13
REMARK    2  A    between atoms: C_3  and  O_5
REMARK    3  A    between atoms: O_5  and  C_6
REMARK    4  A    between atoms: C_6  and  C_7
REMARK    5  A    between atoms: C_13  and  P_14
REMARK    6  A    between atoms: P_14  and  O_16
REMARK    7  A    between atoms: P_14  and  O_18
REMARK                            x       y       z     vdW  Elec       q    Type
REMARK                         _______ _______ _______ _____ _____    ______ ____
ROOT
ATOM      1  O   UNL     1      34.975 -22.711 -15.122  0.00  0.00    -0.226 OA
ATOM      2  N   UNL     1      36.879 -23.892 -15.713  0.00  0.00    -0.260 N 
ATOM      3  C   UNL     1      35.811 -23.053 -15.950  0.00  0.00    +0.402 C 
ATOM      4  H   UNL     1      37.487 -24.100 -16.460  0.00  0.00    +0.153 HD
ENDROOT
BRANCH   3   5
ATOM      5  O   UNL     1      35.818 -22.658 -17.257  0.00  0.00    -0.430 OA
BRANCH   5   6
ATOM      6  C   UNL     1      34.553 -22.697 -17.927  0.00  0.00    +0.237 C 
BRANCH   6   7
ATOM      7  C   UNL     1      34.474 -21.691 -19.026  0.00  0.00    +0.021 C 
ATOM      8  C   UNL     1      35.643 -21.178 -19.587  0.00  0.00    -0.001 C 
ATOM      9  C   UNL     1      33.230 -21.263 -19.491  0.00  0.00    -0.001 C 
ATOM     10  C   UNL     1      35.569 -20.238 -20.615  0.00  0.00    -0.000 C 
ATOM     11  C   UNL     1      33.156 -20.323 -20.519  0.00  0.00    -0.000 C 
ATOM     12  C   UNL     1      34.326 -19.810 -21.080  0.00  0.00    -0.000 C 
ENDBRANCH   6   7
ENDBRANCH   5   6
ENDBRANCH   3   5
BRANCH   2  13
ATOM     13  C   UNL     1      37.154 -24.485 -14.422  0.00  0.00    +0.209 C 
BRANCH  13  14
ATOM     14  P   UNL     1      37.148 -26.250 -14.634  0.00  0.00    +0.357 P 
ATOM     15  O   UNL     1      36.289 -26.756 -15.754  0.00  0.00    -0.256 OA
BRANCH  14  16
ATOM     16  O   UNL     1      38.715 -26.631 -14.743  0.00  0.00    -0.322 OA
ATOM     17  H   UNL     1      39.246 -25.820 -14.746  0.00  0.00    +0.220 HD
ENDBRANCH  14  16
BRANCH  14  18
ATOM     18  O   UNL     1      36.740 -26.793 -13.166  0.00  0.00    -0.322 OA
ATOM     19  H   UNL     1      36.464 -26.047 -12.611  0.00  0.00    +0.220 HD
ENDBRANCH  14  18
ENDBRANCH  13  14
ENDBRANCH   2  13
TORSDOF 7
ENDMDL
MODEL 3
REMARK VINA RESULT:      -7.8      5.566      7.425
REMARK  Name = 1950
REMARK  7 active torsions:
REMARK  status: ('A' for Active; 'I' for Inactive)
REMARK    1  A    between atoms: N_2  and  C_13
REMARK    2  A    between atoms: C_3  and  O_5
REMARK    3  A    between atoms: O_5  and  C_6
REMARK    4  A    between atoms: C_6  and  C_7
REMARK    5  A    between atoms: C_13  and  P_14
REMARK    6  A    between atoms: P_14  and  O_16
REMARK    7  A    between atoms: P_14  and  O_18
REMARK                            x       y       z     vdW  Elec       q    Type
REMARK                         _______ _______ _______ _____ _____    ______ ____
ROOT
ATOM      1  O   UNL     1      33.172 -23.399 -16.572  0.00  0.00    -0.226 OA
ATOM      2  N   UNL     1      31.044 -22.639 -17.091  0.00  0.00    -0.260 N 
ATOM      3  C   UNL     1      32.380 -22.870 -17.344  0.00  0.00    +0.402 C 
ATOM      4  H   UNL     1      30.503 -22.203 -17.789  0.00  0.00    +0.153 HD
ENDROOT
BRANCH   3   5
ATOM      5  O   UNL     1      32.697 -22.417 -18.593  0.00  0.00    -0.430 OA
BRANCH   5   6
ATOM      6  C   UNL     1      34.089 -22.429 -18.926  0.00  0.00    +0.237 C 
BRANCH   6   7
ATOM      7  C   UNL     1      34.479 -21.235 -19.731  0.00  0.00    +0.021 C 
ATOM      8  C   UNL     1      33.496 -20.429 -20.304  0.00  0.00    -0.001 C 
ATOM      9  C   UNL     1      35.827 -20.927 -19.912  0.00  0.00    -0.001 C 
ATOM     10  C   UNL     1      33.860 -19.312 -21.056  0.00  0.00    -0.000 C 
ATOM     11  C   UNL     1      36.192 -19.810 -20.664  0.00  0.00    -0.000 C 
ATOM     12  C   UNL     1      35.208 -19.003 -21.237  0.00  0.00    -0.000 C 
ENDBRANCH   6   7
ENDBRANCH   5   6
ENDBRANCH   3   5
BRANCH   2  13
ATOM     13  C   UNL     1      30.395 -23.005 -15.851  0.00  0.00    +0.209 C 
BRANCH  13  14
ATOM     14  P   UNL     1      28.660 -23.194 -16.194  0.00  0.00    +0.357 P 
ATOM     15  O   UNL     1      28.309 -23.352 -17.642  0.00  0.00    -0.256 OA
BRANCH  14  16
ATOM     16  O   UNL     1      28.210 -24.418 -15.239  0.00  0.00    -0.322 OA
ATOM     17  H   UNL     1      27.741 -24.069 -14.465  0.00  0.00    +0.220 HD
ENDBRANCH  14  16
BRANCH  14  18
ATOM     18  O   UNL     1      28.003 -21.905 -15.472  0.00  0.00    -0.322 OA
ATOM     19  H   UNL     1      27.041 -22.016 -15.425  0.00  0.00    +0.220 HD
ENDBRANCH  14  18
ENDBRANCH  13  14
ENDBRANCH   2  13
TORSDOF 7
ENDMDL
MODEL 4
REMARK VINA RESULT:      -7.8      4.902      6.198
REMARK  Name = 1950
REMARK  7 active torsions:
REMARK  status: ('A' for Active; 'I' for Inactive)
REMARK    1  A    between atoms: N_2  and  C_13
REMARK    2  A    between atoms: C_3  and  O_5
REMARK    3  A    between atoms: O_5  and  C_6
REMARK    4  A    between atoms: C_6  and  C_7
REMARK    5  A    between atoms: C_13  and  P_14
REMARK    6  A    between atoms: P_14  and  O_16
REMARK    7  A    between atoms: P_14  and  O_18
REMARK                            x       y       z     vdW  Elec       q    Type
REMARK                         _______ _______ _______ _____ _____    ______ ____
ROOT
ATOM      1  O   UNL     1      33.709 -23.274 -15.904  0.00  0.00    -0.226 OA
ATOM      2  N   UNL     1      31.407 -23.009 -15.902  0.00  0.00    -0.260 N 
ATOM      3  C   UNL     1      32.650 -23.088 -16.493  0.00  0.00    +0.402 C 
ATOM      4  H   UNL     1      30.623 -22.854 -16.478  0.00  0.00    +0.153 HD
ENDROOT
BRANCH   3   5
ATOM      5  O   UNL     1      32.530 -22.925 -17.843  0.00  0.00    -0.430 OA
BRANCH   5   6
ATOM      6  C   UNL     1      33.755 -22.937 -18.584  0.00  0.00    +0.237 C 
BRANCH   6   7
ATOM      7  C   UNL     1      33.914 -21.708 -19.415  0.00  0.00    +0.021 C 
ATOM      8  C   UNL     1      35.186 -21.292 -19.809  0.00  0.00    -0.001 C 
ATOM      9  C   UNL     1      32.790 -20.975 -19.798  0.00  0.00    -0.001 C 
ATOM     10  C   UNL     1      35.334 -20.143 -20.586  0.00  0.00    -0.000 C 
ATOM     11  C   UNL     1      32.939 -19.826 -20.575  0.00  0.00    -0.000 C 
ATOM     12  C   UNL     1      34.211 -19.411 -20.969  0.00  0.00    -0.000 C 
ENDBRANCH   6   7
ENDBRANCH   5   6
ENDBRANCH   3   5
BRANCH   2  13
ATOM     13  C   UNL     1      31.193 -23.142 -14.477  0.00  0.00    +0.209 C 
BRANCH  13  14
ATOM     14  P   UNL     1      30.944 -24.869 -14.135  0.00  0.00    +0.357 P 
ATOM     15  O   UNL     1      30.103 -25.603 -15.135  0.00  0.00    -0.256 OA
BRANCH  14  16
ATOM     16  O   UNL     1      32.442 -25.444 -13.941  0.00  0.00    -0.322 OA
ATOM     17  H   UNL     1      32.507 -25.896 -13.086  0.00  0.00    +0.220 HD
ENDBRANCH  14  16
BRANCH  14  18
ATOM     18  O   UNL     1      30.356 -24.861 -12.628  0.00  0.00    -0.322 OA
ATOM     19  H   UNL     1      31.090 -24.875 -11.995  0.00  0.00    +0.220 HD
ENDBRANCH  14  18
ENDBRANCH  13  14
ENDBRANCH   2  13
TORSDOF 7
ENDMDL
MODEL 5
REMARK VINA RESULT:      -7.7      2.266      3.364
REMARK  Name = 1950
REMARK  7 active torsions:
REMARK  status: ('A' for Active; 'I' for Inactive)
REMARK    1  A    between atoms: N_2  and  C_13
REMARK    2  A    between atoms: C_3  and  O_5
REMARK    3  A    between atoms: O_5  and  C_6
REMARK    4  A    between atoms: C_6  and  C_7
REMARK    5  A    between atoms: C_13  and  P_14
REMARK    6  A    between atoms: P_14  and  O_16
REMARK    7  A    between atoms: P_14  and  O_18
REMARK                            x       y       z     vdW  Elec       q    Type
REMARK                         _______ _______ _______ _____ _____    ______ ____
ROOT
ATOM      1  O   UNL     1      37.561 -21.473 -16.428  0.00  0.00    -0.226 OA
ATOM      2  N   UNL     1      36.293 -23.258 -15.669  0.00  0.00    -0.260 N 
ATOM      3  C   UNL     1      36.660 -22.290 -16.579  0.00  0.00    +0.402 C 
ATOM      4  H   UNL     1      35.548 -23.860 -15.899  0.00  0.00    +0.153 HD
ENDROOT
BRANCH   3   5
ATOM      5  O   UNL     1      35.862 -22.372 -17.685  0.00  0.00    -0.430 OA
BRANCH   5   6
ATOM      6  C   UNL     1      36.359 -21.723 -18.861  0.00  0.00    +0.237 C 
BRANCH   6   7
ATOM      7  C   UNL     1      35.270 -21.049 -19.626  0.00  0.00    +0.021 C 
ATOM      8  C   UNL     1      33.938 -21.391 -19.391  0.00  0.00    -0.001 C 
ATOM      9  C   UNL     1      35.584 -20.079 -20.578  0.00  0.00    -0.001 C 
ATOM     10  C   UNL     1      32.919 -20.761 -20.106  0.00  0.00    -0.000 C 
ATOM     11  C   UNL     1      34.565 -19.449 -21.293  0.00  0.00    -0.000 C 
ATOM     12  C   UNL     1      33.233 -19.790 -21.057  0.00  0.00    -0.000 C 
ENDBRANCH   6   7
ENDBRANCH   5   6
ENDBRANCH   3   5
BRANCH   2  13
ATOM     13  C   UNL     1      36.945 -23.436 -14.390  0.00  0.00    +0.209 C 
BRANCH  13  14
ATOM     14  P   UNL     1      38.004 -24.858 -14.526  0.00  0.00    +0.357 P 
ATOM     15  O   UNL     1      38.373 -25.506 -13.226  0.00  0.00    -0.256 OA
BRANCH  14  16
ATOM     16  O   UNL     1      37.234 -25.814 -15.577  0.00  0.00    -0.322 OA
ATOM     17  H   UNL     1      37.760 -25.895 -16.388  0.00  0.00    +0.220 HD
ENDBRANCH  14  16
BRANCH  14  18
ATOM     18  O   UNL     1      39.255 -24.301 -15.386  0.00  0.00    -0.322 OA
ATOM     19  H   UNL     1      40.080 -24.474 -14.907  0.00  0.00    +0.220 HD
ENDBRANCH  14  18
ENDBRANCH  13  14
ENDBRANCH   2  13
TORSDOF 7
ENDMDL
MODEL 6
REMARK VINA RESULT:      -7.6      9.165     10.835
REMARK  Name = 1950
REMARK  7 active torsions:
REMARK  status: ('A' for Active; 'I' for Inactive)
REMARK    1  A    between atoms: N_2  and  C_13
REMARK    2  A    between atoms: C_3  and  O_5
REMARK    3  A    between atoms: O_5  and  C_6
REMARK    4  A    between atoms: C_6  and  C_7
REMARK    5  A    between atoms: C_13  and  P_14
REMARK    6  A    between atoms: P_14  and  O_16
REMARK    7  A    between atoms: P_14  and  O_18
REMARK                            x       y       z     vdW  Elec       q    Type
REMARK                         _______ _______ _______ _____ _____    ______ ____
ROOT
ATOM      1  O   UNL     1      34.998 -16.091 -19.944  0.00  0.00    -0.226 OA
ATOM      2  N   UNL     1      34.636 -15.717 -22.202  0.00  0.00    -0.260 N 
ATOM      3  C   UNL     1      34.971 -16.482 -21.105  0.00  0.00    +0.402 C 
ATOM      4  H   UNL     1      34.652 -16.141 -23.091  0.00  0.00    +0.153 HD
ENDROOT
BRANCH   3   5
ATOM      5  O   UNL     1      35.275 -17.752 -21.505  0.00  0.00    -0.430 OA
BRANCH   5   6
ATOM      6  C   UNL     1      34.170 -18.657 -21.600  0.00  0.00    +0.237 C 
BRANCH   6   7
ATOM      7  C   UNL     1      34.358 -19.858 -20.735  0.00  0.00    +0.021 C 
ATOM      8  C   UNL     1      35.642 -20.342 -20.484  0.00  0.00    -0.001 C 
ATOM      9  C   UNL     1      33.250 -20.497 -20.178  0.00  0.00    -0.001 C 
ATOM     10  C   UNL     1      35.818 -21.465 -19.675  0.00  0.00    -0.000 C 
ATOM     11  C   UNL     1      33.426 -21.619 -19.368  0.00  0.00    -0.000 C 
ATOM     12  C   UNL     1      34.710 -22.103 -19.117  0.00  0.00    -0.000 C 
ENDBRANCH   6   7
ENDBRANCH   5   6
ENDBRANCH   3   5
BRANCH   2  13
ATOM     13  C   UNL     1      34.262 -14.323 -22.115  0.00  0.00    +0.209 C 
BRANCH  13  14
ATOM     14  P   UNL     1      33.400 -13.908 -23.614  0.00  0.00    +0.357 P 
ATOM     15  O   UNL     1      33.327 -15.004 -24.633  0.00  0.00    -0.256 OA
BRANCH  14  16
ATOM     16  O   UNL     1      31.972 -13.353 -23.097  0.00  0.00    -0.322 OA
ATOM     17  H   UNL     1      31.764 -12.522 -23.551  0.00  0.00    +0.220 HD
ENDBRANCH  14  16
BRANCH  14  18
ATOM     18  O   UNL     1      34.156 -12.567 -24.111  0.00  0.00    -0.322 OA
ATOM     19  H   UNL     1      34.729 -12.237 -23.401  0.00  0.00    +0.220 HD
ENDBRANCH  14  18
ENDBRANCH  13  14
ENDBRANCH   2  13
TORSDOF 7
ENDMDL
MODEL 7
REMARK VINA RESULT:      -7.6      9.228     10.877
REMARK  Name = 1950
REMARK  7 active torsions:
REMARK  status: ('A' for Active; 'I' for Inactive)
REMARK    1  A    between atoms: N_2  and  C_13
REMARK    2  A    between atoms: C_3  and  O_5
REMARK    3  A    between atoms: O_5  and  C_6
REMARK    4  A    between atoms: C_6  and  C_7
REMARK    5  A    between atoms: C_13  and  P_14
REMARK    6  A    between atoms: P_14  and  O_16
REMARK    7  A    between atoms: P_14  and  O_18
REMARK                            x       y       z     vdW  Elec       q    Type
REMARK                         _______ _______ _______ _____ _____    ______ ____
ROOT
ATOM      1  O   UNL     1      34.609 -17.846 -25.545  0.00  0.00    -0.226 OA
ATOM      2  N   UNL     1      34.431 -16.594 -23.603  0.00  0.00    -0.260 N 
ATOM      3  C   UNL     1      34.776 -17.708 -24.338  0.00  0.00    +0.402 C 
ATOM      4  H   UNL     1      34.612 -16.597 -22.635  0.00  0.00    +0.153 HD
ENDROOT
BRANCH   3   5
ATOM      5  O   UNL     1      35.333 -18.647 -23.518  0.00  0.00    -0.430 OA
BRANCH   5   6
ATOM      6  C   UNL     1      35.425 -18.290 -22.135  0.00  0.00    +0.237 C 
BRANCH   6   7
ATOM      7  C   UNL     1      34.857 -19.348 -21.249  0.00  0.00    +0.021 C 
ATOM      8  C   UNL     1      33.477 -19.435 -21.062  0.00  0.00    -0.001 C 
ATOM      9  C   UNL     1      35.707 -20.250 -20.608  0.00  0.00    -0.001 C 
ATOM     10  C   UNL     1      32.947 -20.425 -20.234  0.00  0.00    -0.000 C 
ATOM     11  C   UNL     1      35.176 -21.240 -19.780  0.00  0.00    -0.000 C 
ATOM     12  C   UNL     1      33.796 -21.327 -19.593  0.00  0.00    -0.000 C 
ENDBRANCH   6   7
ENDBRANCH   5   6
ENDBRANCH   3   5
BRANCH   2  13
ATOM     13  C   UNL     1      33.817 -15.418 -24.180  0.00  0.00    +0.209 C 
BRANCH  13  14
ATOM     14  P   UNL     1      33.690 -14.197 -22.894  0.00  0.00    +0.357 P 
ATOM     15  O   UNL     1      34.422 -14.525 -21.628  0.00  0.00    -0.256 OA
BRANCH  14  16
ATOM     16  O   UNL     1      34.146 -12.825 -23.617  0.00  0.00    -0.322 OA
ATOM     17  H   UNL     1      33.370 -12.390 -24.003  0.00  0.00    +0.220 HD
ENDBRANCH  14  16
BRANCH  14  18
ATOM     18  O   UNL     1      32.092 -14.010 -22.726  0.00  0.00    -0.322 OA
ATOM     19  H   UNL     1      31.899 -13.095 -22.470  0.00  0.00    +0.220 HD
ENDBRANCH  14  18
ENDBRANCH  13  14
ENDBRANCH   2  13
TORSDOF 7
ENDMDL
MODEL 8
REMARK VINA RESULT:      -7.6      2.064      2.906
REMARK  Name = 1950
REMARK  7 active torsions:
REMARK  status: ('A' for Active; 'I' for Inactive)
REMARK    1  A    between atoms: N_2  and  C_13
REMARK    2  A    between atoms: C_3  and  O_5
REMARK    3  A    between atoms: O_5  and  C_6
REMARK    4  A    between atoms: C_6  and  C_7
REMARK    5  A    between atoms: C_13  and  P_14
REMARK    6  A    between atoms: P_14  and  O_16
REMARK    7  A    between atoms: P_14  and  O_18
REMARK                            x       y       z     vdW  Elec       q    Type
REMARK                         _______ _______ _______ _____ _____    ______ ____
ROOT
ATOM      1  O   UNL     1      34.640 -22.949 -15.451  0.00  0.00    -0.226 OA
ATOM      2  N   UNL     1      36.878 -23.465 -15.763  0.00  0.00    -0.260 N 
ATOM      3  C   UNL     1      35.640 -23.001 -16.157  0.00  0.00    +0.402 C 
ATOM      4  H   UNL     1      37.611 -23.461 -16.421  0.00  0.00    +0.153 HD
ENDROOT
BRANCH   3   5
ATOM      5  O   UNL     1      35.691 -22.605 -17.463  0.00  0.00    -0.430 OA
BRANCH   5   6
ATOM      6  C   UNL     1      34.453 -22.660 -18.180  0.00  0.00    +0.237 C 
BRANCH   6   7
ATOM      7  C   UNL     1      34.365 -21.596 -19.222  0.00  0.00    +0.021 C 
ATOM      8  C   UNL     1      33.121 -21.093 -19.602  0.00  0.00    -0.001 C 
ATOM      9  C   UNL     1      35.528 -21.104 -19.815  0.00  0.00    -0.001 C 
ATOM     10  C   UNL     1      33.039 -20.097 -20.576  0.00  0.00    -0.000 C 
ATOM     11  C   UNL     1      35.446 -20.109 -20.789  0.00  0.00    -0.000 C 
ATOM     12  C   UNL     1      34.202 -19.606 -21.169  0.00  0.00    -0.000 C 
ENDBRANCH   6   7
ENDBRANCH   5   6
ENDBRANCH   3   5
BRANCH   2  13
ATOM     13  C   UNL     1      37.155 -23.958 -14.432  0.00  0.00    +0.209 C 
BRANCH  13  14
ATOM     14  P   UNL     1      38.323 -25.290 -14.590  0.00  0.00    +0.357 P 
ATOM     15  O   UNL     1      38.694 -25.970 -13.307  0.00  0.00    -0.256 OA
BRANCH  14  16
ATOM     16  O   UNL     1      37.665 -26.250 -15.712  0.00  0.00    -0.322 OA
ATOM     17  H   UNL     1      36.726 -26.386 -15.510  0.00  0.00    +0.220 HD
ENDBRANCH  14  16
BRANCH  14  18
ATOM     18  O   UNL     1      39.558 -24.601 -15.376  0.00  0.00    -0.322 OA
ATOM     19  H   UNL     1      39.224 -23.887 -15.940  0.00  0.00    +0.220 HD
ENDBRANCH  14  18
ENDBRANCH  13  14
ENDBRANCH   2  13
TORSDOF 7
ENDMDL
MODEL 9
REMARK VINA RESULT:      -7.6      2.039      2.907
REMARK  Name = 1950
REMARK  7 active torsions:
REMARK  status: ('A' for Active; 'I' for Inactive)
REMARK    1  A    between atoms: N_2  and  C_13
REMARK    2  A    between atoms: C_3  and  O_5
REMARK    3  A    between atoms: O_5  and  C_6
REMARK    4  A    between atoms: C_6  and  C_7
REMARK    5  A    between atoms: C_13  and  P_14
REMARK    6  A    between atoms: P_14  and  O_16
REMARK    7  A    between atoms: P_14  and  O_18
REMARK                            x       y       z     vdW  Elec       q    Type
REMARK                         _______ _______ _______ _____ _____    ______ ____
ROOT
ATOM      1  O   UNL     1      36.038 -26.363 -15.742  0.00  0.00    -0.226 OA
ATOM      2  N   UNL     1      37.318 -25.202 -14.199  0.00  0.00    -0.260 N 
ATOM      3  C   UNL     1      36.190 -25.435 -14.956  0.00  0.00    +0.402 C 
ATOM      4  H   UNL     1      37.327 -24.420 -13.600  0.00  0.00    +0.153 HD
ENDROOT
BRANCH   3   5
ATOM      5  O   UNL     1      35.257 -24.471 -14.702  0.00  0.00    -0.430 OA
BRANCH   5   6
ATOM      6  C   UNL     1      34.590 -23.931 -15.848  0.00  0.00    +0.237 C 
BRANCH   6   7
ATOM      7  C   UNL     1      33.172 -23.576 -15.550  0.00  0.00    +0.021 C 
ATOM      8  C   UNL     1      32.306 -23.232 -16.589  0.00  0.00    -0.001 C 
ATOM      9  C   UNL     1      32.713 -23.587 -14.233  0.00  0.00    -0.001 C 
ATOM     10  C   UNL     1      30.980 -22.901 -16.310  0.00  0.00    -0.000 C 
ATOM     11  C   UNL     1      31.387 -23.255 -13.955  0.00  0.00    -0.000 C 
ATOM     12  C   UNL     1      30.521 -22.911 -14.993  0.00  0.00    -0.000 C 
ENDBRANCH   6   7
ENDBRANCH   5   6
ENDBRANCH   3   5
BRANCH   2  13
ATOM     13  C   UNL     1      38.491 -26.047 -14.238  0.00  0.00    +0.209 C 
BRANCH  13  14
ATOM     14  P   UNL     1      39.830 -25.071 -14.885  0.00  0.00    +0.357 P 
ATOM     15  O   UNL     1      40.861 -24.656 -13.879  0.00  0.00    -0.256 OA
BRANCH  14  16
ATOM     16  O   UNL     1      40.388 -25.953 -16.120  0.00  0.00    -0.322 OA
ATOM     17  H   UNL     1      40.388 -25.415 -16.927  0.00  0.00    +0.220 HD
ENDBRANCH  14  16
BRANCH  14  18
ATOM     18  O   UNL     1      39.068 -23.849 -15.621  0.00  0.00    -0.322 OA
ATOM     19  H   UNL     1      39.461 -23.704 -16.496  0.00  0.00    +0.220 HD
ENDBRANCH  14  18
ENDBRANCH  13  14
ENDBRANCH   2  13
TORSDOF 7
ENDMDL
