MODEL 1
REMARK VINA RESULT:      -4.7      0.000      0.000
REMARK  Name = 6234
REMARK  1 active torsions:
REMARK  status: ('A' for Active; 'I' for Inactive)
REMARK    1  A    between atoms: C_4  and  N_8
REMARK                            x       y       z     vdW  Elec       q    Type
REMARK                         _______ _______ _______ _____ _____    ______ ____
ROOT
ATOM      1  O   UNL     1      37.266 -22.512 -11.519  0.00  0.00    -0.268 OA
ATOM      2  O   UNL     1      35.264 -25.133 -10.382  0.00  0.00    -0.275 OA
ATOM      3  N   UNL     1      36.823 -23.410 -10.525  0.00  0.00    -0.195 N 
ATOM      4  C   UNL     1      35.595 -23.861 -12.426  0.00  0.00    +0.047 C 
ATOM      5  C   UNL     1      36.882 -23.129 -12.750  0.00  0.00    +0.158 C 
ATOM      6  C   UNL     1      35.843 -24.254 -11.003  0.00  0.00    +0.226 C 
ATOM      7  H   UNL     1      37.172 -23.433  -9.604  0.00  0.00    +0.182 HD
ENDROOT
BRANCH   4   8
ATOM      8  N   UNL     1      35.399 -25.041 -13.244  0.00  0.00    +0.389 N 
ATOM      9  H   UNL     1      36.051 -25.023 -14.028  0.00  0.00    -0.088 HD
ATOM     10  H   UNL     1      34.443 -25.055 -13.598  0.00  0.00    -0.088 HD
ATOM     11  H   UNL     1      35.566 -25.875 -12.682  0.00  0.00    -0.088 HD
ENDBRANCH   4   8
TORSDOF 1
ENDMDL
MODEL 2
REMARK VINA RESULT:      -4.5      4.013      4.155
REMARK  Name = 6234
REMARK  1 active torsions:
REMARK  status: ('A' for Active; 'I' for Inactive)
REMARK    1  A    between atoms: C_4  and  N_8
REMARK                            x       y       z     vdW  Elec       q    Type
REMARK                         _______ _______ _______ _____ _____    ______ ____
ROOT
ATOM      1  O   UNL     1      38.236 -23.701 -15.140  0.00  0.00    -0.268 OA
ATOM      2  O   UNL     1      38.562 -27.146 -14.692  0.00  0.00    -0.275 OA
ATOM      3  N   UNL     1      38.983 -24.899 -15.132  0.00  0.00    -0.195 N 
ATOM      4  C   UNL     1      36.828 -25.453 -14.516  0.00  0.00    +0.047 C 
ATOM      5  C   UNL     1      36.878 -24.133 -15.259  0.00  0.00    +0.158 C 
ATOM      6  C   UNL     1      38.202 -25.983 -14.788  0.00  0.00    +0.226 C 
ATOM      7  H   UNL     1      39.942 -24.954 -15.346  0.00  0.00    +0.182 HD
ENDROOT
BRANCH   4   8
ATOM      8  N   UNL     1      35.829 -26.358 -15.046  0.00  0.00    +0.389 N 
ATOM      9  H   UNL     1      36.257 -26.964 -15.746  0.00  0.00    -0.088 HD
ATOM     10  H   UNL     1      35.077 -25.821 -15.478  0.00  0.00    -0.088 HD
ATOM     11  H   UNL     1      35.450 -26.927 -14.290  0.00  0.00    -0.088 HD
ENDBRANCH   4   8
TORSDOF 1
ENDMDL
MODEL 3
REMARK VINA RESULT:      -4.5      3.930      4.439
REMARK  Name = 6234
REMARK  1 active torsions:
REMARK  status: ('A' for Active; 'I' for Inactive)
REMARK    1  A    between atoms: C_4  and  N_8
REMARK                            x       y       z     vdW  Elec       q    Type
REMARK                         _______ _______ _______ _____ _____    ______ ____
ROOT
ATOM      1  O   UNL     1      37.437 -26.236 -12.525  0.00  0.00    -0.268 OA
ATOM      2  O   UNL     1      37.106 -27.039 -15.904  0.00  0.00    -0.275 OA
ATOM      3  N   UNL     1      36.977 -27.054 -13.580  0.00  0.00    -0.195 N 
ATOM      4  C   UNL     1      38.104 -25.287 -14.548  0.00  0.00    +0.047 C 
ATOM      5  C   UNL     1      38.509 -25.486 -13.101  0.00  0.00    +0.158 C 
ATOM      6  C   UNL     1      37.356 -26.558 -14.810  0.00  0.00    +0.226 C 
ATOM      7  H   UNL     1      36.452 -27.877 -13.453  0.00  0.00    +0.182 HD
ENDROOT
BRANCH   4   8
ATOM      8  N   UNL     1      39.242 -25.185 -15.440  0.00  0.00    +0.389 N 
ATOM      9  H   UNL     1      39.193 -24.304 -15.952  0.00  0.00    -0.088 HD
ATOM     10  H   UNL     1      39.228 -25.962 -16.100  0.00  0.00    -0.088 HD
ATOM     11  H   UNL     1      40.104 -25.215 -14.897  0.00  0.00    -0.088 HD
ENDBRANCH   4   8
TORSDOF 1
ENDMDL
MODEL 4
REMARK VINA RESULT:      -4.5      3.422      3.916
REMARK  Name = 6234
REMARK  1 active torsions:
REMARK  status: ('A' for Active; 'I' for Inactive)
REMARK    1  A    between atoms: C_4  and  N_8
REMARK                            x       y       z     vdW  Elec       q    Type
REMARK                         _______ _______ _______ _____ _____    ______ ____
ROOT
ATOM      1  O   UNL     1      38.001 -27.148 -14.658  0.00  0.00    -0.268 OA
ATOM      2  O   UNL     1      36.596 -26.023 -11.670  0.00  0.00    -0.275 OA
ATOM      3  N   UNL     1      36.978 -27.122 -13.687  0.00  0.00    -0.195 N 
ATOM      4  C   UNL     1      38.631 -25.687 -12.954  0.00  0.00    +0.047 C 
ATOM      5  C   UNL     1      38.721 -25.931 -14.447  0.00  0.00    +0.158 C 
ATOM      6  C   UNL     1      37.279 -26.257 -12.655  0.00  0.00    +0.226 C 
ATOM      7  H   UNL     1      36.150 -27.653 -13.739  0.00  0.00    +0.182 HD
ENDROOT
BRANCH   4   8
ATOM      8  N   UNL     1      38.666 -24.279 -12.613  0.00  0.00    +0.389 N 
ATOM      9  H   UNL     1      38.223 -23.738 -13.355  0.00  0.00    -0.088 HD
ATOM     10  H   UNL     1      39.634 -23.978 -12.506  0.00  0.00    -0.088 HD
ATOM     11  H   UNL     1      38.164 -24.129 -11.738  0.00  0.00    -0.088 HD
ENDBRANCH   4   8
TORSDOF 1
ENDMDL
MODEL 5
REMARK VINA RESULT:      -4.4     10.704     11.611
REMARK  Name = 6234
REMARK  1 active torsions:
REMARK  status: ('A' for Active; 'I' for Inactive)
REMARK    1  A    between atoms: C_4  and  N_8
REMARK                            x       y       z     vdW  Elec       q    Type
REMARK                         _______ _______ _______ _____ _____    ______ ____
ROOT
ATOM      1  O   UNL     1      41.037 -16.119 -16.500  0.00  0.00    -0.268 OA
ATOM      2  O   UNL     1      40.679 -13.835 -13.888  0.00  0.00    -0.275 OA
ATOM      3  N   UNL     1      40.445 -15.671 -15.300  0.00  0.00    -0.195 N 
ATOM      4  C   UNL     1      42.040 -14.107 -15.883  0.00  0.00    +0.047 C 
ATOM      5  C   UNL     1      41.611 -14.942 -17.073  0.00  0.00    +0.158 C 
ATOM      6  C   UNL     1      40.982 -14.469 -14.887  0.00  0.00    +0.226 C 
ATOM      7  H   UNL     1      39.737 -16.156 -14.817  0.00  0.00    +0.182 HD
ENDROOT
BRANCH   4   8
ATOM      8  N   UNL     1      42.004 -12.683 -16.154  0.00  0.00    +0.389 N 
ATOM      9  H   UNL     1      42.380 -12.176 -15.353  0.00  0.00    -0.088 HD
ATOM     10  H   UNL     1      41.040 -12.392 -16.317  0.00  0.00    -0.088 HD
ATOM     11  H   UNL     1      42.566 -12.480 -16.980  0.00  0.00    -0.088 HD
ENDBRANCH   4   8
TORSDOF 1
ENDMDL
MODEL 6
REMARK VINA RESULT:      -4.4      3.445      3.941
REMARK  Name = 6234
REMARK  1 active torsions:
REMARK  status: ('A' for Active; 'I' for Inactive)
REMARK    1  A    between atoms: C_4  and  N_8
REMARK                            x       y       z     vdW  Elec       q    Type
REMARK                         _______ _______ _______ _____ _____    ______ ____
ROOT
ATOM      1  O   UNL     1      38.666 -26.931 -14.654  0.00  0.00    -0.268 OA
ATOM      2  O   UNL     1      38.743 -24.218 -12.463  0.00  0.00    -0.275 OA
ATOM      3  N   UNL     1      39.334 -26.036 -13.791  0.00  0.00    -0.195 N 
ATOM      4  C   UNL     1      37.111 -25.412 -13.811  0.00  0.00    +0.047 C 
ATOM      5  C   UNL     1      37.295 -26.848 -14.258  0.00  0.00    +0.158 C 
ATOM      6  C   UNL     1      38.464 -25.118 -13.240  0.00  0.00    +0.226 C 
ATOM      7  H   UNL     1      40.300 -26.064 -13.604  0.00  0.00    +0.182 HD
ENDROOT
BRANCH   4   8
ATOM      8  N   UNL     1      36.095 -25.267 -12.788  0.00  0.00    +0.389 N 
ATOM      9  H   UNL     1      36.217 -25.994 -12.083  0.00  0.00    -0.088 HD
ATOM     10  H   UNL     1      35.172 -25.357 -13.211  0.00  0.00    -0.088 HD
ATOM     11  H   UNL     1      36.182 -24.351 -12.350  0.00  0.00    -0.088 HD
ENDBRANCH   4   8
TORSDOF 1
ENDMDL
MODEL 7
REMARK VINA RESULT:      -4.3      7.976      8.716
REMARK  Name = 6234
REMARK  1 active torsions:
REMARK  status: ('A' for Active; 'I' for Inactive)
REMARK    1  A    between atoms: C_4  and  N_8
REMARK                            x       y       z     vdW  Elec       q    Type
REMARK                         _______ _______ _______ _____ _____    ______ ____
ROOT
ATOM      1  O   UNL     1      32.748 -20.955 -20.361  0.00  0.00    -0.268 OA
ATOM      2  O   UNL     1      34.732 -22.839 -18.196  0.00  0.00    -0.275 OA
ATOM      3  N   UNL     1      32.926 -21.878 -19.308  0.00  0.00    -0.195 N 
ATOM      4  C   UNL     1      35.034 -21.270 -20.026  0.00  0.00    +0.047 C 
ATOM      5  C   UNL     1      33.989 -20.248 -20.425  0.00  0.00    +0.158 C 
ATOM      6  C   UNL     1      34.263 -22.095 -19.044  0.00  0.00    +0.226 C 
ATOM      7  H   UNL     1      32.188 -22.311 -18.820  0.00  0.00    +0.182 HD
ENDROOT
BRANCH   4   8
ATOM      8  N   UNL     1      36.186 -20.672 -19.381  0.00  0.00    +0.389 N 
ATOM      9  H   UNL     1      35.957 -20.453 -18.411  0.00  0.00    -0.088 HD
ATOM     10  H   UNL     1      36.444 -19.816 -19.870  0.00  0.00    -0.088 HD
ATOM     11  H   UNL     1      36.967 -21.327 -19.406  0.00  0.00    -0.088 HD
ENDBRANCH   4   8
TORSDOF 1
ENDMDL
MODEL 8
REMARK VINA RESULT:      -4.3      4.029      4.177
REMARK  Name = 6234
REMARK  1 active torsions:
REMARK  status: ('A' for Active; 'I' for Inactive)
REMARK    1  A    between atoms: C_4  and  N_8
REMARK                            x       y       z     vdW  Elec       q    Type
REMARK                         _______ _______ _______ _____ _____    ______ ____
ROOT
ATOM      1  O   UNL     1      39.117 -24.429 -14.893  0.00  0.00    -0.268 OA
ATOM      2  O   UNL     1      35.793 -25.340 -15.435  0.00  0.00    -0.275 OA
ATOM      3  N   UNL     1      37.808 -24.175 -15.354  0.00  0.00    -0.195 N 
ATOM      4  C   UNL     1      37.814 -26.325 -14.513  0.00  0.00    +0.047 C 
ATOM      5  C   UNL     1      38.962 -25.503 -13.962  0.00  0.00    +0.158 C 
ATOM      6  C   UNL     1      36.976 -25.255 -15.142  0.00  0.00    +0.226 C 
ATOM      7  H   UNL     1      37.522 -23.332 -15.775  0.00  0.00    +0.182 HD
ENDROOT
BRANCH   4   8
ATOM      8  N   UNL     1      37.063 -27.005 -13.477  0.00  0.00    +0.389 N 
ATOM      9  H   UNL     1      36.182 -27.345 -13.864  0.00  0.00    -0.088 HD
ATOM     10  H   UNL     1      36.870 -26.356 -12.715  0.00  0.00    -0.088 HD
ATOM     11  H   UNL     1      37.606 -27.793 -13.125  0.00  0.00    -0.088 HD
ENDBRANCH   4   8
TORSDOF 1
ENDMDL
MODEL 9
REMARK VINA RESULT:      -4.3      3.865      4.501
REMARK  Name = 6234
REMARK  1 active torsions:
REMARK  status: ('A' for Active; 'I' for Inactive)
REMARK    1  A    between atoms: C_4  and  N_8
REMARK                            x       y       z     vdW  Elec       q    Type
REMARK                         _______ _______ _______ _____ _____    ______ ____
ROOT
ATOM      1  O   UNL     1      35.473 -25.440 -15.507  0.00  0.00    -0.268 OA
ATOM      2  O   UNL     1      38.262 -27.329 -14.600  0.00  0.00    -0.275 OA
ATOM      3  N   UNL     1      36.149 -26.664 -15.316  0.00  0.00    -0.195 N 
ATOM      4  C   UNL     1      37.636 -24.987 -14.762  0.00  0.00    +0.047 C 
ATOM      5  C   UNL     1      36.200 -24.506 -14.705  0.00  0.00    +0.158 C 
ATOM      6  C   UNL     1      37.434 -26.468 -14.855  0.00  0.00    +0.226 C 
ATOM      7  H   UNL     1      35.752 -27.549 -15.488  0.00  0.00    +0.182 HD
ENDROOT
BRANCH   4   8
ATOM      8  N   UNL     1      38.386 -24.658 -13.567  0.00  0.00    +0.389 N 
ATOM      9  H   UNL     1      38.551 -23.652 -13.534  0.00  0.00    -0.088 HD
ATOM     10  H   UNL     1      39.280 -25.148 -13.580  0.00  0.00    -0.088 HD
ATOM     11  H   UNL     1      37.855 -24.942 -12.743  0.00  0.00    -0.088 HD
ENDBRANCH   4   8
TORSDOF 1
ENDMDL
