MODEL 1
REMARK VINA RESULT:     -10.2      0.000      0.000
REMARK  Name = 448110
REMARK  6 active torsions:
REMARK  status: ('A' for Active; 'I' for Inactive)
REMARK    1  A    between atoms: N_2  and  C_20
REMARK    2  A    between atoms: N_6  and  C_14
REMARK    3  A    between atoms: C_20  and  C_21
REMARK    4  A    between atoms: C_21  and  C_22
REMARK    5  A    between atoms: C_22  and  C_23
REMARK    6  A    between atoms: C_23  and  O_24
REMARK                            x       y       z     vdW  Elec       q    Type
REMARK                         _______ _______ _______ _____ _____    ______ ____
ROOT
ATOM      1  O   UNL     1      35.737 -24.005 -15.730  0.00  0.00    -0.208 OA
ATOM      2  N   UNL     1      31.326 -23.955 -14.743  0.00  0.00    -0.232 NA
ATOM      3  N   UNL     1      31.973 -23.024 -16.895  0.00  0.00    -0.279 N 
ATOM      4  N   UNL     1      33.379 -24.524 -14.037  0.00  0.00    -0.241 NA
ATOM      5  N   UNL     1      34.334 -23.093 -17.333  0.00  0.00    -0.301 NA
ATOM      6  N   UNL     1      32.805 -22.192 -18.884  0.00  0.00    -0.275 N 
ATOM      7  C   UNL     1      32.202 -23.604 -15.713  0.00  0.00    +0.189 C 
ATOM      8  C   UNL     1      33.446 -23.953 -15.276  0.00  0.00    +0.183 C 
ATOM      9  C   UNL     1      32.091 -24.512 -13.741  0.00  0.00    +0.203 C 
ATOM     10  C   UNL     1      33.098 -22.786 -17.682  0.00  0.00    +0.252 C 
ATOM     11  C   UNL     1      34.611 -23.701 -16.102  0.00  0.00    +0.224 C 
ATOM     12  H   UNL     1      31.067 -22.781 -17.190  0.00  0.00    +0.152 HD
ATOM     13  H   UNL     1      31.924 -22.396 -19.274  0.00  0.00    +0.156 HD
ENDROOT
BRANCH   6  14
ATOM     14  C   UNL     1      33.623 -21.327 -19.609  0.00  0.00    +0.051 C 
ATOM     15  C   UNL     1      33.068 -20.262 -20.337  0.00  0.00    +0.015 C 
ATOM     16  C   UNL     1      35.015 -21.505 -19.626  0.00  0.00    +0.015 C 
ATOM     17  C   UNL     1      33.887 -19.398 -21.064  0.00  0.00    +0.001 C 
ATOM     18  C   UNL     1      35.832 -20.641 -20.353  0.00  0.00    +0.001 C 
ATOM     19  C   UNL     1      35.268 -19.587 -21.072  0.00  0.00    +0.000 C 
ENDBRANCH   6  14
BRANCH   2  20
ATOM     20  C   UNL     1      29.894 -23.793 -14.736  0.00  0.00    +0.076 C 
BRANCH  20  21
ATOM     21  C   UNL     1      29.167 -24.654 -15.772  0.00  0.00    +0.020 C 
BRANCH  21  22
ATOM     22  C   UNL     1      28.300 -23.836 -16.729  0.00  0.00    +0.033 C 
BRANCH  22  23
ATOM     23  C   UNL     1      27.952 -22.474 -16.145  0.00  0.00    +0.137 C 
BRANCH  23  24
ATOM     24  O   UNL     1      27.454 -21.643 -17.184  0.00  0.00    -0.382 OA
ATOM     25  H   UNL     1      26.528 -21.869 -17.363  0.00  0.00    +0.210 HD
ENDBRANCH  23  24
ENDBRANCH  22  23
ENDBRANCH  21  22
ENDBRANCH  20  21
ENDBRANCH   2  20
TORSDOF 6
ENDMDL
MODEL 2
REMARK VINA RESULT:     -10.0      6.248      9.826
REMARK  Name = 448110
REMARK  6 active torsions:
REMARK  status: ('A' for Active; 'I' for Inactive)
REMARK    1  A    between atoms: N_2  and  C_20
REMARK    2  A    between atoms: N_6  and  C_14
REMARK    3  A    between atoms: C_20  and  C_21
REMARK    4  A    between atoms: C_21  and  C_22
REMARK    5  A    between atoms: C_22  and  C_23
REMARK    6  A    between atoms: C_23  and  O_24
REMARK                            x       y       z     vdW  Elec       q    Type
REMARK                         _______ _______ _______ _____ _____    ______ ____
ROOT
ATOM      1  O   UNL     1      34.555 -18.941 -25.819  0.00  0.00    -0.208 OA
ATOM      2  N   UNL     1      33.810 -14.749 -24.299  0.00  0.00    -0.232 NA
ATOM      3  N   UNL     1      34.685 -16.353 -22.693  0.00  0.00    -0.279 N 
ATOM      4  N   UNL     1      33.712 -16.127 -26.069  0.00  0.00    -0.241 NA
ATOM      5  N   UNL     1      35.050 -18.552 -23.589  0.00  0.00    -0.301 NA
ATOM      6  N   UNL     1      35.515 -18.030 -21.337  0.00  0.00    -0.275 N 
ATOM      7  C   UNL     1      34.254 -15.963 -23.895  0.00  0.00    +0.189 C 
ATOM      8  C   UNL     1      34.191 -16.793 -24.976  0.00  0.00    +0.183 C 
ATOM      9  C   UNL     1      33.491 -14.899 -25.631  0.00  0.00    +0.203 C 
ATOM     10  C   UNL     1      35.080 -17.686 -22.592  0.00  0.00    +0.252 C 
ATOM     11  C   UNL     1      34.603 -18.178 -24.862  0.00  0.00    +0.224 C 
ATOM     12  H   UNL     1      34.723 -15.737 -21.926  0.00  0.00    +0.152 HD
ATOM     13  H   UNL     1      35.935 -17.317 -20.805  0.00  0.00    +0.156 HD
ENDROOT
BRANCH   6  14
ATOM     14  C   UNL     1      35.424 -19.286 -20.738  0.00  0.00    +0.051 C 
ATOM     15  C   UNL     1      34.173 -19.885 -20.523  0.00  0.00    +0.015 C 
ATOM     16  C   UNL     1      36.581 -19.972 -20.337  0.00  0.00    +0.015 C 
ATOM     17  C   UNL     1      34.082 -21.140 -19.922  0.00  0.00    +0.001 C 
ATOM     18  C   UNL     1      36.489 -21.227 -19.736  0.00  0.00    +0.001 C 
ATOM     19  C   UNL     1      35.239 -21.812 -19.528  0.00  0.00    +0.000 C 
ENDBRANCH   6  14
BRANCH   2  20
ATOM     20  C   UNL     1      33.688 -13.543 -23.520  0.00  0.00    +0.076 C 
BRANCH  20  21
ATOM     21  C   UNL     1      32.305 -13.344 -22.896  0.00  0.00    +0.020 C 
BRANCH  21  22
ATOM     22  C   UNL     1      32.351 -13.161 -21.379  0.00  0.00    +0.033 C 
BRANCH  22  23
ATOM     23  C   UNL     1      32.781 -14.439 -20.673  0.00  0.00    +0.137 C 
BRANCH  23  24
ATOM     24  O   UNL     1      32.062 -15.533 -21.225  0.00  0.00    -0.382 OA
ATOM     25  H   UNL     1      32.687 -16.176 -21.595  0.00  0.00    +0.210 HD
ENDBRANCH  23  24
ENDBRANCH  22  23
ENDBRANCH  21  22
ENDBRANCH  20  21
ENDBRANCH   2  20
TORSDOF 6
ENDMDL
MODEL 3
REMARK VINA RESULT:      -9.9      6.505     10.119
REMARK  Name = 448110
REMARK  6 active torsions:
REMARK  status: ('A' for Active; 'I' for Inactive)
REMARK    1  A    between atoms: N_2  and  C_20
REMARK    2  A    between atoms: N_6  and  C_14
REMARK    3  A    between atoms: C_20  and  C_21
REMARK    4  A    between atoms: C_21  and  C_22
REMARK    5  A    between atoms: C_22  and  C_23
REMARK    6  A    between atoms: C_23  and  O_24
REMARK                            x       y       z     vdW  Elec       q    Type
REMARK                         _______ _______ _______ _____ _____    ______ ____
ROOT
ATOM      1  O   UNL     1      34.534 -18.854 -25.804  0.00  0.00    -0.208 OA
ATOM      2  N   UNL     1      33.853 -14.673 -24.226  0.00  0.00    -0.232 NA
ATOM      3  N   UNL     1      34.714 -16.310 -22.645  0.00  0.00    -0.279 N 
ATOM      4  N   UNL     1      33.728 -16.025 -26.013  0.00  0.00    -0.241 NA
ATOM      5  N   UNL     1      35.045 -18.501 -23.572  0.00  0.00    -0.301 NA
ATOM      6  N   UNL     1      35.527 -18.016 -21.316  0.00  0.00    -0.275 N 
ATOM      7  C   UNL     1      34.282 -15.897 -23.841  0.00  0.00    +0.189 C 
ATOM      8  C   UNL     1      34.203 -16.712 -24.932  0.00  0.00    +0.183 C 
ATOM      9  C   UNL     1      33.526 -14.801 -25.558  0.00  0.00    +0.203 C 
ATOM     10  C   UNL     1      35.091 -17.648 -22.564  0.00  0.00    +0.252 C 
ATOM     11  C   UNL     1      34.597 -18.104 -24.838  0.00  0.00    +0.224 C 
ATOM     12  H   UNL     1      34.763 -15.704 -21.871  0.00  0.00    +0.152 HD
ATOM     13  H   UNL     1      35.959 -17.314 -20.776  0.00  0.00    +0.156 HD
ENDROOT
BRANCH   6  14
ATOM     14  C   UNL     1      35.422 -19.277 -20.733  0.00  0.00    +0.051 C 
ATOM     15  C   UNL     1      36.572 -19.982 -20.343  0.00  0.00    +0.015 C 
ATOM     16  C   UNL     1      34.165 -19.867 -20.525  0.00  0.00    +0.015 C 
ATOM     17  C   UNL     1      36.467 -21.245 -19.760  0.00  0.00    +0.001 C 
ATOM     18  C   UNL     1      34.061 -21.129 -19.942  0.00  0.00    +0.001 C 
ATOM     19  C   UNL     1      35.212 -21.819 -19.560  0.00  0.00    +0.000 C 
ENDBRANCH   6  14
BRANCH   2  20
ATOM     20  C   UNL     1      33.751 -13.475 -23.431  0.00  0.00    +0.076 C 
BRANCH  20  21
ATOM     21  C   UNL     1      32.343 -13.204 -22.895  0.00  0.00    +0.020 C 
BRANCH  21  22
ATOM     22  C   UNL     1      32.296 -13.068 -21.374  0.00  0.00    +0.033 C 
BRANCH  22  23
ATOM     23  C   UNL     1      31.510 -11.836 -20.945  0.00  0.00    +0.137 C 
BRANCH  23  24
ATOM     24  O   UNL     1      30.561 -11.522 -21.955  0.00  0.00    -0.382 OA
ATOM     25  H   UNL     1      29.837 -11.005 -21.569  0.00  0.00    +0.210 HD
ENDBRANCH  23  24
ENDBRANCH  22  23
ENDBRANCH  21  22
ENDBRANCH  20  21
ENDBRANCH   2  20
TORSDOF 6
ENDMDL
MODEL 4
REMARK VINA RESULT:      -9.7      1.583      2.309
REMARK  Name = 448110
REMARK  6 active torsions:
REMARK  status: ('A' for Active; 'I' for Inactive)
REMARK    1  A    between atoms: N_2  and  C_20
REMARK    2  A    between atoms: N_6  and  C_14
REMARK    3  A    between atoms: C_20  and  C_21
REMARK    4  A    between atoms: C_21  and  C_22
REMARK    5  A    between atoms: C_22  and  C_23
REMARK    6  A    between atoms: C_23  and  O_24
REMARK                            x       y       z     vdW  Elec       q    Type
REMARK                         _______ _______ _______ _____ _____    ______ ____
ROOT
ATOM      1  O   UNL     1      37.490 -22.423 -15.494  0.00  0.00    -0.208 OA
ATOM      2  N   UNL     1      33.566 -24.232 -14.168  0.00  0.00    -0.232 NA
ATOM      3  N   UNL     1      33.671 -23.408 -16.454  0.00  0.00    -0.279 N 
ATOM      4  N   UNL     1      35.667 -23.714 -13.571  0.00  0.00    -0.241 NA
ATOM      5  N   UNL     1      35.792 -22.465 -17.070  0.00  0.00    -0.301 NA
ATOM      6  N   UNL     1      33.987 -22.567 -18.583  0.00  0.00    -0.275 N 
ATOM      7  C   UNL     1      34.164 -23.658 -15.238  0.00  0.00    +0.189 C 
ATOM      8  C   UNL     1      35.439 -23.347 -14.867  0.00  0.00    +0.183 C 
ATOM      9  C   UNL     1      34.522 -24.244 -13.176  0.00  0.00    +0.203 C 
ATOM     10  C   UNL     1      34.545 -22.798 -17.351  0.00  0.00    +0.252 C 
ATOM     11  C   UNL     1      36.342 -22.712 -15.806  0.00  0.00    +0.224 C 
ATOM     12  H   UNL     1      32.747 -23.642 -16.702  0.00  0.00    +0.152 HD
ATOM     13  H   UNL     1      33.290 -23.197 -18.876  0.00  0.00    +0.156 HD
ENDROOT
BRANCH   6  14
ATOM     14  C   UNL     1      34.305 -21.533 -19.463  0.00  0.00    +0.051 C 
ATOM     15  C   UNL     1      35.638 -21.291 -19.829  0.00  0.00    +0.015 C 
ATOM     16  C   UNL     1      33.297 -20.715 -19.998  0.00  0.00    +0.015 C 
ATOM     17  C   UNL     1      35.956 -20.256 -20.708  0.00  0.00    +0.001 C 
ATOM     18  C   UNL     1      33.615 -19.680 -20.876  0.00  0.00    +0.001 C 
ATOM     19  C   UNL     1      34.945 -19.450 -21.232  0.00  0.00    +0.000 C 
ENDBRANCH   6  14
BRANCH   2  20
ATOM     20  C   UNL     1      32.219 -24.733 -14.064  0.00  0.00    +0.076 C 
BRANCH  20  21
ATOM     21  C   UNL     1      31.225 -23.724 -13.483  0.00  0.00    +0.020 C 
BRANCH  21  22
ATOM     22  C   UNL     1      30.693 -22.739 -14.523  0.00  0.00    +0.033 C 
BRANCH  22  23
ATOM     23  C   UNL     1      30.271 -23.448 -15.803  0.00  0.00    +0.137 C 
BRANCH  23  24
ATOM     24  O   UNL     1      30.820 -22.756 -16.914  0.00  0.00    -0.382 OA
ATOM     25  H   UNL     1      30.905 -23.364 -17.665  0.00  0.00    +0.210 HD
ENDBRANCH  23  24
ENDBRANCH  22  23
ENDBRANCH  21  22
ENDBRANCH  20  21
ENDBRANCH   2  20
TORSDOF 6
ENDMDL
MODEL 5
REMARK VINA RESULT:      -9.6      7.608     11.023
REMARK  Name = 448110
REMARK  6 active torsions:
REMARK  status: ('A' for Active; 'I' for Inactive)
REMARK    1  A    between atoms: N_2  and  C_20
REMARK    2  A    between atoms: N_6  and  C_14
REMARK    3  A    between atoms: C_20  and  C_21
REMARK    4  A    between atoms: C_21  and  C_22
REMARK    5  A    between atoms: C_22  and  C_23
REMARK    6  A    between atoms: C_23  and  O_24
REMARK                            x       y       z     vdW  Elec       q    Type
REMARK                         _______ _______ _______ _____ _____    ______ ____
ROOT
ATOM      1  O   UNL     1      33.330 -14.888 -27.036  0.00  0.00    -0.208 OA
ATOM      2  N   UNL     1      34.668 -17.414 -23.534  0.00  0.00    -0.232 NA
ATOM      3  N   UNL     1      33.664 -15.262 -23.007  0.00  0.00    -0.279 N 
ATOM      4  N   UNL     1      34.514 -17.273 -25.769  0.00  0.00    -0.241 NA
ATOM      5  N   UNL     1      32.984 -13.991 -24.928  0.00  0.00    -0.301 NA
ATOM      6  N   UNL     1      32.684 -13.188 -22.732  0.00  0.00    -0.275 N 
ATOM      7  C   UNL     1      34.091 -16.226 -23.828  0.00  0.00    +0.189 C 
ATOM      8  C   UNL     1      34.001 -16.148 -25.187  0.00  0.00    +0.183 C 
ATOM      9  C   UNL     1      34.909 -18.016 -24.750  0.00  0.00    +0.203 C 
ATOM     10  C   UNL     1      33.107 -14.143 -23.622  0.00  0.00    +0.252 C 
ATOM     11  C   UNL     1      33.420 -14.980 -25.818  0.00  0.00    +0.224 C 
ATOM     12  H   UNL     1      33.738 -15.339 -22.029  0.00  0.00    +0.152 HD
ATOM     13  H   UNL     1      32.382 -13.508 -21.851  0.00  0.00    +0.156 HD
ENDROOT
BRANCH   6  14
ATOM     14  C   UNL     1      32.639 -11.811 -22.944  0.00  0.00    +0.051 C 
ATOM     15  C   UNL     1      33.617 -11.177 -23.728  0.00  0.00    +0.015 C 
ATOM     16  C   UNL     1      31.618 -11.033 -22.377  0.00  0.00    +0.015 C 
ATOM     17  C   UNL     1      33.572  -9.799 -23.939  0.00  0.00    +0.001 C 
ATOM     18  C   UNL     1      31.574  -9.655 -22.589  0.00  0.00    +0.001 C 
ATOM     19  C   UNL     1      32.552  -9.038 -23.370  0.00  0.00    +0.000 C 
ENDBRANCH   6  14
BRANCH   2  20
ATOM     20  C   UNL     1      34.976 -17.957 -22.235  0.00  0.00    +0.076 C 
BRANCH  20  21
ATOM     21  C   UNL     1      34.770 -19.470 -22.131  0.00  0.00    +0.020 C 
BRANCH  21  22
ATOM     22  C   UNL     1      34.370 -19.926 -20.727  0.00  0.00    +0.033 C 
BRANCH  22  23
ATOM     23  C   UNL     1      32.859 -20.048 -20.586  0.00  0.00    +0.137 C 
BRANCH  23  24
ATOM     24  O   UNL     1      32.566 -20.813 -19.425  0.00  0.00    -0.382 OA
ATOM     25  H   UNL     1      32.485 -20.222 -18.661  0.00  0.00    +0.210 HD
ENDBRANCH  23  24
ENDBRANCH  22  23
ENDBRANCH  21  22
ENDBRANCH  20  21
ENDBRANCH   2  20
TORSDOF 6
ENDMDL
MODEL 6
REMARK VINA RESULT:      -9.3      1.902      3.063
REMARK  Name = 448110
REMARK  6 active torsions:
REMARK  status: ('A' for Active; 'I' for Inactive)
REMARK    1  A    between atoms: N_2  and  C_20
REMARK    2  A    between atoms: N_6  and  C_14
REMARK    3  A    between atoms: C_20  and  C_21
REMARK    4  A    between atoms: C_21  and  C_22
REMARK    5  A    between atoms: C_22  and  C_23
REMARK    6  A    between atoms: C_23  and  O_24
REMARK                            x       y       z     vdW  Elec       q    Type
REMARK                         _______ _______ _______ _____ _____    ______ ____
ROOT
ATOM      1  O   UNL     1      36.911 -22.057 -18.555  0.00  0.00    -0.208 OA
ATOM      2  N   UNL     1      32.667 -22.865 -17.227  0.00  0.00    -0.232 NA
ATOM      3  N   UNL     1      32.945 -21.501 -19.221  0.00  0.00    -0.279 N 
ATOM      4  N   UNL     1      34.843 -23.212 -16.800  0.00  0.00    -0.241 NA
ATOM      5  N   UNL     1      35.232 -21.125 -19.852  0.00  0.00    -0.301 NA
ATOM      6  N   UNL     1      33.435 -20.232 -21.089  0.00  0.00    -0.275 N 
ATOM      7  C   UNL     1      33.376 -22.225 -18.185  0.00  0.00    +0.189 C 
ATOM      8  C   UNL     1      34.697 -22.441 -17.918  0.00  0.00    +0.183 C 
ATOM      9  C   UNL     1      33.604 -23.451 -16.405  0.00  0.00    +0.203 C 
ATOM     10  C   UNL     1      33.934 -20.963 -20.041  0.00  0.00    +0.252 C 
ATOM     11  C   UNL     1      35.720 -21.876 -18.776  0.00  0.00    +0.224 C 
ATOM     12  H   UNL     1      31.987 -21.358 -19.396  0.00  0.00    +0.152 HD
ATOM     13  H   UNL     1      32.556 -20.506 -21.438  0.00  0.00    +0.156 HD
ENDROOT
BRANCH   6  14
ATOM     14  C   UNL     1      34.041 -19.142 -21.711  0.00  0.00    +0.051 C 
ATOM     15  C   UNL     1      34.647 -19.284 -22.970  0.00  0.00    +0.015 C 
ATOM     16  C   UNL     1      34.058 -17.883 -21.091  0.00  0.00    +0.015 C 
ATOM     17  C   UNL     1      35.255 -18.194 -23.591  0.00  0.00    +0.001 C 
ATOM     18  C   UNL     1      34.666 -16.793 -21.713  0.00  0.00    +0.001 C 
ATOM     19  C   UNL     1      35.265 -16.948 -22.964  0.00  0.00    +0.000 C 
ENDBRANCH   6  14
BRANCH   2  20
ATOM     20  C   UNL     1      31.235 -22.934 -17.076  0.00  0.00    +0.076 C 
BRANCH  20  21
ATOM     21  C   UNL     1      30.775 -23.210 -15.642  0.00  0.00    +0.020 C 
BRANCH  21  22
ATOM     22  C   UNL     1      29.316 -22.825 -15.396  0.00  0.00    +0.033 C 
BRANCH  22  23
ATOM     23  C   UNL     1      28.456 -23.067 -16.629  0.00  0.00    +0.137 C 
BRANCH  23  24
ATOM     24  O   UNL     1      27.787 -21.860 -16.967  0.00  0.00    -0.382 OA
ATOM     25  H   UNL     1      28.076 -21.153 -16.370  0.00  0.00    +0.210 HD
ENDBRANCH  23  24
ENDBRANCH  22  23
ENDBRANCH  21  22
ENDBRANCH  20  21
ENDBRANCH   2  20
TORSDOF 6
ENDMDL
MODEL 7
REMARK VINA RESULT:      -9.1      2.950      6.666
REMARK  Name = 448110
REMARK  6 active torsions:
REMARK  status: ('A' for Active; 'I' for Inactive)
REMARK    1  A    between atoms: N_2  and  C_20
REMARK    2  A    between atoms: N_6  and  C_14
REMARK    3  A    between atoms: C_20  and  C_21
REMARK    4  A    between atoms: C_21  and  C_22
REMARK    5  A    between atoms: C_22  and  C_23
REMARK    6  A    between atoms: C_23  and  O_24
REMARK                            x       y       z     vdW  Elec       q    Type
REMARK                         _______ _______ _______ _____ _____    ______ ____
ROOT
ATOM      1  O   UNL     1      34.479 -22.709 -18.403  0.00  0.00    -0.208 OA
ATOM      2  N   UNL     1      36.446 -23.246 -14.369  0.00  0.00    -0.232 NA
ATOM      3  N   UNL     1      34.076 -23.776 -14.507  0.00  0.00    -0.279 N 
ATOM      4  N   UNL     1      36.740 -22.642 -16.511  0.00  0.00    -0.241 NA
ATOM      5  N   UNL     1      33.117 -23.461 -16.687  0.00  0.00    -0.301 NA
ATOM      6  N   UNL     1      31.837 -24.223 -14.860  0.00  0.00    -0.275 N 
ATOM      7  C   UNL     1      35.253 -23.374 -14.995  0.00  0.00    +0.189 C 
ATOM      8  C   UNL     1      35.440 -23.006 -16.295  0.00  0.00    +0.183 C 
ATOM      9  C   UNL     1      37.321 -22.796 -15.333  0.00  0.00    +0.203 C 
ATOM     10  C   UNL     1      33.019 -23.802 -15.414  0.00  0.00    +0.252 C 
ATOM     11  C   UNL     1      34.335 -23.035 -17.232  0.00  0.00    +0.224 C 
ATOM     12  H   UNL     1      33.964 -24.038 -13.565  0.00  0.00    +0.152 HD
ATOM     13  H   UNL     1      31.903 -24.861 -14.112  0.00  0.00    +0.156 HD
ENDROOT
BRANCH   6  14
ATOM     14  C   UNL     1      30.552 -23.843 -15.244  0.00  0.00    +0.051 C 
ATOM     15  C   UNL     1      30.039 -22.589 -14.877  0.00  0.00    +0.015 C 
ATOM     16  C   UNL     1      29.748 -24.706 -16.003  0.00  0.00    +0.015 C 
ATOM     17  C   UNL     1      28.753 -22.208 -15.260  0.00  0.00    +0.001 C 
ATOM     18  C   UNL     1      28.462 -24.326 -16.386  0.00  0.00    +0.001 C 
ATOM     19  C   UNL     1      27.964 -23.076 -16.015  0.00  0.00    +0.000 C 
ENDBRANCH   6  14
BRANCH   2  20
ATOM     20  C   UNL     1      36.760 -23.515 -12.988  0.00  0.00    +0.076 C 
BRANCH  20  21
ATOM     21  C   UNL     1      36.728 -25.002 -12.624  0.00  0.00    +0.020 C 
BRANCH  21  22
ATOM     22  C   UNL     1      37.837 -25.809 -13.298  0.00  0.00    +0.033 C 
BRANCH  22  23
ATOM     23  C   UNL     1      37.278 -26.777 -14.332  0.00  0.00    +0.137 C 
BRANCH  23  24
ATOM     24  O   UNL     1      37.438 -26.212 -15.625  0.00  0.00    -0.382 OA
ATOM     25  H   UNL     1      37.974 -25.406 -15.561  0.00  0.00    +0.210 HD
ENDBRANCH  23  24
ENDBRANCH  22  23
ENDBRANCH  21  22
ENDBRANCH  20  21
ENDBRANCH   2  20
TORSDOF 6
ENDMDL
MODEL 8
REMARK VINA RESULT:      -8.8     10.559     14.086
REMARK  Name = 448110
REMARK  6 active torsions:
REMARK  status: ('A' for Active; 'I' for Inactive)
REMARK    1  A    between atoms: N_2  and  C_20
REMARK    2  A    between atoms: N_6  and  C_14
REMARK    3  A    between atoms: C_20  and  C_21
REMARK    4  A    between atoms: C_21  and  C_22
REMARK    5  A    between atoms: C_22  and  C_23
REMARK    6  A    between atoms: C_23  and  O_24
REMARK                            x       y       z     vdW  Elec       q    Type
REMARK                         _______ _______ _______ _____ _____    ______ ____
ROOT
ATOM      1  O   UNL     1      32.001 -10.270 -18.361  0.00  0.00    -0.208 OA
ATOM      2  N   UNL     1      32.110  -7.773 -22.128  0.00  0.00    -0.232 NA
ATOM      3  N   UNL     1      32.068 -10.188 -22.420  0.00  0.00    -0.279 N 
ATOM      4  N   UNL     1      32.075  -7.746 -19.883  0.00  0.00    -0.241 NA
ATOM      5  N   UNL     1      32.011 -11.432 -20.366  0.00  0.00    -0.301 NA
ATOM      6  N   UNL     1      32.022 -12.497 -22.469  0.00  0.00    -0.275 N 
ATOM      7  C   UNL     1      32.078  -9.059 -21.705  0.00  0.00    +0.189 C 
ATOM      8  C   UNL     1      32.056  -9.033 -20.342  0.00  0.00    +0.183 C 
ATOM      9  C   UNL     1      32.108  -7.010 -20.981  0.00  0.00    +0.203 C 
ATOM     10  C   UNL     1      32.033 -11.371 -21.685  0.00  0.00    +0.252 C 
ATOM     11  C   UNL     1      32.021 -10.269 -19.585  0.00  0.00    +0.224 C 
ATOM     12  H   UNL     1      32.083 -10.183 -23.403  0.00  0.00    +0.152 HD
ATOM     13  H   UNL     1      31.597 -12.415 -23.353  0.00  0.00    +0.156 HD
ENDROOT
BRANCH   6  14
ATOM     14  C   UNL     1      32.551 -13.745 -22.144  0.00  0.00    +0.051 C 
ATOM     15  C   UNL     1      32.146 -14.411 -20.976  0.00  0.00    +0.015 C 
ATOM     16  C   UNL     1      33.500 -14.359 -22.977  0.00  0.00    +0.015 C 
ATOM     17  C   UNL     1      32.677 -15.659 -20.651  0.00  0.00    +0.001 C 
ATOM     18  C   UNL     1      34.030 -15.606 -22.651  0.00  0.00    +0.001 C 
ATOM     19  C   UNL     1      33.618 -16.257 -21.488  0.00  0.00    +0.000 C 
ENDBRANCH   6  14
BRANCH   2  20
ATOM     20  C   UNL     1      32.141  -7.282 -23.482  0.00  0.00    +0.076 C 
BRANCH  20  21
ATOM     21  C   UNL     1      33.525  -6.816 -23.942  0.00  0.00    +0.020 C 
BRANCH  21  22
ATOM     22  C   UNL     1      34.651  -7.744 -23.487  0.00  0.00    +0.033 C 
BRANCH  22  23
ATOM     23  C   UNL     1      34.875  -8.881 -24.475  0.00  0.00    +0.137 C 
BRANCH  23  24
ATOM     24  O   UNL     1      34.842 -10.114 -23.771  0.00  0.00    -0.382 OA
ATOM     25  H   UNL     1      33.942 -10.473 -23.791  0.00  0.00    +0.210 HD
ENDBRANCH  23  24
ENDBRANCH  22  23
ENDBRANCH  21  22
ENDBRANCH  20  21
ENDBRANCH   2  20
TORSDOF 6
ENDMDL
MODEL 9
REMARK VINA RESULT:      -8.8     12.706     15.473
REMARK  Name = 448110
REMARK  6 active torsions:
REMARK  status: ('A' for Active; 'I' for Inactive)
REMARK    1  A    between atoms: N_2  and  C_20
REMARK    2  A    between atoms: N_6  and  C_14
REMARK    3  A    between atoms: C_20  and  C_21
REMARK    4  A    between atoms: C_21  and  C_22
REMARK    5  A    between atoms: C_22  and  C_23
REMARK    6  A    between atoms: C_23  and  O_24
REMARK                            x       y       z     vdW  Elec       q    Type
REMARK                         _______ _______ _______ _____ _____    ______ ____
ROOT
ATOM      1  O   UNL     1      33.007  -6.730 -19.447  0.00  0.00    -0.208 OA
ATOM      2  N   UNL     1      31.559 -10.827 -20.691  0.00  0.00    -0.232 NA
ATOM      3  N   UNL     1      31.967  -9.226 -22.476  0.00  0.00    -0.279 N 
ATOM      4  N   UNL     1      32.120  -9.501 -18.969  0.00  0.00    -0.241 NA
ATOM      5  N   UNL     1      32.734  -7.078 -21.721  0.00  0.00    -0.301 NA
ATOM      6  N   UNL     1      32.418  -7.556 -24.008  0.00  0.00    -0.275 N 
ATOM      7  C   UNL     1      31.922  -9.628 -21.203  0.00  0.00    +0.189 C 
ATOM      8  C   UNL     1      32.262  -8.829 -20.150  0.00  0.00    +0.183 C 
ATOM      9  C   UNL     1      31.695 -10.701 -19.326  0.00  0.00    +0.203 C 
ATOM     10  C   UNL     1      32.389  -7.914 -22.684  0.00  0.00    +0.252 C 
ATOM     11  C   UNL     1      32.699  -7.466 -20.376  0.00  0.00    +0.224 C 
ATOM     12  H   UNL     1      31.719  -9.819 -23.220  0.00  0.00    +0.152 HD
ATOM     13  H   UNL     1      32.599  -8.275 -24.655  0.00  0.00    +0.156 HD
ENDROOT
BRANCH   6  14
ATOM     14  C   UNL     1      32.215  -6.280 -24.532  0.00  0.00    +0.051 C 
ATOM     15  C   UNL     1      31.076  -5.537 -24.184  0.00  0.00    +0.015 C 
ATOM     16  C   UNL     1      33.146  -5.715 -25.418  0.00  0.00    +0.015 C 
ATOM     17  C   UNL     1      30.873  -4.262 -24.709  0.00  0.00    +0.001 C 
ATOM     18  C   UNL     1      32.942  -4.439 -25.943  0.00  0.00    +0.001 C 
ATOM     19  C   UNL     1      31.805  -3.712 -25.588  0.00  0.00    +0.000 C 
ENDBRANCH   6  14
BRANCH   2  20
ATOM     20  C   UNL     1      31.120 -12.002 -21.402  0.00  0.00    +0.076 C 
BRANCH  20  21
ATOM     21  C   UNL     1      32.224 -13.038 -21.629  0.00  0.00    +0.020 C 
BRANCH  21  22
ATOM     22  C   UNL     1      32.426 -13.385 -23.104  0.00  0.00    +0.033 C 
BRANCH  22  23
ATOM     23  C   UNL     1      33.695 -12.753 -23.660  0.00  0.00    +0.137 C 
BRANCH  23  24
ATOM     24  O   UNL     1      33.439 -11.385 -23.945  0.00  0.00    -0.382 OA
ATOM     25  H   UNL     1      32.776 -11.044 -23.325  0.00  0.00    +0.210 HD
ENDBRANCH  23  24
ENDBRANCH  22  23
ENDBRANCH  21  22
ENDBRANCH  20  21
ENDBRANCH   2  20
TORSDOF 6
ENDMDL
