MODEL 1
REMARK VINA RESULT:      -5.8      0.000      0.000
REMARK  Name = 1714210
REMARK  0 active torsions:
REMARK  status: ('A' for Active; 'I' for Inactive)
REMARK                            x       y       z     vdW  Elec       q    Type
REMARK                         _______ _______ _______ _____ _____    ______ ____
ROOT
ATOM      1  S   UNL     1      34.037 -10.304 -24.209  0.00  0.00    -0.060 S 
ATOM      2  C   UNL     1      31.956  -7.163 -23.075  0.00  0.00    +0.004 C 
ATOM      3  C   UNL     1      33.421  -7.684 -23.216  0.00  0.00    +0.021 C 
ATOM      4  C   UNL     1      31.631  -8.162 -21.931  0.00  0.00    +0.005 C 
ATOM      5  C   UNL     1      33.979  -7.561 -21.774  0.00  0.00    +0.004 C 
ATOM      6  C   UNL     1      32.747  -7.880 -20.895  0.00  0.00    +0.001 C 
ATOM      7  C   UNL     1      31.915  -9.554 -22.546  0.00  0.00    +0.029 C 
ATOM      8  C   UNL     1      33.140  -9.187 -23.359  0.00  0.00    -0.009 C 
ATOM      9  C   UNL     1      31.822  -5.684 -22.657  0.00  0.00    +0.000 C 
ATOM     10  C   UNL     1      31.087  -7.338 -24.339  0.00  0.00    +0.000 C 
ATOM     11  C   UNL     1      34.274  -7.012 -24.271  0.00  0.00    +0.005 C 
ENDROOT
TORSDOF 0
ENDMDL
MODEL 2
REMARK VINA RESULT:      -5.6      1.759      2.914
REMARK  Name = 1714210
REMARK  0 active torsions:
REMARK  status: ('A' for Active; 'I' for Inactive)
REMARK                            x       y       z     vdW  Elec       q    Type
REMARK                         _______ _______ _______ _____ _____    ______ ____
ROOT
ATOM      1  S   UNL     1      32.030  -9.139 -20.097  0.00  0.00    -0.060 S 
ATOM      2  C   UNL     1      33.093  -7.374 -23.450  0.00  0.00    +0.004 C 
ATOM      3  C   UNL     1      32.149  -7.210 -22.217  0.00  0.00    +0.021 C 
ATOM      4  C   UNL     1      32.293  -8.589 -23.996  0.00  0.00    +0.005 C 
ATOM      5  C   UNL     1      30.743  -7.102 -22.863  0.00  0.00    +0.004 C 
ATOM      6  C   UNL     1      30.847  -8.041 -24.087  0.00  0.00    +0.001 C 
ATOM      7  C   UNL     1      32.323  -9.618 -22.839  0.00  0.00    +0.029 C 
ATOM      8  C   UNL     1      32.182  -8.649 -21.682  0.00  0.00    -0.009 C 
ATOM      9  C   UNL     1      33.125  -6.174 -24.418  0.00  0.00    +0.000 C 
ATOM     10  C   UNL     1      34.562  -7.687 -23.097  0.00  0.00    +0.000 C 
ATOM     11  C   UNL     1      32.482  -6.083 -21.262  0.00  0.00    +0.005 C 
ENDROOT
TORSDOF 0
ENDMDL
MODEL 3
REMARK VINA RESULT:      -5.5      0.983      2.801
REMARK  Name = 1714210
REMARK  0 active torsions:
REMARK  status: ('A' for Active; 'I' for Inactive)
REMARK                            x       y       z     vdW  Elec       q    Type
REMARK                         _______ _______ _______ _____ _____    ______ ____
ROOT
ATOM      1  S   UNL     1      33.816 -10.403 -24.032  0.00  0.00    -0.060 S 
ATOM      2  C   UNL     1      32.384  -7.265 -22.138  0.00  0.00    +0.004 C 
ATOM      3  C   UNL     1      31.975  -8.394 -23.136  0.00  0.00    +0.021 C 
ATOM      4  C   UNL     1      33.319  -6.584 -23.175  0.00  0.00    +0.005 C 
ATOM      5  C   UNL     1      31.469  -7.605 -24.371  0.00  0.00    +0.004 C 
ATOM      6  C   UNL     1      32.385  -6.360 -24.391  0.00  0.00    +0.001 C 
ATOM      7  C   UNL     1      34.327  -7.691 -23.567  0.00  0.00    +0.029 C 
ATOM      8  C   UNL     1      33.371  -8.867 -23.566  0.00  0.00    -0.009 C 
ATOM      9  C   UNL     1      31.230  -6.358 -21.662  0.00  0.00    +0.000 C 
ATOM     10  C   UNL     1      33.101  -7.761 -20.865  0.00  0.00    +0.000 C 
ATOM     11  C   UNL     1      30.998  -9.427 -22.617  0.00  0.00    +0.005 C 
ENDROOT
TORSDOF 0
ENDMDL
MODEL 4
REMARK VINA RESULT:      -5.4     17.982     19.350
REMARK  Name = 1714210
REMARK  0 active torsions:
REMARK  status: ('A' for Active; 'I' for Inactive)
REMARK                            x       y       z     vdW  Elec       q    Type
REMARK                         _______ _______ _______ _____ _____    ______ ____
ROOT
ATOM      1  S   UNL     1      39.557 -25.196 -14.985  0.00  0.00    -0.060 S 
ATOM      2  C   UNL     1      36.300 -23.857 -13.228  0.00  0.00    +0.004 C 
ATOM      3  C   UNL     1      36.937 -25.156 -13.817  0.00  0.00    +0.021 C 
ATOM      4  C   UNL     1      36.176 -23.193 -14.627  0.00  0.00    +0.005 C 
ATOM      5  C   UNL     1      35.911 -25.593 -14.895  0.00  0.00    +0.004 C 
ATOM      6  C   UNL     1      35.384 -24.246 -15.443  0.00  0.00    +0.001 C 
ATOM      7  C   UNL     1      37.625 -23.181 -15.175  0.00  0.00    +0.029 C 
ATOM      8  C   UNL     1      38.071 -24.528 -14.641  0.00  0.00    -0.009 C 
ATOM      9  C   UNL     1      34.945 -24.053 -12.519  0.00  0.00    +0.000 C 
ATOM     10  C   UNL     1      37.203 -23.090 -12.238  0.00  0.00    +0.000 C 
ATOM     11  C   UNL     1      37.292 -26.240 -12.822  0.00  0.00    +0.005 C 
ENDROOT
TORSDOF 0
ENDMDL
MODEL 5
REMARK VINA RESULT:      -5.4     18.290     19.724
REMARK  Name = 1714210
REMARK  0 active torsions:
REMARK  status: ('A' for Active; 'I' for Inactive)
REMARK                            x       y       z     vdW  Elec       q    Type
REMARK                         _______ _______ _______ _____ _____    ______ ____
ROOT
ATOM      1  S   UNL     1      34.018 -24.288 -13.600  0.00  0.00    -0.060 S 
ATOM      2  C   UNL     1      37.869 -24.395 -14.400  0.00  0.00    +0.004 C 
ATOM      3  C   UNL     1      36.642 -25.321 -14.128  0.00  0.00    +0.021 C 
ATOM      4  C   UNL     1      37.884 -23.860 -12.941  0.00  0.00    +0.005 C 
ATOM      5  C   UNL     1      37.096 -26.157 -12.904  0.00  0.00    +0.004 C 
ATOM      6  C   UNL     1      37.956 -25.156 -12.096  0.00  0.00    +0.001 C 
ATOM      7  C   UNL     1      36.473 -23.257 -12.740  0.00  0.00    +0.029 C 
ATOM      8  C   UNL     1      35.681 -24.291 -13.516  0.00  0.00    -0.009 C 
ATOM      9  C   UNL     1      39.167 -25.125 -14.800  0.00  0.00    +0.000 C 
ATOM     10  C   UNL     1      37.631 -23.311 -15.473  0.00  0.00    +0.000 C 
ATOM     11  C   UNL     1      36.153 -26.148 -15.298  0.00  0.00    +0.005 C 
ENDROOT
TORSDOF 0
ENDMDL
MODEL 6
REMARK VINA RESULT:      -5.4      9.552     11.194
REMARK  Name = 1714210
REMARK  0 active torsions:
REMARK  status: ('A' for Active; 'I' for Inactive)
REMARK                            x       y       z     vdW  Elec       q    Type
REMARK                         _______ _______ _______ _____ _____    ______ ____
ROOT
ATOM      1  S   UNL     1      35.780 -20.734 -20.072  0.00  0.00    -0.060 S 
ATOM      2  C   UNL     1      34.724 -17.389 -21.856  0.00  0.00    +0.004 C 
ATOM      3  C   UNL     1      34.309 -18.886 -21.701  0.00  0.00    +0.021 C 
ATOM      4  C   UNL     1      36.014 -17.750 -22.643  0.00  0.00    +0.005 C 
ATOM      5  C   UNL     1      34.315 -19.406 -23.162  0.00  0.00    +0.004 C 
ATOM      6  C   UNL     1      35.478 -18.619 -23.808  0.00  0.00    +0.001 C 
ATOM      7  C   UNL     1      36.794 -18.689 -21.690  0.00  0.00    +0.029 C 
ATOM      8  C   UNL     1      35.614 -19.450 -21.120  0.00  0.00    -0.009 C 
ATOM      9  C   UNL     1      33.740 -16.513 -22.658  0.00  0.00    +0.000 C 
ATOM     10  C   UNL     1      34.977 -16.651 -20.524  0.00  0.00    +0.000 C 
ATOM     11  C   UNL     1      33.019 -19.151 -20.953  0.00  0.00    +0.005 C 
ENDROOT
TORSDOF 0
ENDMDL
MODEL 7
REMARK VINA RESULT:      -5.3      9.970     11.184
REMARK  Name = 1714210
REMARK  0 active torsions:
REMARK  status: ('A' for Active; 'I' for Inactive)
REMARK                            x       y       z     vdW  Elec       q    Type
REMARK                         _______ _______ _______ _____ _____    ______ ____
ROOT
ATOM      1  S   UNL     1      35.953 -20.869 -20.068  0.00  0.00    -0.060 S 
ATOM      2  C   UNL     1      34.861 -18.429 -22.956  0.00  0.00    +0.004 C 
ATOM      3  C   UNL     1      35.827 -18.537 -21.734  0.00  0.00    +0.021 C 
ATOM      4  C   UNL     1      33.599 -18.400 -22.051  0.00  0.00    +0.005 C 
ATOM      5  C   UNL     1      35.419 -17.326 -20.856  0.00  0.00    +0.004 C 
ATOM      6  C   UNL     1      33.893 -17.228 -21.082  0.00  0.00    +0.001 C 
ATOM      7  C   UNL     1      33.686 -19.710 -21.230  0.00  0.00    +0.029 C 
ATOM      8  C   UNL     1      35.186 -19.730 -21.011  0.00  0.00    -0.009 C 
ATOM      9  C   UNL     1      35.029 -17.161 -23.817  0.00  0.00    +0.000 C 
ATOM     10  C   UNL     1      34.919 -19.626 -23.929  0.00  0.00    +0.000 C 
ATOM     11  C   UNL     1      37.306 -18.603 -22.052  0.00  0.00    +0.005 C 
ENDROOT
TORSDOF 0
ENDMDL
MODEL 8
REMARK VINA RESULT:      -5.2      1.770      2.832
REMARK  Name = 1714210
REMARK  0 active torsions:
REMARK  status: ('A' for Active; 'I' for Inactive)
REMARK                            x       y       z     vdW  Elec       q    Type
REMARK                         _______ _______ _______ _____ _____    ______ ____
ROOT
ATOM      1  S   UNL     1      33.238  -5.744 -25.443  0.00  0.00    -0.060 S 
ATOM      2  C   UNL     1      32.291  -7.366 -21.985  0.00  0.00    +0.004 C 
ATOM      3  C   UNL     1      33.200  -7.577 -23.237  0.00  0.00    +0.021 C 
ATOM      4  C   UNL     1      30.989  -7.614 -22.795  0.00  0.00    +0.005 C 
ATOM      5  C   UNL     1      32.758  -8.968 -23.762  0.00  0.00    +0.004 C 
ATOM      6  C   UNL     1      31.244  -8.995 -23.449  0.00  0.00    +0.001 C 
ATOM      7  C   UNL     1      31.032  -6.555 -23.924  0.00  0.00    +0.029 C 
ATOM      8  C   UNL     1      32.520  -6.601 -24.209  0.00  0.00    -0.009 C 
ATOM      9  C   UNL     1      32.504  -8.376 -20.840  0.00  0.00    +0.000 C 
ATOM     10  C   UNL     1      32.388  -5.962 -21.351  0.00  0.00    +0.000 C 
ATOM     11  C   UNL     1      34.691  -7.443 -23.015  0.00  0.00    +0.005 C 
ENDROOT
TORSDOF 0
ENDMDL
MODEL 9
REMARK VINA RESULT:      -5.1      1.672      2.957
REMARK  Name = 1714210
REMARK  0 active torsions:
REMARK  status: ('A' for Active; 'I' for Inactive)
REMARK                            x       y       z     vdW  Elec       q    Type
REMARK                         _______ _______ _______ _____ _____    ______ ____
ROOT
ATOM      1  S   UNL     1      33.071  -5.889 -25.135  0.00  0.00    -0.060 S 
ATOM      2  C   UNL     1      32.501  -8.941 -22.718  0.00  0.00    +0.004 C 
ATOM      3  C   UNL     1      31.848  -7.602 -23.186  0.00  0.00    +0.021 C 
ATOM      4  C   UNL     1      33.668  -8.209 -22.000  0.00  0.00    +0.005 C 
ATOM      5  C   UNL     1      31.689  -6.808 -21.864  0.00  0.00    +0.004 C 
ATOM      6  C   UNL     1      32.933  -7.232 -21.048  0.00  0.00    +0.001 C 
ATOM      7  C   UNL     1      34.328  -7.358 -23.113  0.00  0.00    +0.029 C 
ATOM      8  C   UNL     1      33.069  -6.946 -23.848  0.00  0.00    -0.009 C 
ATOM      9  C   UNL     1      31.637  -9.798 -21.770  0.00  0.00    +0.000 C 
ATOM     10  C   UNL     1      32.945  -9.875 -23.864  0.00  0.00    +0.000 C 
ATOM     11  C   UNL     1      30.574  -7.723 -23.995  0.00  0.00    +0.005 C 
ENDROOT
TORSDOF 0
ENDMDL
