MODEL 1
REMARK VINA RESULT:      -8.5      0.000      0.000
REMARK  Name = 40466974
REMARK  6 active torsions:
REMARK  status: ('A' for Active; 'I' for Inactive)
REMARK    1  A    between atoms: C_4  and  C_13
REMARK    2  A    between atoms: C_7  and  S_17
REMARK    3  A    between atoms: C_8  and  C_12
REMARK    4  A    between atoms: C_13  and  O_15
REMARK    5  A    between atoms: S_17  and  C_19
REMARK    6  A    between atoms: C_21  and  C_27
REMARK                            x       y       z     vdW  Elec       q    Type
REMARK                         _______ _______ _______ _____ _____    ______ ____
ROOT
ATOM      1  O   UNL     1      32.773 -13.003 -26.341  0.00  0.00    -0.274 OA
ATOM      2  N   UNL     1      34.172 -13.770 -24.606  0.00  0.00    -0.254 N 
ATOM      3  C   UNL     1      34.205 -13.021 -23.335  0.00  0.00    +0.095 C 
ATOM      4  C   UNL     1      33.271 -11.991 -24.046  0.00  0.00    +0.123 C 
ATOM      5  C   UNL     1      33.840 -14.081 -22.276  0.00  0.00    +0.049 C 
ATOM      6  C   UNL     1      33.327 -12.935 -25.268  0.00  0.00    +0.233 C 
ATOM      7  C   UNL     1      33.829 -15.364 -23.086  0.00  0.00    +0.024 C 
ATOM      8  C   UNL     1      33.990 -15.107 -24.392  0.00  0.00    +0.136 C 
ATOM      9  C   UNL     1      32.545 -13.798 -21.531  0.00  0.00    +0.007 C 
ENDROOT
BRANCH   8  12
ATOM     10  O   UNL     1      35.018 -16.717 -25.755  0.00  0.00    -0.239 OA
ATOM     11  O   UNL     1      32.818 -16.197 -26.107  0.00  0.00    -0.239 OA
ATOM     12  C   UNL     1      33.937 -16.106 -25.531  0.00  0.00    +0.401 C 
ENDBRANCH   8  12
BRANCH   4  13
ATOM     13  C   UNL     1      33.696 -10.573 -24.333  0.00  0.00    +0.121 C 
ATOM     14  C   UNL     1      32.835  -9.550 -23.598  0.00  0.00    +0.032 C 
BRANCH  13  15
ATOM     15  O   UNL     1      35.059 -10.391 -23.943  0.00  0.00    -0.384 OA
ATOM     16  H   UNL     1      35.532 -11.234 -24.018  0.00  0.00    +0.210 HD
ENDBRANCH  13  15
ENDBRANCH   4  13
BRANCH   7  17
ATOM     17  S   UNL     1      33.614 -16.912 -22.373  0.00  0.00    -0.120 S 
BRANCH  17  19
ATOM     18  N   UNL     1      35.207 -19.749 -22.738  0.00  0.00    +0.391 N 
ATOM     19  C   UNL     1      35.356 -17.443 -22.227  0.00  0.00    +0.029 C 
ATOM     20  C   UNL     1      35.608 -18.209 -20.930  0.00  0.00    -0.003 C 
ATOM     21  C   UNL     1      35.327 -19.679 -21.240  0.00  0.00    +0.018 C 
ATOM     22  C   UNL     1      35.712 -18.455 -23.299  0.00  0.00    -0.070 C 
ATOM     23  H   UNL     1      34.231 -19.883 -23.003  0.00  0.00    -0.084 HD
ATOM     24  H   UNL     1      35.750 -20.531 -23.103  0.00  0.00    -0.084 HD
BRANCH  21  27
ATOM     25  O   UNL     1      32.994 -19.712 -20.917  0.00  0.00    -0.277 OA
ATOM     26  N   UNL     1      34.242 -21.214 -19.657  0.00  0.00    -0.278 N 
ATOM     27  C   UNL     1      34.083 -20.195 -20.598  0.00  0.00    +0.206 C 
ATOM     28  C   UNL     1      33.114 -21.809 -18.954  0.00  0.00    +0.115 C 
ATOM     29  C   UNL     1      35.553 -21.759 -19.308  0.00  0.00    +0.115 C 
ENDBRANCH  21  27
ENDBRANCH  17  19
ENDBRANCH   7  17
TORSDOF 6
ENDMDL
MODEL 2
REMARK VINA RESULT:      -8.1      9.544     12.302
REMARK  Name = 40466974
REMARK  6 active torsions:
REMARK  status: ('A' for Active; 'I' for Inactive)
REMARK    1  A    between atoms: C_4  and  C_13
REMARK    2  A    between atoms: C_7  and  S_17
REMARK    3  A    between atoms: C_8  and  C_12
REMARK    4  A    between atoms: C_13  and  O_15
REMARK    5  A    between atoms: S_17  and  C_19
REMARK    6  A    between atoms: C_21  and  C_27
REMARK                            x       y       z     vdW  Elec       q    Type
REMARK                         _______ _______ _______ _____ _____    ______ ____
ROOT
ATOM      1  O   UNL     1      36.878 -22.653 -16.048  0.00  0.00    -0.274 OA
ATOM      2  N   UNL     1      34.979 -24.045 -15.921  0.00  0.00    -0.254 N 
ATOM      3  C   UNL     1      34.514 -24.493 -14.595  0.00  0.00    +0.095 C 
ATOM      4  C   UNL     1      35.786 -23.782 -14.031  0.00  0.00    +0.123 C 
ATOM      5  C   UNL     1      33.046 -24.023 -14.545  0.00  0.00    +0.049 C 
ATOM      6  C   UNL     1      36.080 -23.372 -15.491  0.00  0.00    +0.233 C 
ATOM      7  C   UNL     1      32.813 -23.520 -15.957  0.00  0.00    +0.024 C 
ATOM      8  C   UNL     1      33.953 -23.532 -16.663  0.00  0.00    +0.136 C 
ATOM      9  C   UNL     1      32.756 -23.000 -13.459  0.00  0.00    +0.007 C 
ENDROOT
BRANCH   8  12
ATOM     10  O   UNL     1      34.642 -21.852 -18.150  0.00  0.00    -0.239 OA
ATOM     11  O   UNL     1      33.817 -23.814 -18.988  0.00  0.00    -0.239 OA
ATOM     12  C   UNL     1      34.157 -23.015 -18.073  0.00  0.00    +0.401 C 
ENDBRANCH   8  12
BRANCH   4  13
ATOM     13  C   UNL     1      36.904 -24.536 -13.357  0.00  0.00    +0.121 C 
ATOM     14  C   UNL     1      37.483 -23.773 -12.169  0.00  0.00    +0.032 C 
BRANCH  13  15
ATOM     15  O   UNL     1      36.425 -25.802 -12.900  0.00  0.00    -0.384 OA
ATOM     16  H   UNL     1      37.108 -26.230 -12.361  0.00  0.00    +0.210 HD
ENDBRANCH  13  15
ENDBRANCH   4  13
BRANCH   7  17
ATOM     17  S   UNL     1      31.275 -22.999 -16.517  0.00  0.00    -0.120 S 
BRANCH  17  19
ATOM     18  N   UNL     1      28.492 -24.626 -15.949  0.00  0.00    +0.391 N 
ATOM     19  C   UNL     1      30.261 -23.346 -15.038  0.00  0.00    +0.029 C 
ATOM     20  C   UNL     1      29.006 -22.476 -14.995  0.00  0.00    -0.003 C 
ATOM     21  C   UNL     1      27.925 -23.247 -15.751  0.00  0.00    +0.018 C 
ATOM     22  C   UNL     1      29.701 -24.755 -15.075  0.00  0.00    -0.070 C 
ATOM     23  H   UNL     1      28.755 -24.756 -16.926  0.00  0.00    -0.084 HD
ATOM     24  H   UNL     1      27.799 -25.334 -15.705  0.00  0.00    -0.084 HD
BRANCH  21  27
ATOM     25  O   UNL     1      28.293 -22.855 -18.044  0.00  0.00    -0.277 OA
ATOM     26  N   UNL     1      26.420 -21.851 -17.102  0.00  0.00    -0.278 N 
ATOM     27  C   UNL     1      27.571 -22.640 -17.067  0.00  0.00    +0.206 C 
ATOM     28  C   UNL     1      25.959 -21.198 -18.320  0.00  0.00    +0.115 C 
ATOM     29  C   UNL     1      25.593 -21.622 -15.920  0.00  0.00    +0.115 C 
ENDBRANCH  21  27
ENDBRANCH  17  19
ENDBRANCH   7  17
TORSDOF 6
ENDMDL
MODEL 3
REMARK VINA RESULT:      -7.6      2.286      3.713
REMARK  Name = 40466974
REMARK  6 active torsions:
REMARK  status: ('A' for Active; 'I' for Inactive)
REMARK    1  A    between atoms: C_4  and  C_13
REMARK    2  A    between atoms: C_7  and  S_17
REMARK    3  A    between atoms: C_8  and  C_12
REMARK    4  A    between atoms: C_13  and  O_15
REMARK    5  A    between atoms: S_17  and  C_19
REMARK    6  A    between atoms: C_21  and  C_27
REMARK                            x       y       z     vdW  Elec       q    Type
REMARK                         _______ _______ _______ _____ _____    ______ ____
ROOT
ATOM      1  O   UNL     1      33.979 -12.592 -23.257  0.00  0.00    -0.274 OA
ATOM      2  N   UNL     1      33.229 -14.823 -23.118  0.00  0.00    -0.254 N 
ATOM      3  C   UNL     1      33.286 -15.669 -24.326  0.00  0.00    +0.095 C 
ATOM      4  C   UNL     1      33.752 -14.379 -25.073  0.00  0.00    +0.123 C 
ATOM      5  C   UNL     1      34.127 -16.883 -23.883  0.00  0.00    +0.049 C 
ATOM      6  C   UNL     1      33.672 -13.676 -23.699  0.00  0.00    +0.233 C 
ATOM      7  C   UNL     1      34.285 -16.647 -22.392  0.00  0.00    +0.024 C 
ATOM      8  C   UNL     1      33.784 -15.455 -22.041  0.00  0.00    +0.136 C 
ATOM      9  C   UNL     1      35.438 -17.041 -24.636  0.00  0.00    +0.007 C 
ENDROOT
BRANCH   8  12
ATOM     10  O   UNL     1      32.721 -14.663 -20.104  0.00  0.00    -0.239 OA
ATOM     11  O   UNL     1      34.997 -14.507 -20.270  0.00  0.00    -0.239 OA
ATOM     12  C   UNL     1      33.840 -14.811 -20.669  0.00  0.00    +0.401 C 
ENDBRANCH   8  12
BRANCH   4  13
ATOM     13  C   UNL     1      32.931 -13.727 -26.156  0.00  0.00    +0.121 C 
ATOM     14  C   UNL     1      33.790 -13.235 -27.318  0.00  0.00    +0.032 C 
BRANCH  13  15
ATOM     15  O   UNL     1      31.970 -14.658 -26.658  0.00  0.00    -0.384 OA
ATOM     16  H   UNL     1      31.995 -15.467 -26.124  0.00  0.00    +0.210 HD
ENDBRANCH  13  15
ENDBRANCH   4  13
BRANCH   7  17
ATOM     17  S   UNL     1      35.033 -17.786 -21.345  0.00  0.00    -0.120 S 
BRANCH  17  19
ATOM     18  N   UNL     1      33.661 -20.385 -19.903  0.00  0.00    +0.391 N 
ATOM     19  C   UNL     1      34.251 -19.327 -21.936  0.00  0.00    +0.029 C 
ATOM     20  C   UNL     1      35.176 -20.532 -21.769  0.00  0.00    -0.003 C 
ATOM     21  C   UNL     1      34.905 -21.088 -20.373  0.00  0.00    +0.018 C 
ATOM     22  C   UNL     1      33.051 -19.695 -21.084  0.00  0.00    -0.070 C 
ATOM     23  H   UNL     1      33.899 -19.699 -19.187  0.00  0.00    -0.084 HD
ATOM     24  H   UNL     1      33.003 -21.054 -19.503  0.00  0.00    -0.084 HD
BRANCH  21  27
ATOM     25  O   UNL     1      36.893 -20.028 -19.689  0.00  0.00    -0.277 OA
ATOM     26  N   UNL     1      36.007 -21.615 -18.240  0.00  0.00    -0.278 N 
ATOM     27  C   UNL     1      36.023 -20.858 -19.413  0.00  0.00    +0.206 C 
ATOM     28  C   UNL     1      37.038 -21.490 -17.218  0.00  0.00    +0.115 C 
ATOM     29  C   UNL     1      34.956 -22.587 -17.952  0.00  0.00    +0.115 C 
ENDBRANCH  21  27
ENDBRANCH  17  19
ENDBRANCH   7  17
TORSDOF 6
ENDMDL
MODEL 4
REMARK VINA RESULT:      -7.5      3.402      5.727
REMARK  Name = 40466974
REMARK  6 active torsions:
REMARK  status: ('A' for Active; 'I' for Inactive)
REMARK    1  A    between atoms: C_4  and  C_13
REMARK    2  A    between atoms: C_7  and  S_17
REMARK    3  A    between atoms: C_8  and  C_12
REMARK    4  A    between atoms: C_13  and  O_15
REMARK    5  A    between atoms: S_17  and  C_19
REMARK    6  A    between atoms: C_21  and  C_27
REMARK                            x       y       z     vdW  Elec       q    Type
REMARK                         _______ _______ _______ _____ _____    ______ ____
ROOT
ATOM      1  O   UNL     1      32.761  -7.973 -19.736  0.00  0.00    -0.274 OA
ATOM      2  N   UNL     1      31.611  -9.123 -21.444  0.00  0.00    -0.254 N 
ATOM      3  C   UNL     1      31.933  -8.814 -22.850  0.00  0.00    +0.095 C 
ATOM      4  C   UNL     1      32.864  -7.699 -22.277  0.00  0.00    +0.123 C 
ATOM      5  C   UNL     1      32.323 -10.183 -23.445  0.00  0.00    +0.049 C 
ATOM      6  C   UNL     1      32.435  -8.199 -20.880  0.00  0.00    +0.233 C 
ATOM      7  C   UNL     1      31.985 -11.139 -22.316  0.00  0.00    +0.024 C 
ATOM      8  C   UNL     1      31.623 -10.469 -21.213  0.00  0.00    +0.136 C 
ATOM      9  C   UNL     1      33.762 -10.266 -23.927  0.00  0.00    +0.007 C 
ENDROOT
BRANCH   8  12
ATOM     10  O   UNL     1      30.442 -10.425 -19.185  0.00  0.00    -0.239 OA
ATOM     11  O   UNL     1      31.951 -12.102 -19.561  0.00  0.00    -0.239 OA
ATOM     12  C   UNL     1      31.308 -11.057 -19.852  0.00  0.00    +0.401 C 
ENDBRANCH   8  12
BRANCH   4  13
ATOM     13  C   UNL     1      32.615  -6.232 -22.518  0.00  0.00    +0.121 C 
ATOM     14  C   UNL     1      31.952  -5.971 -23.867  0.00  0.00    +0.032 C 
BRANCH  13  15
ATOM     15  O   UNL     1      31.777  -5.709 -21.486  0.00  0.00    -0.384 OA
ATOM     16  H   UNL     1      30.876  -5.595 -21.827  0.00  0.00    +0.210 HD
ENDBRANCH  13  15
ENDBRANCH   4  13
BRANCH   7  17
ATOM     17  S   UNL     1      32.089 -12.846 -22.481  0.00  0.00    -0.120 S 
BRANCH  17  19
ATOM     18  N   UNL     1      33.315 -15.172 -24.433  0.00  0.00    +0.391 N 
ATOM     19  C   UNL     1      33.539 -12.973 -23.586  0.00  0.00    +0.029 C 
ATOM     20  C   UNL     1      34.654 -13.812 -22.964  0.00  0.00    -0.003 C 
ATOM     21  C   UNL     1      34.381 -15.258 -23.376  0.00  0.00    +0.018 C 
ATOM     22  C   UNL     1      33.198 -13.739 -24.851  0.00  0.00    -0.070 C 
ATOM     23  H   UNL     1      32.424 -15.496 -24.054  0.00  0.00    -0.084 HD
ATOM     24  H   UNL     1      33.557 -15.758 -25.232  0.00  0.00    -0.084 HD
BRANCH  21  27
ATOM     25  O   UNL     1      33.132 -15.664 -21.422  0.00  0.00    -0.277 OA
ATOM     26  N   UNL     1      34.438 -17.420 -22.207  0.00  0.00    -0.278 N 
ATOM     27  C   UNL     1      33.924 -16.122 -22.249  0.00  0.00    +0.206 C 
ATOM     28  C   UNL     1      34.076 -18.368 -21.162  0.00  0.00    +0.115 C 
ATOM     29  C   UNL     1      35.375 -17.922 -23.209  0.00  0.00    +0.115 C 
ENDBRANCH  21  27
ENDBRANCH  17  19
ENDBRANCH   7  17
TORSDOF 6
ENDMDL
MODEL 5
REMARK VINA RESULT:      -7.4      1.834      2.593
REMARK  Name = 40466974
REMARK  6 active torsions:
REMARK  status: ('A' for Active; 'I' for Inactive)
REMARK    1  A    between atoms: C_4  and  C_13
REMARK    2  A    between atoms: C_7  and  S_17
REMARK    3  A    between atoms: C_8  and  C_12
REMARK    4  A    between atoms: C_13  and  O_15
REMARK    5  A    between atoms: S_17  and  C_19
REMARK    6  A    between atoms: C_21  and  C_27
REMARK                            x       y       z     vdW  Elec       q    Type
REMARK                         _______ _______ _______ _____ _____    ______ ____
ROOT
ATOM      1  O   UNL     1      33.121 -15.364 -25.300  0.00  0.00    -0.274 OA
ATOM      2  N   UNL     1      34.612 -15.289 -23.475  0.00  0.00    -0.254 N 
ATOM      3  C   UNL     1      34.352 -14.331 -22.383  0.00  0.00    +0.095 C 
ATOM      4  C   UNL     1      33.175 -13.812 -23.268  0.00  0.00    +0.123 C 
ATOM      5  C   UNL     1      34.292 -15.220 -21.124  0.00  0.00    +0.049 C 
ATOM      6  C   UNL     1      33.578 -14.912 -24.274  0.00  0.00    +0.233 C 
ATOM      7  C   UNL     1      34.719 -16.575 -21.657  0.00  0.00    +0.024 C 
ATOM      8  C   UNL     1      34.849 -16.544 -22.991  0.00  0.00    +0.136 C 
ATOM      9  C   UNL     1      32.942 -15.219 -20.424  0.00  0.00    +0.007 C 
ENDROOT
BRANCH   8  12
ATOM     10  O   UNL     1      34.301 -17.936 -24.800  0.00  0.00    -0.239 OA
ATOM     11  O   UNL     1      36.242 -18.315 -23.649  0.00  0.00    -0.239 OA
ATOM     12  C   UNL     1      35.162 -17.714 -23.903  0.00  0.00    +0.401 C 
ENDBRANCH   8  12
BRANCH   4  13
ATOM     13  C   UNL     1      33.147 -12.419 -23.844  0.00  0.00    +0.121 C 
ATOM     14  C   UNL     1      32.460 -11.421 -22.916  0.00  0.00    +0.032 C 
BRANCH  13  15
ATOM     15  O   UNL     1      34.481 -11.973 -24.092  0.00  0.00    -0.384 OA
ATOM     16  H   UNL     1      34.993 -12.692 -24.493  0.00  0.00    +0.210 HD
ENDBRANCH  13  15
ENDBRANCH   4  13
BRANCH   7  17
ATOM     17  S   UNL     1      34.969 -17.937 -20.641  0.00  0.00    -0.120 S 
BRANCH  17  19
ATOM     18  N   UNL     1      32.995 -20.391 -19.747  0.00  0.00    +0.391 N 
ATOM     19  C   UNL     1      33.978 -19.188 -21.532  0.00  0.00    +0.029 C 
ATOM     20  C   UNL     1      34.640 -20.564 -21.497  0.00  0.00    -0.003 C 
ATOM     21  C   UNL     1      34.127 -21.253 -20.234  0.00  0.00    +0.018 C 
ATOM     22  C   UNL     1      32.650 -19.428 -20.840  0.00  0.00    -0.070 C 
ATOM     23  H   UNL     1      33.283 -19.879 -18.912  0.00  0.00    -0.084 HD
ATOM     24  H   UNL     1      32.187 -20.966 -19.510  0.00  0.00    -0.084 HD
BRANCH  21  27
ATOM     25  O   UNL     1      36.208 -20.742 -19.256  0.00  0.00    -0.277 OA
ATOM     26  N   UNL     1      34.875 -22.275 -18.127  0.00  0.00    -0.278 N 
ATOM     27  C   UNL     1      35.164 -21.394 -19.171  0.00  0.00    +0.206 C 
ATOM     28  C   UNL     1      35.799 -22.509 -17.025  0.00  0.00    +0.115 C 
ATOM     29  C   UNL     1      33.624 -23.028 -18.064  0.00  0.00    +0.115 C 
ENDBRANCH  21  27
ENDBRANCH  17  19
ENDBRANCH   7  17
TORSDOF 6
ENDMDL
MODEL 6
REMARK VINA RESULT:      -7.3      2.624      4.721
REMARK  Name = 40466974
REMARK  6 active torsions:
REMARK  status: ('A' for Active; 'I' for Inactive)
REMARK    1  A    between atoms: C_4  and  C_13
REMARK    2  A    between atoms: C_7  and  S_17
REMARK    3  A    between atoms: C_8  and  C_12
REMARK    4  A    between atoms: C_13  and  O_15
REMARK    5  A    between atoms: S_17  and  C_19
REMARK    6  A    between atoms: C_21  and  C_27
REMARK                            x       y       z     vdW  Elec       q    Type
REMARK                         _______ _______ _______ _____ _____    ______ ____
ROOT
ATOM      1  O   UNL     1      32.767  -7.932 -24.609  0.00  0.00    -0.274 OA
ATOM      2  N   UNL     1      33.293  -9.565 -22.991  0.00  0.00    -0.254 N 
ATOM      3  C   UNL     1      32.518  -9.597 -21.736  0.00  0.00    +0.095 C 
ATOM      4  C   UNL     1      31.821  -8.302 -22.262  0.00  0.00    +0.123 C 
ATOM      5  C   UNL     1      31.965 -11.035 -21.685  0.00  0.00    +0.049 C 
ATOM      6  C   UNL     1      32.695  -8.465 -23.525  0.00  0.00    +0.233 C 
ATOM      7  C   UNL     1      32.668 -11.700 -22.854  0.00  0.00    +0.024 C 
ATOM      8  C   UNL     1      33.370 -10.803 -23.561  0.00  0.00    +0.136 C 
ATOM      9  C   UNL     1      30.448 -11.122 -21.734  0.00  0.00    +0.007 C 
ENDROOT
BRANCH   8  12
ATOM     10  O   UNL     1      33.568 -11.854 -25.651  0.00  0.00    -0.239 OA
ATOM     11  O   UNL     1      35.214 -10.422 -24.962  0.00  0.00    -0.239 OA
ATOM     12  C   UNL     1      34.126 -11.051 -24.852  0.00  0.00    +0.401 C 
ENDBRANCH   8  12
BRANCH   4  13
ATOM     13  C   UNL     1      31.963  -6.968 -21.573  0.00  0.00    +0.121 C 
ATOM     14  C   UNL     1      30.863  -5.989 -21.974  0.00  0.00    +0.032 C 
BRANCH  13  15
ATOM     15  O   UNL     1      31.922  -7.150 -20.156  0.00  0.00    -0.384 OA
ATOM     16  H   UNL     1      32.391  -7.966 -19.922  0.00  0.00    +0.210 HD
ENDBRANCH  13  15
ENDBRANCH   4  13
BRANCH   7  17
ATOM     17  S   UNL     1      32.529 -13.379 -23.191  0.00  0.00    -0.120 S 
BRANCH  17  19
ATOM     18  N   UNL     1      34.896 -14.844 -21.468  0.00  0.00    +0.391 N 
ATOM     19  C   UNL     1      32.664 -14.057 -21.500  0.00  0.00    +0.029 C 
ATOM     20  C   UNL     1      32.604 -15.583 -21.495  0.00  0.00    -0.003 C 
ATOM     21  C   UNL     1      34.043 -16.068 -21.660  0.00  0.00    +0.018 C 
ATOM     22  C   UNL     1      34.027 -13.765 -20.900  0.00  0.00    -0.070 C 
ATOM     23  H   UNL     1      35.279 -14.544 -22.364  0.00  0.00    -0.084 HD
ATOM     24  H   UNL     1      35.672 -15.046 -20.837  0.00  0.00    -0.084 HD
BRANCH  21  27
ATOM     25  O   UNL     1      34.336 -15.965 -23.994  0.00  0.00    -0.277 OA
ATOM     26  N   UNL     1      34.531 -18.063 -23.011  0.00  0.00    -0.278 N 
ATOM     27  C   UNL     1      34.315 -16.684 -22.992  0.00  0.00    +0.206 C 
ATOM     28  C   UNL     1      34.806 -18.791 -24.243  0.00  0.00    +0.115 C 
ATOM     29  C   UNL     1      34.498 -18.876 -21.798  0.00  0.00    +0.115 C 
ENDBRANCH  21  27
ENDBRANCH  17  19
ENDBRANCH   7  17
TORSDOF 6
ENDMDL
MODEL 7
REMARK VINA RESULT:      -7.2      4.206      9.812
REMARK  Name = 40466974
REMARK  6 active torsions:
REMARK  status: ('A' for Active; 'I' for Inactive)
REMARK    1  A    between atoms: C_4  and  C_13
REMARK    2  A    between atoms: C_7  and  S_17
REMARK    3  A    between atoms: C_8  and  C_12
REMARK    4  A    between atoms: C_13  and  O_15
REMARK    5  A    between atoms: S_17  and  C_19
REMARK    6  A    between atoms: C_21  and  C_27
REMARK                            x       y       z     vdW  Elec       q    Type
REMARK                         _______ _______ _______ _____ _____    ______ ____
ROOT
ATOM      1  O   UNL     1      31.770 -15.153 -21.847  0.00  0.00    -0.274 OA
ATOM      2  N   UNL     1      33.228 -13.350 -22.273  0.00  0.00    -0.254 N 
ATOM      3  C   UNL     1      34.107 -13.411 -23.457  0.00  0.00    +0.095 C 
ATOM      4  C   UNL     1      33.550 -14.857 -23.659  0.00  0.00    +0.123 C 
ATOM      5  C   UNL     1      33.759 -12.127 -24.237  0.00  0.00    +0.049 C 
ATOM      6  C   UNL     1      32.673 -14.584 -22.417  0.00  0.00    +0.233 C 
ATOM      7  C   UNL     1      32.838 -11.398 -23.276  0.00  0.00    +0.024 C 
ATOM      8  C   UNL     1      32.559 -12.161 -22.210  0.00  0.00    +0.136 C 
ATOM      9  C   UNL     1      33.160 -12.376 -25.612  0.00  0.00    +0.007 C 
ENDROOT
BRANCH   8  12
ATOM     10  O   UNL     1      32.076 -11.982 -19.920  0.00  0.00    -0.239 OA
ATOM     11  O   UNL     1      30.455 -11.455 -21.447  0.00  0.00    -0.239 OA
ATOM     12  C   UNL     1      31.602 -11.834 -21.080  0.00  0.00    +0.401 C 
ENDBRANCH   8  12
BRANCH   4  13
ATOM     13  C   UNL     1      34.420 -16.083 -23.551  0.00  0.00    +0.121 C 
ATOM     14  C   UNL     1      34.488 -16.863 -24.861  0.00  0.00    +0.032 C 
BRANCH  13  15
ATOM     15  O   UNL     1      35.745 -15.703 -23.174  0.00  0.00    -0.384 OA
ATOM     16  H   UNL     1      35.717 -15.233 -22.326  0.00  0.00    +0.210 HD
ENDBRANCH  13  15
ENDBRANCH   4  13
BRANCH   7  17
ATOM     17  S   UNL     1      32.248  -9.813 -23.576  0.00  0.00    -0.120 S 
BRANCH  17  19
ATOM     18  N   UNL     1      31.650  -7.174 -21.734  0.00  0.00    +0.391 N 
ATOM     19  C   UNL     1      33.185  -8.878 -22.317  0.00  0.00    +0.029 C 
ATOM     20  C   UNL     1      33.733  -7.566 -22.877  0.00  0.00    -0.003 C 
ATOM     21  C   UNL     1      32.644  -6.518 -22.652  0.00  0.00    +0.018 C 
ATOM     22  C   UNL     1      32.280  -8.418 -21.190  0.00  0.00    -0.070 C 
ATOM     23  H   UNL     1      30.803  -7.412 -22.252  0.00  0.00    -0.084 HD
ATOM     24  H   UNL     1      31.395  -6.542 -20.975  0.00  0.00    -0.084 HD
BRANCH  21  27
ATOM     25  O   UNL     1      31.936  -6.844 -24.874  0.00  0.00    -0.277 OA
ATOM     26  N   UNL     1      31.424  -4.793 -23.908  0.00  0.00    -0.278 N 
ATOM     27  C   UNL     1      31.974  -6.076 -23.910  0.00  0.00    +0.206 C 
ATOM     28  C   UNL     1      30.742  -4.236 -25.069  0.00  0.00    +0.115 C 
ATOM     29  C   UNL     1      31.491  -3.915 -22.742  0.00  0.00    +0.115 C 
ENDBRANCH  21  27
ENDBRANCH  17  19
ENDBRANCH   7  17
TORSDOF 6
ENDMDL
MODEL 8
REMARK VINA RESULT:      -7.1      2.281      8.490
REMARK  Name = 40466974
REMARK  6 active torsions:
REMARK  status: ('A' for Active; 'I' for Inactive)
REMARK    1  A    between atoms: C_4  and  C_13
REMARK    2  A    between atoms: C_7  and  S_17
REMARK    3  A    between atoms: C_8  and  C_12
REMARK    4  A    between atoms: C_13  and  O_15
REMARK    5  A    between atoms: S_17  and  C_19
REMARK    6  A    between atoms: C_21  and  C_27
REMARK                            x       y       z     vdW  Elec       q    Type
REMARK                         _______ _______ _______ _____ _____    ______ ____
ROOT
ATOM      1  O   UNL     1      36.605 -20.839 -18.566  0.00  0.00    -0.274 OA
ATOM      2  N   UNL     1      35.368 -20.830 -20.573  0.00  0.00    -0.254 N 
ATOM      3  C   UNL     1      33.956 -21.256 -20.540  0.00  0.00    +0.095 C 
ATOM      4  C   UNL     1      34.212 -21.605 -19.039  0.00  0.00    +0.123 C 
ATOM      5  C   UNL     1      33.197 -20.052 -21.133  0.00  0.00    +0.049 C 
ATOM      6  C   UNL     1      35.644 -21.073 -19.263  0.00  0.00    +0.233 C 
ATOM      7  C   UNL     1      34.324 -19.153 -21.606  0.00  0.00    +0.024 C 
ATOM      8  C   UNL     1      35.515 -19.640 -21.227  0.00  0.00    +0.136 C 
ATOM      9  C   UNL     1      32.229 -19.388 -20.167  0.00  0.00    +0.007 C 
ENDROOT
BRANCH   8  12
ATOM     10  O   UNL     1      37.739 -19.302 -20.559  0.00  0.00    -0.239 OA
ATOM     11  O   UNL     1      36.952 -18.210 -22.409  0.00  0.00    -0.239 OA
ATOM     12  C   UNL     1      36.869 -18.985 -21.417  0.00  0.00    +0.401 C 
ENDBRANCH   8  12
BRANCH   4  13
ATOM     13  C   UNL     1      34.146 -23.016 -18.512  0.00  0.00    +0.121 C 
ATOM     14  C   UNL     1      33.081 -23.183 -17.432  0.00  0.00    +0.032 C 
BRANCH  13  15
ATOM     15  O   UNL     1      33.858 -23.918 -19.583  0.00  0.00    -0.384 OA
ATOM     16  H   UNL     1      34.569 -23.875 -20.242  0.00  0.00    +0.210 HD
ENDBRANCH  13  15
ENDBRANCH   4  13
BRANCH   7  17
ATOM     17  S   UNL     1      34.051 -17.705 -22.489  0.00  0.00    -0.120 S 
BRANCH  17  19
ATOM     18  N   UNL     1      32.448 -14.932 -21.812  0.00  0.00    +0.391 N 
ATOM     19  C   UNL     1      34.097 -16.486 -21.130  0.00  0.00    +0.029 C 
ATOM     20  C   UNL     1      34.825 -15.207 -21.540  0.00  0.00    -0.003 C 
ATOM     21  C   UNL     1      33.766 -14.289 -22.148  0.00  0.00    +0.018 C 
ATOM     22  C   UNL     1      32.704 -15.994 -20.788  0.00  0.00    -0.070 C 
ATOM     23  H   UNL     1      32.043 -15.351 -22.650  0.00  0.00    -0.084 HD
ATOM     24  H   UNL     1      31.795 -14.238 -21.451  0.00  0.00    -0.084 HD
BRANCH  21  27
ATOM     25  O   UNL     1      34.281 -15.076 -24.306  0.00  0.00    -0.277 OA
ATOM     26  N   UNL     1      33.574 -12.868 -24.144  0.00  0.00    -0.278 N 
ATOM     27  C   UNL     1      33.899 -14.122 -23.624  0.00  0.00    +0.206 C 
ATOM     28  C   UNL     1      33.661 -12.567 -25.567  0.00  0.00    +0.115 C 
ATOM     29  C   UNL     1      33.125 -11.764 -23.299  0.00  0.00    +0.115 C 
ENDBRANCH  21  27
ENDBRANCH  17  19
ENDBRANCH   7  17
TORSDOF 6
ENDMDL
MODEL 9
REMARK VINA RESULT:      -7.0     11.770     14.126
REMARK  Name = 40466974
REMARK  6 active torsions:
REMARK  status: ('A' for Active; 'I' for Inactive)
REMARK    1  A    between atoms: C_4  and  C_13
REMARK    2  A    between atoms: C_7  and  S_17
REMARK    3  A    between atoms: C_8  and  C_12
REMARK    4  A    between atoms: C_13  and  O_15
REMARK    5  A    between atoms: S_17  and  C_19
REMARK    6  A    between atoms: C_21  and  C_27
REMARK                            x       y       z     vdW  Elec       q    Type
REMARK                         _______ _______ _______ _____ _____    ______ ____
ROOT
ATOM      1  O   UNL     1      38.633 -25.722 -11.778  0.00  0.00    -0.274 OA
ATOM      2  N   UNL     1      37.414 -24.603 -13.459  0.00  0.00    -0.254 N 
ATOM      3  C   UNL     1      37.635 -24.981 -14.868  0.00  0.00    +0.095 C 
ATOM      4  C   UNL     1      38.760 -25.919 -14.325  0.00  0.00    +0.123 C 
ATOM      5  C   UNL     1      36.226 -25.357 -15.370  0.00  0.00    +0.049 C 
ATOM      6  C   UNL     1      38.350 -25.430 -12.918  0.00  0.00    +0.233 C 
ATOM      7  C   UNL     1      35.343 -24.956 -14.203  0.00  0.00    +0.024 C 
ATOM      8  C   UNL     1      36.083 -24.573 -13.153  0.00  0.00    +0.136 C 
ATOM      9  C   UNL     1      36.083 -26.809 -15.796  0.00  0.00    +0.007 C 
ENDROOT
BRANCH   8  12
ATOM     10  O   UNL     1      34.906 -25.091 -11.189  0.00  0.00    -0.239 OA
ATOM     11  O   UNL     1      35.903 -23.041 -11.385  0.00  0.00    -0.239 OA
ATOM     12  C   UNL     1      35.581 -24.197 -11.773  0.00  0.00    +0.401 C 
ENDBRANCH   8  12
BRANCH   4  13
ATOM     13  C   UNL     1      40.216 -25.715 -14.657  0.00  0.00    +0.121 C 
ATOM     14  C   UNL     1      41.116 -26.738 -13.969  0.00  0.00    +0.032 C 
BRANCH  13  15
ATOM     15  O   UNL     1      40.407 -25.812 -16.069  0.00  0.00    -0.384 OA
ATOM     16  H   UNL     1      39.909 -26.571 -16.412  0.00  0.00    +0.210 HD
ENDBRANCH  13  15
ENDBRANCH   4  13
BRANCH   7  17
ATOM     17  S   UNL     1      33.628 -25.024 -14.269  0.00  0.00    -0.120 S 
BRANCH  17  19
ATOM     18  N   UNL     1      31.057 -23.256 -13.278  0.00  0.00    +0.391 N 
ATOM     19  C   UNL     1      33.234 -23.241 -14.205  0.00  0.00    +0.029 C 
ATOM     20  C   UNL     1      32.267 -22.835 -15.316  0.00  0.00    -0.003 C 
ATOM     21  C   UNL     1      30.861 -23.029 -14.751  0.00  0.00    +0.018 C 
ATOM     22  C   UNL     1      32.470 -22.893 -12.942  0.00  0.00    -0.070 C 
ATOM     23  H   UNL     1      30.888 -24.237 -13.052  0.00  0.00    -0.084 HD
ATOM     24  H   UNL     1      30.405 -22.686 -12.739  0.00  0.00    -0.084 HD
BRANCH  21  27
ATOM     25  O   UNL     1      30.476 -25.328 -15.081  0.00  0.00    -0.277 OA
ATOM     26  N   UNL     1      29.076 -23.863 -16.221  0.00  0.00    -0.278 N 
ATOM     27  C   UNL     1      30.129 -24.177 -15.359  0.00  0.00    +0.206 C 
ATOM     28  C   UNL     1      28.278 -24.887 -16.882  0.00  0.00    +0.115 C 
ATOM     29  C   UNL     1      28.698 -22.485 -16.522  0.00  0.00    +0.115 C 
ENDBRANCH  21  27
ENDBRANCH  17  19
ENDBRANCH   7  17
TORSDOF 6
ENDMDL
