MODEL 1
REMARK VINA RESULT:      -9.8      0.000      0.000
REMARK  Name = 56649450
REMARK  4 active torsions:
REMARK  status: ('A' for Active; 'I' for Inactive)
REMARK    1  A    between atoms: C_6  and  C_31
REMARK    2  A    between atoms: C_12  and  C_19
REMARK    3  A    between atoms: C_17  and  C_22
REMARK    4  A    between atoms: C_22  and  C_28
REMARK                            x       y       z     vdW  Elec       q    Type
REMARK                         _______ _______ _______ _____ _____    ______ ____
ROOT
ATOM      1  S   UNL     1      36.236 -20.385 -19.458  0.00  0.00    -0.056 S 
ATOM      2  O   UNL     1      34.354 -23.663 -16.737  0.00  0.00    -0.252 OA
ATOM      3  N   UNL     1      36.469 -23.756 -15.838  0.00  0.00    -0.257 N 
ATOM      4  N   UNL     1      36.012 -22.257 -17.581  0.00  0.00    -0.239 N 
ATOM      5  N   UNL     1      34.055 -21.671 -18.937  0.00  0.00    -0.388 NA
ATOM      6  C   UNL     1      36.190 -24.904 -14.984  0.00  0.00    +0.153 C 
ATOM      7  C   UNL     1      37.562 -25.413 -14.559  0.00  0.00    +0.031 C 
ATOM      8  C   UNL     1      38.424 -24.154 -14.561  0.00  0.00    +0.024 C 
ATOM      9  C   UNL     1      37.870 -23.352 -15.729  0.00  0.00    +0.095 C 
ATOM     10  C   UNL     1      35.514 -23.246 -16.733  0.00  0.00    +0.310 C 
ATOM     11  C   UNL     1      35.317 -21.546 -18.590  0.00  0.00    +0.214 C 
ATOM     12  C   UNL     1      34.842 -20.008 -20.383  0.00  0.00    +0.126 C 
ATOM     13  C   UNL     1      33.784 -20.790 -19.965  0.00  0.00    +0.103 C 
ATOM     14  C   UNL     1      32.412 -20.767 -20.513  0.00  0.00    +0.063 C 
ATOM     15  H   UNL     1      36.962 -22.025 -17.464  0.00  0.00    +0.159 HD
ENDROOT
BRANCH  12  19
ATOM     16  N   UNL     1      35.067 -17.042 -23.399  0.00  0.00    -0.248 NA
ATOM     17  C   UNL     1      34.621 -16.760 -22.155  0.00  0.00    +0.066 C 
ATOM     18  C   UNL     1      34.528 -17.692 -21.135  0.00  0.00    +0.012 C 
ATOM     19  C   UNL     1      34.918 -18.999 -21.409  0.00  0.00    -0.003 C 
ATOM     20  C   UNL     1      35.382 -19.328 -22.678  0.00  0.00    +0.018 C 
ATOM     21  C   UNL     1      35.437 -18.322 -23.630  0.00  0.00    +0.098 C 
BRANCH  17  22
ATOM     22  C   UNL     1      34.213 -15.349 -21.897  0.00  0.00    +0.123 C 
ATOM     23  C   UNL     1      34.325 -14.459 -23.178  0.00  0.00    +0.014 C 
ATOM     24  C   UNL     1      35.069 -14.604 -20.817  0.00  0.00    +0.014 C 
BRANCH  22  28
ATOM     25  F   UNL     1      32.109 -16.471 -21.449  0.00  0.00    -0.170 F 
ATOM     26  F   UNL     1      32.671 -14.847 -20.119  0.00  0.00    -0.170 F 
ATOM     27  F   UNL     1      32.025 -14.412 -22.156  0.00  0.00    -0.170 F 
ATOM     28  C   UNL     1      32.740 -15.275 -21.398  0.00  0.00    +0.402 C 
ENDBRANCH  22  28
ENDBRANCH  17  22
ENDBRANCH  12  19
BRANCH   6  31
ATOM     29  O   UNL     1      35.898 -23.725 -12.925  0.00  0.00    -0.274 OA
ATOM     30  N   UNL     1      34.075 -24.793 -13.837  0.00  0.00    -0.327 N 
ATOM     31  C   UNL     1      35.394 -24.404 -13.816  0.00  0.00    +0.238 C 
ATOM     32  H   UNL     1      33.469 -24.515 -13.112  0.00  0.00    +0.145 HD
ATOM     33  H   UNL     1      33.737 -25.349 -14.576  0.00  0.00    +0.145 HD
ENDBRANCH   6  31
TORSDOF 4
ENDMDL
MODEL 2
REMARK VINA RESULT:      -9.1      7.242     12.156
REMARK  Name = 56649450
REMARK  4 active torsions:
REMARK  status: ('A' for Active; 'I' for Inactive)
REMARK    1  A    between atoms: C_6  and  C_31
REMARK    2  A    between atoms: C_12  and  C_19
REMARK    3  A    between atoms: C_17  and  C_22
REMARK    4  A    between atoms: C_22  and  C_28
REMARK                            x       y       z     vdW  Elec       q    Type
REMARK                         _______ _______ _______ _____ _____    ______ ____
ROOT
ATOM      1  S   UNL     1      33.674 -13.420 -22.793  0.00  0.00    -0.056 S 
ATOM      2  O   UNL     1      32.227  -9.378 -24.598  0.00  0.00    -0.252 OA
ATOM      3  N   UNL     1      32.359  -8.661 -22.417  0.00  0.00    -0.257 N 
ATOM      4  N   UNL     1      32.916 -10.875 -22.948  0.00  0.00    -0.239 N 
ATOM      5  N   UNL     1      32.990 -12.235 -24.987  0.00  0.00    -0.388 NA
ATOM      6  C   UNL     1      31.771  -7.354 -22.680  0.00  0.00    +0.153 C 
ATOM      7  C   UNL     1      31.388  -6.817 -21.306  0.00  0.00    +0.031 C 
ATOM      8  C   UNL     1      32.414  -7.459 -20.377  0.00  0.00    +0.024 C 
ATOM      9  C   UNL     1      32.632  -8.834 -20.990  0.00  0.00    +0.095 C 
ATOM     10  C   UNL     1      32.485  -9.635 -23.421  0.00  0.00    +0.310 C 
ATOM     11  C   UNL     1      33.141 -12.059 -23.693  0.00  0.00    +0.214 C 
ATOM     12  C   UNL     1      33.711 -14.334 -24.244  0.00  0.00    +0.126 C 
ATOM     13  C   UNL     1      33.316 -13.540 -25.301  0.00  0.00    +0.103 C 
ATOM     14  C   UNL     1      33.214 -13.956 -26.715  0.00  0.00    +0.063 C 
ATOM     15  H   UNL     1      33.084 -10.934 -21.979  0.00  0.00    +0.159 HD
ENDROOT
BRANCH  12  19
ATOM     16  N   UNL     1      34.903 -18.398 -24.134  0.00  0.00    -0.248 NA
ATOM     17  C   UNL     1      34.930 -17.618 -23.031  0.00  0.00    +0.066 C 
ATOM     18  C   UNL     1      34.551 -16.286 -23.014  0.00  0.00    +0.012 C 
ATOM     19  C   UNL     1      34.117 -15.716 -24.206  0.00  0.00    -0.003 C 
ATOM     20  C   UNL     1      34.076 -16.488 -25.363  0.00  0.00    +0.018 C 
ATOM     21  C   UNL     1      34.477 -17.811 -25.275  0.00  0.00    +0.098 C 
BRANCH  17  22
ATOM     22  C   UNL     1      35.400 -18.261 -21.770  0.00  0.00    +0.123 C 
ATOM     23  C   UNL     1      35.291 -17.300 -20.542  0.00  0.00    +0.014 C 
ATOM     24  C   UNL     1      36.897 -18.722 -21.785  0.00  0.00    +0.014 C 
BRANCH  22  28
ATOM     25  F   UNL     1      33.239 -19.360 -21.656  0.00  0.00    -0.170 F 
ATOM     26  F   UNL     1      34.948 -20.584 -22.207  0.00  0.00    -0.170 F 
ATOM     27  F   UNL     1      34.722 -19.890 -20.151  0.00  0.00    -0.170 F 
ATOM     28  C   UNL     1      34.564 -19.535 -21.447  0.00  0.00    +0.402 C 
ENDBRANCH  22  28
ENDBRANCH  17  22
ENDBRANCH  12  19
BRANCH   6  31
ATOM     29  O   UNL     1      34.007  -6.857 -23.362  0.00  0.00    -0.274 OA
ATOM     30  N   UNL     1      32.352  -5.340 -23.866  0.00  0.00    -0.327 N 
ATOM     31  C   UNL     1      32.828  -6.515 -23.332  0.00  0.00    +0.238 C 
ATOM     32  H   UNL     1      32.969  -4.718 -24.316  0.00  0.00    +0.145 HD
ATOM     33  H   UNL     1      31.395  -5.119 -23.797  0.00  0.00    +0.145 HD
ENDBRANCH   6  31
TORSDOF 4
ENDMDL
MODEL 3
REMARK VINA RESULT:      -9.0      7.440     12.641
REMARK  Name = 56649450
REMARK  4 active torsions:
REMARK  status: ('A' for Active; 'I' for Inactive)
REMARK    1  A    between atoms: C_6  and  C_31
REMARK    2  A    between atoms: C_12  and  C_19
REMARK    3  A    between atoms: C_17  and  C_22
REMARK    4  A    between atoms: C_22  and  C_28
REMARK                            x       y       z     vdW  Elec       q    Type
REMARK                         _______ _______ _______ _____ _____    ______ ____
ROOT
ATOM      1  S   UNL     1      33.798 -12.375 -24.341  0.00  0.00    -0.056 S 
ATOM      2  O   UNL     1      31.773  -9.101 -21.720  0.00  0.00    -0.252 OA
ATOM      3  N   UNL     1      32.515  -7.691 -23.379  0.00  0.00    -0.257 N 
ATOM      4  N   UNL     1      32.955  -9.988 -23.525  0.00  0.00    -0.239 N 
ATOM      5  N   UNL     1      32.471 -11.967 -22.160  0.00  0.00    -0.388 NA
ATOM      6  C   UNL     1      32.116  -6.469 -22.690  0.00  0.00    +0.153 C 
ATOM      7  C   UNL     1      32.855  -5.354 -23.420  0.00  0.00    +0.031 C 
ATOM      8  C   UNL     1      32.991  -5.890 -24.842  0.00  0.00    +0.024 C 
ATOM      9  C   UNL     1      33.195  -7.383 -24.637  0.00  0.00    +0.095 C 
ATOM     10  C   UNL     1      32.369  -8.957 -22.789  0.00  0.00    +0.310 C 
ATOM     11  C   UNL     1      32.988 -11.369 -23.211  0.00  0.00    +0.214 C 
ATOM     12  C   UNL     1      33.438 -13.731 -23.355  0.00  0.00    +0.126 C 
ATOM     13  C   UNL     1      32.731 -13.321 -22.244  0.00  0.00    +0.103 C 
ATOM     14  C   UNL     1      32.237 -14.188 -21.154  0.00  0.00    +0.063 C 
ATOM     15  H   UNL     1      33.399  -9.724 -24.363  0.00  0.00    +0.159 HD
ENDROOT
BRANCH  12  19
ATOM     16  N   UNL     1      34.718 -17.590 -24.548  0.00  0.00    -0.248 NA
ATOM     17  C   UNL     1      34.848 -17.159 -23.273  0.00  0.00    +0.066 C 
ATOM     18  C   UNL     1      34.446 -15.908 -22.833  0.00  0.00    +0.012 C 
ATOM     19  C   UNL     1      33.874 -15.044 -23.761  0.00  0.00    -0.003 C 
ATOM     20  C   UNL     1      33.724 -15.452 -25.082  0.00  0.00    +0.018 C 
ATOM     21  C   UNL     1      34.159 -16.723 -25.422  0.00  0.00    +0.098 C 
BRANCH  17  22
ATOM     22  C   UNL     1      35.464 -18.112 -22.306  0.00  0.00    +0.123 C 
ATOM     23  C   UNL     1      35.362 -17.603 -20.831  0.00  0.00    +0.014 C 
ATOM     24  C   UNL     1      36.991 -18.382 -22.530  0.00  0.00    +0.014 C 
BRANCH  22  28
ATOM     25  F   UNL     1      34.875 -20.083 -23.592  0.00  0.00    -0.170 F 
ATOM     26  F   UNL     1      35.302 -20.367 -21.480  0.00  0.00    -0.170 F 
ATOM     27  F   UNL     1      33.451 -19.391 -22.096  0.00  0.00    -0.170 F 
ATOM     28  C   UNL     1      34.770 -19.504 -22.373  0.00  0.00    +0.402 C 
ENDBRANCH  22  28
ENDBRANCH  17  22
ENDBRANCH  12  19
BRANCH   6  31
ATOM     29  O   UNL     1      29.983  -7.071 -23.584  0.00  0.00    -0.274 OA
ATOM     30  N   UNL     1      30.081  -5.335 -22.079  0.00  0.00    -0.327 N 
ATOM     31  C   UNL     1      30.630  -6.342 -22.837  0.00  0.00    +0.238 C 
ATOM     32  H   UNL     1      29.111  -5.171 -22.107  0.00  0.00    +0.145 HD
ATOM     33  H   UNL     1      30.659  -4.777 -21.509  0.00  0.00    +0.145 HD
ENDBRANCH   6  31
TORSDOF 4
ENDMDL
MODEL 4
REMARK VINA RESULT:      -8.7      7.178     11.931
REMARK  Name = 56649450
REMARK  4 active torsions:
REMARK  status: ('A' for Active; 'I' for Inactive)
REMARK    1  A    between atoms: C_6  and  C_31
REMARK    2  A    between atoms: C_12  and  C_19
REMARK    3  A    between atoms: C_17  and  C_22
REMARK    4  A    between atoms: C_22  and  C_28
REMARK                            x       y       z     vdW  Elec       q    Type
REMARK                         _______ _______ _______ _____ _____    ______ ____
ROOT
ATOM      1  S   UNL     1      33.560 -13.761 -22.741  0.00  0.00    -0.056 S 
ATOM      2  O   UNL     1      32.335  -9.602 -24.442  0.00  0.00    -0.252 OA
ATOM      3  N   UNL     1      32.383  -8.979 -22.229  0.00  0.00    -0.257 N 
ATOM      4  N   UNL     1      32.893 -11.187 -22.824  0.00  0.00    -0.239 N 
ATOM      5  N   UNL     1      33.024 -12.465 -24.913  0.00  0.00    -0.388 NA
ATOM      6  C   UNL     1      31.850  -7.643 -22.465  0.00  0.00    +0.153 C 
ATOM      7  C   UNL     1      31.418  -7.149 -21.089  0.00  0.00    +0.031 C 
ATOM      8  C   UNL     1      32.376  -7.863 -20.139  0.00  0.00    +0.024 C 
ATOM      9  C   UNL     1      32.579  -9.218 -20.799  0.00  0.00    +0.095 C 
ATOM     10  C   UNL     1      32.526  -9.915 -23.266  0.00  0.00    +0.310 C 
ATOM     11  C   UNL     1      33.116 -12.348 -23.607  0.00  0.00    +0.214 C 
ATOM     12  C   UNL     1      33.639 -14.616 -24.225  0.00  0.00    +0.126 C 
ATOM     13  C   UNL     1      33.323 -13.767 -25.266  0.00  0.00    +0.103 C 
ATOM     14  C   UNL     1      33.277 -14.122 -26.700  0.00  0.00    +0.063 C 
ATOM     15  H   UNL     1      33.012 -11.291 -21.853  0.00  0.00    +0.159 HD
ENDROOT
BRANCH  12  19
ATOM     16  N   UNL     1      34.693 -18.720 -24.229  0.00  0.00    -0.248 NA
ATOM     17  C   UNL     1      34.483 -18.039 -23.081  0.00  0.00    +0.066 C 
ATOM     18  C   UNL     1      34.137 -16.699 -23.025  0.00  0.00    +0.012 C 
ATOM     19  C   UNL     1      33.998 -16.012 -24.226  0.00  0.00    -0.003 C 
ATOM     20  C   UNL     1      34.207 -16.678 -25.430  0.00  0.00    +0.018 C 
ATOM     21  C   UNL     1      34.549 -18.020 -25.377  0.00  0.00    +0.098 C 
BRANCH  17  22
ATOM     22  C   UNL     1      34.640 -18.808 -21.812  0.00  0.00    +0.123 C 
ATOM     23  C   UNL     1      34.725 -20.349 -22.064  0.00  0.00    +0.014 C 
ATOM     24  C   UNL     1      33.467 -18.634 -20.789  0.00  0.00    +0.014 C 
BRANCH  22  28
ATOM     25  F   UNL     1      36.970 -18.137 -21.888  0.00  0.00    -0.170 F 
ATOM     26  F   UNL     1      35.735 -17.259 -20.331  0.00  0.00    -0.170 F 
ATOM     27  F   UNL     1      36.325 -19.354 -20.201  0.00  0.00    -0.170 F 
ATOM     28  C   UNL     1      35.932 -18.382 -21.056  0.00  0.00    +0.402 C 
ENDBRANCH  22  28
ENDBRANCH  17  22
ENDBRANCH  12  19
BRANCH   6  31
ATOM     29  O   UNL     1      34.137  -7.175 -22.977  0.00  0.00    -0.274 OA
ATOM     30  N   UNL     1      32.548  -5.627 -23.583  0.00  0.00    -0.327 N 
ATOM     31  C   UNL     1      32.965  -6.814 -23.029  0.00  0.00    +0.238 C 
ATOM     32  H   UNL     1      33.206  -5.011 -23.981  0.00  0.00    +0.145 HD
ATOM     33  H   UNL     1      31.591  -5.391 -23.581  0.00  0.00    +0.145 HD
ENDBRANCH   6  31
TORSDOF 4
ENDMDL
MODEL 5
REMARK VINA RESULT:      -8.7      2.044      3.143
REMARK  Name = 56649450
REMARK  4 active torsions:
REMARK  status: ('A' for Active; 'I' for Inactive)
REMARK    1  A    between atoms: C_6  and  C_31
REMARK    2  A    between atoms: C_12  and  C_19
REMARK    3  A    between atoms: C_17  and  C_22
REMARK    4  A    between atoms: C_22  and  C_28
REMARK                            x       y       z     vdW  Elec       q    Type
REMARK                         _______ _______ _______ _____ _____    ______ ____
ROOT
ATOM      1  S   UNL     1      36.119 -21.986 -18.177  0.00  0.00    -0.056 S 
ATOM      2  O   UNL     1      35.777 -24.950 -14.600  0.00  0.00    -0.252 OA
ATOM      3  N   UNL     1      38.068 -24.755 -14.565  0.00  0.00    -0.257 N 
ATOM      4  N   UNL     1      36.827 -23.569 -16.160  0.00  0.00    -0.239 N 
ATOM      5  N   UNL     1      34.454 -23.334 -16.730  0.00  0.00    -0.388 NA
ATOM      6  C   UNL     1      38.263 -25.780 -13.547  0.00  0.00    +0.153 C 
ATOM      7  C   UNL     1      39.747 -26.120 -13.619  0.00  0.00    +0.031 C 
ATOM      8  C   UNL     1      40.388 -24.817 -14.087  0.00  0.00    +0.024 C 
ATOM      9  C   UNL     1      39.352 -24.239 -15.040  0.00  0.00    +0.095 C 
ATOM     10  C   UNL     1      36.798 -24.454 -15.082  0.00  0.00    +0.310 C 
ATOM     11  C   UNL     1      35.729 -23.068 -16.903  0.00  0.00    +0.214 C 
ATOM     12  C   UNL     1      34.448 -21.852 -18.541  0.00  0.00    +0.126 C 
ATOM     13  C   UNL     1      33.720 -22.637 -17.671  0.00  0.00    +0.103 C 
ATOM     14  C   UNL     1      32.252 -22.795 -17.657  0.00  0.00    +0.063 C 
ATOM     15  H   UNL     1      37.718 -23.254 -16.438  0.00  0.00    +0.159 HD
ENDROOT
BRANCH  12  19
ATOM     16  N   UNL     1      33.189 -19.360 -21.728  0.00  0.00    -0.248 NA
ATOM     17  C   UNL     1      34.485 -19.432 -21.349  0.00  0.00    +0.066 C 
ATOM     18  C   UNL     1      34.947 -20.230 -20.315  0.00  0.00    +0.012 C 
ATOM     19  C   UNL     1      34.020 -21.004 -19.625  0.00  0.00    -0.003 C 
ATOM     20  C   UNL     1      32.678 -20.957 -19.986  0.00  0.00    +0.018 C 
ATOM     21  C   UNL     1      32.317 -20.126 -21.035  0.00  0.00    +0.098 C 
BRANCH  17  22
ATOM     22  C   UNL     1      35.450 -18.589 -22.112  0.00  0.00    +0.123 C 
ATOM     23  C   UNL     1      35.422 -18.900 -23.643  0.00  0.00    +0.014 C 
ATOM     24  C   UNL     1      36.950 -18.768 -21.696  0.00  0.00    +0.014 C 
BRANCH  22  28
ATOM     25  F   UNL     1      35.395 -16.631 -20.680  0.00  0.00    -0.170 F 
ATOM     26  F   UNL     1      35.860 -16.314 -22.779  0.00  0.00    -0.170 F 
ATOM     27  F   UNL     1      33.828 -16.830 -22.180  0.00  0.00    -0.170 F 
ATOM     28  C   UNL     1      35.135 -17.075 -21.931  0.00  0.00    +0.402 C 
ENDBRANCH  22  28
ENDBRANCH  17  22
ENDBRANCH  12  19
BRANCH   6  31
ATOM     29  O   UNL     1      38.689 -24.503 -11.572  0.00  0.00    -0.274 OA
ATOM     30  N   UNL     1      36.608 -25.448 -11.830  0.00  0.00    -0.327 N 
ATOM     31  C   UNL     1      37.894 -25.171 -12.228  0.00  0.00    +0.238 C 
ATOM     32  H   UNL     1      36.270 -25.093 -10.975  0.00  0.00    +0.145 HD
ATOM     33  H   UNL     1      36.025 -26.003 -12.398  0.00  0.00    +0.145 HD
ENDBRANCH   6  31
TORSDOF 4
ENDMDL
MODEL 6
REMARK VINA RESULT:      -8.7      5.580     10.997
REMARK  Name = 56649450
REMARK  4 active torsions:
REMARK  status: ('A' for Active; 'I' for Inactive)
REMARK    1  A    between atoms: C_6  and  C_31
REMARK    2  A    between atoms: C_12  and  C_19
REMARK    3  A    between atoms: C_17  and  C_22
REMARK    4  A    between atoms: C_22  and  C_28
REMARK                            x       y       z     vdW  Elec       q    Type
REMARK                         _______ _______ _______ _____ _____    ______ ____
ROOT
ATOM      1  S   UNL     1      33.170 -15.797 -21.150  0.00  0.00    -0.056 S 
ATOM      2  O   UNL     1      34.028 -12.634 -24.460  0.00  0.00    -0.252 OA
ATOM      3  N   UNL     1      32.904 -11.225 -23.032  0.00  0.00    -0.257 N 
ATOM      4  N   UNL     1      33.210 -13.472 -22.442  0.00  0.00    -0.239 N 
ATOM      5  N   UNL     1      34.271 -15.434 -23.461  0.00  0.00    -0.388 NA
ATOM      6  C   UNL     1      32.889 -10.098 -23.957  0.00  0.00    +0.153 C 
ATOM      7  C   UNL     1      31.848  -9.142 -23.387  0.00  0.00    +0.031 C 
ATOM      8  C   UNL     1      31.907  -9.407 -21.885  0.00  0.00    +0.024 C 
ATOM      9  C   UNL     1      32.179 -10.901 -21.803  0.00  0.00    +0.095 C 
ATOM     10  C   UNL     1      33.432 -12.475 -23.393  0.00  0.00    +0.310 C 
ATOM     11  C   UNL     1      33.608 -14.831 -22.499  0.00  0.00    +0.214 C 
ATOM     12  C   UNL     1      33.924 -17.142 -21.899  0.00  0.00    +0.126 C 
ATOM     13  C   UNL     1      34.451 -16.760 -23.116  0.00  0.00    +0.103 C 
ATOM     14  C   UNL     1      35.177 -17.628 -24.065  0.00  0.00    +0.063 C 
ATOM     15  H   UNL     1      32.717 -13.199 -21.635  0.00  0.00    +0.159 HD
ENDROOT
BRANCH  12  19
ATOM     16  N   UNL     1      33.933 -20.899 -19.940  0.00  0.00    -0.248 NA
ATOM     17  C   UNL     1      35.080 -20.286 -20.310  0.00  0.00    +0.066 C 
ATOM     18  C   UNL     1      35.130 -19.059 -20.952  0.00  0.00    +0.012 C 
ATOM     19  C   UNL     1      33.927 -18.420 -21.233  0.00  0.00    -0.003 C 
ATOM     20  C   UNL     1      32.727 -19.021 -20.868  0.00  0.00    +0.018 C 
ATOM     21  C   UNL     1      32.783 -20.249 -20.230  0.00  0.00    +0.098 C 
BRANCH  17  22
ATOM     22  C   UNL     1      36.350 -20.999 -19.992  0.00  0.00    +0.123 C 
ATOM     23  C   UNL     1      37.610 -20.143 -20.345  0.00  0.00    +0.014 C 
ATOM     24  C   UNL     1      36.557 -22.349 -20.760  0.00  0.00    +0.014 C 
BRANCH  22  28
ATOM     25  F   UNL     1      35.225 -21.675 -17.952  0.00  0.00    -0.170 F 
ATOM     26  F   UNL     1      37.250 -22.402 -18.257  0.00  0.00    -0.170 F 
ATOM     27  F   UNL     1      36.908 -20.304 -17.770  0.00  0.00    -0.170 F 
ATOM     28  C   UNL     1      36.429 -21.353 -18.478  0.00  0.00    +0.402 C 
ENDBRANCH  22  28
ENDBRANCH  17  22
ENDBRANCH  12  19
BRANCH   6  31
ATOM     29  O   UNL     1      34.557  -8.554 -23.215  0.00  0.00    -0.274 OA
ATOM     30  N   UNL     1      35.134 -10.087 -24.830  0.00  0.00    -0.327 N 
ATOM     31  C   UNL     1      34.263  -9.497 -23.945  0.00  0.00    +0.238 C 
ATOM     32  H   UNL     1      36.062  -9.763 -24.898  0.00  0.00    +0.145 HD
ATOM     33  H   UNL     1      34.830 -10.833 -25.397  0.00  0.00    +0.145 HD
ENDBRANCH   6  31
TORSDOF 4
ENDMDL
MODEL 7
REMARK VINA RESULT:      -8.5      7.017     12.180
REMARK  Name = 56649450
REMARK  4 active torsions:
REMARK  status: ('A' for Active; 'I' for Inactive)
REMARK    1  A    between atoms: C_6  and  C_31
REMARK    2  A    between atoms: C_12  and  C_19
REMARK    3  A    between atoms: C_17  and  C_22
REMARK    4  A    between atoms: C_22  and  C_28
REMARK                            x       y       z     vdW  Elec       q    Type
REMARK                         _______ _______ _______ _____ _____    ______ ____
ROOT
ATOM      1  S   UNL     1      34.083 -13.150 -24.281  0.00  0.00    -0.056 S 
ATOM      2  O   UNL     1      31.991  -9.808 -21.800  0.00  0.00    -0.252 OA
ATOM      3  N   UNL     1      32.925  -8.421 -23.378  0.00  0.00    -0.257 N 
ATOM      4  N   UNL     1      33.278 -10.734 -23.512  0.00  0.00    -0.239 N 
ATOM      5  N   UNL     1      32.601 -12.699 -22.210  0.00  0.00    -0.388 NA
ATOM      6  C   UNL     1      32.524  -7.188 -22.712  0.00  0.00    +0.153 C 
ATOM      7  C   UNL     1      33.366  -6.100 -23.369  0.00  0.00    +0.031 C 
ATOM      8  C   UNL     1      33.594  -6.632 -24.781  0.00  0.00    +0.024 C 
ATOM      9  C   UNL     1      33.718  -8.134 -24.574  0.00  0.00    +0.095 C 
ATOM     10  C   UNL     1      32.678  -9.683 -22.816  0.00  0.00    +0.310 C 
ATOM     11  C   UNL     1      33.227 -12.117 -23.210  0.00  0.00    +0.214 C 
ATOM     12  C   UNL     1      33.587 -14.496 -23.341  0.00  0.00    +0.126 C 
ATOM     13  C   UNL     1      32.810 -14.063 -22.286  0.00  0.00    +0.103 C 
ATOM     14  C   UNL     1      32.193 -14.914 -21.248  0.00  0.00    +0.063 C 
ATOM     15  H   UNL     1      33.799 -10.483 -24.308  0.00  0.00    +0.159 HD
ENDROOT
BRANCH  12  19
ATOM     16  N   UNL     1      34.795 -18.398 -24.464  0.00  0.00    -0.248 NA
ATOM     17  C   UNL     1      34.661 -18.039 -23.168  0.00  0.00    +0.066 C 
ATOM     18  C   UNL     1      34.269 -16.778 -22.749  0.00  0.00    +0.012 C 
ATOM     19  C   UNL     1      33.998 -15.823 -23.722  0.00  0.00    -0.003 C 
ATOM     20  C   UNL     1      34.126 -16.155 -25.068  0.00  0.00    +0.018 C 
ATOM     21  C   UNL     1      34.524 -17.443 -25.383  0.00  0.00    +0.098 C 
BRANCH  17  22
ATOM     22  C   UNL     1      34.959 -19.089 -22.151  0.00  0.00    +0.123 C 
ATOM     23  C   UNL     1      35.478 -20.411 -22.804  0.00  0.00    +0.014 C 
ATOM     24  C   UNL     1      33.733 -19.528 -21.280  0.00  0.00    +0.014 C 
BRANCH  22  28
ATOM     25  F   UNL     1      36.349 -19.533 -20.213  0.00  0.00    -0.170 F 
ATOM     26  F   UNL     1      37.195 -18.282 -21.776  0.00  0.00    -0.170 F 
ATOM     27  F   UNL     1      35.620 -17.499 -20.487  0.00  0.00    -0.170 F 
ATOM     28  C   UNL     1      36.044 -18.602 -21.146  0.00  0.00    +0.402 C 
ENDBRANCH  22  28
ENDBRANCH  17  22
ENDBRANCH  12  19
BRANCH   6  31
ATOM     29  O   UNL     1      30.414  -7.781 -23.666  0.00  0.00    -0.274 OA
ATOM     30  N   UNL     1      30.536  -5.865 -22.399  0.00  0.00    -0.327 N 
ATOM     31  C   UNL     1      31.061  -6.996 -22.978  0.00  0.00    +0.238 C 
ATOM     32  H   UNL     1      29.582  -5.650 -22.515  0.00  0.00    +0.145 HD
ATOM     33  H   UNL     1      31.113  -5.269 -21.869  0.00  0.00    +0.145 HD
ENDBRANCH   6  31
TORSDOF 4
ENDMDL
MODEL 8
REMARK VINA RESULT:      -8.5      1.811      2.574
REMARK  Name = 56649450
REMARK  4 active torsions:
REMARK  status: ('A' for Active; 'I' for Inactive)
REMARK    1  A    between atoms: C_6  and  C_31
REMARK    2  A    between atoms: C_12  and  C_19
REMARK    3  A    between atoms: C_17  and  C_22
REMARK    4  A    between atoms: C_22  and  C_28
REMARK                            x       y       z     vdW  Elec       q    Type
REMARK                         _______ _______ _______ _____ _____    ______ ____
ROOT
ATOM      1  S   UNL     1      37.152 -21.349 -17.655  0.00  0.00    -0.056 S 
ATOM      2  O   UNL     1      34.955 -24.587 -15.129  0.00  0.00    -0.252 OA
ATOM      3  N   UNL     1      36.791 -24.383 -13.759  0.00  0.00    -0.257 N 
ATOM      4  N   UNL     1      36.643 -23.082 -15.702  0.00  0.00    -0.239 N 
ATOM      5  N   UNL     1      35.027 -22.816 -17.528  0.00  0.00    -0.388 NA
ATOM      6  C   UNL     1      36.413 -25.484 -12.881  0.00  0.00    +0.153 C 
ATOM      7  C   UNL     1      37.680 -25.808 -12.099  0.00  0.00    +0.031 C 
ATOM      8  C   UNL     1      38.407 -24.468 -12.029  0.00  0.00    +0.024 C 
ATOM      9  C   UNL     1      38.085 -23.824 -13.368  0.00  0.00    +0.095 C 
ATOM     10  C   UNL     1      36.040 -24.049 -14.898  0.00  0.00    +0.310 C 
ATOM     11  C   UNL     1      36.153 -22.530 -16.912  0.00  0.00    +0.214 C 
ATOM     12  C   UNL     1      35.995 -21.196 -18.912  0.00  0.00    +0.126 C 
ATOM     13  C   UNL     1      34.939 -22.051 -18.675  0.00  0.00    +0.103 C 
ATOM     14  C   UNL     1      33.743 -22.218 -19.526  0.00  0.00    +0.063 C 
ATOM     15  H   UNL     1      37.512 -22.741 -15.392  0.00  0.00    +0.159 HD
ENDROOT
BRANCH  12  19
ATOM     16  N   UNL     1      36.688 -18.466 -22.077  0.00  0.00    -0.248 NA
ATOM     17  C   UNL     1      35.455 -18.656 -21.558  0.00  0.00    +0.066 C 
ATOM     18  C   UNL     1      35.176 -19.535 -20.524  0.00  0.00    +0.012 C 
ATOM     19  C   UNL     1      36.231 -20.268 -19.989  0.00  0.00    -0.003 C 
ATOM     20  C   UNL     1      37.514 -20.100 -20.498  0.00  0.00    +0.018 C 
ATOM     21  C   UNL     1      37.688 -19.195 -21.533  0.00  0.00    +0.098 C 
BRANCH  17  22
ATOM     22  C   UNL     1      34.348 -17.854 -22.155  0.00  0.00    +0.123 C 
ATOM     23  C   UNL     1      32.942 -18.442 -21.810  0.00  0.00    +0.014 C 
ATOM     24  C   UNL     1      34.372 -17.763 -23.718  0.00  0.00    +0.014 C 
BRANCH  22  28
ATOM     25  F   UNL     1      34.953 -15.534 -22.527  0.00  0.00    -0.170 F 
ATOM     26  F   UNL     1      33.141 -15.918 -21.388  0.00  0.00    -0.170 F 
ATOM     27  F   UNL     1      35.093 -16.300 -20.493  0.00  0.00    -0.170 F 
ATOM     28  C   UNL     1      34.384 -16.385 -21.642  0.00  0.00    +0.402 C 
ENDBRANCH  22  28
ENDBRANCH  17  22
ENDBRANCH  12  19
BRANCH   6  31
ATOM     29  O   UNL     1      35.461 -24.892 -10.770  0.00  0.00    -0.274 OA
ATOM     30  N   UNL     1      34.161 -24.659 -12.654  0.00  0.00    -0.327 N 
ATOM     31  C   UNL     1      35.319 -24.983 -11.987  0.00  0.00    +0.238 C 
ATOM     32  H   UNL     1      33.383 -24.321 -12.155  0.00  0.00    +0.145 HD
ATOM     33  H   UNL     1      34.110 -24.768 -13.632  0.00  0.00    +0.145 HD
ENDBRANCH   6  31
TORSDOF 4
ENDMDL
MODEL 9
REMARK VINA RESULT:      -8.5      6.530     10.128
REMARK  Name = 56649450
REMARK  4 active torsions:
REMARK  status: ('A' for Active; 'I' for Inactive)
REMARK    1  A    between atoms: C_6  and  C_31
REMARK    2  A    between atoms: C_12  and  C_19
REMARK    3  A    between atoms: C_17  and  C_22
REMARK    4  A    between atoms: C_22  and  C_28
REMARK                            x       y       z     vdW  Elec       q    Type
REMARK                         _______ _______ _______ _____ _____    ______ ____
ROOT
ATOM      1  S   UNL     1      34.218 -11.906 -23.918  0.00  0.00    -0.056 S 
ATOM      2  O   UNL     1      32.552 -15.690 -21.774  0.00  0.00    -0.252 OA
ATOM      3  N   UNL     1      34.157 -16.774 -23.014  0.00  0.00    -0.257 N 
ATOM      4  N   UNL     1      33.916 -14.450 -23.204  0.00  0.00    -0.239 N 
ATOM      5  N   UNL     1      32.465 -12.741 -22.211  0.00  0.00    -0.388 NA
ATOM      6  C   UNL     1      33.734 -18.112 -22.623  0.00  0.00    +0.153 C 
ATOM      7  C   UNL     1      34.406 -19.041 -23.626  0.00  0.00    +0.031 C 
ATOM      8  C   UNL     1      35.683 -18.294 -24.000  0.00  0.00    +0.024 C 
ATOM      9  C   UNL     1      35.255 -16.835 -23.980  0.00  0.00    +0.095 C 
ATOM     10  C   UNL     1      33.466 -15.624 -22.598  0.00  0.00    +0.310 C 
ATOM     11  C   UNL     1      33.435 -13.132 -23.007  0.00  0.00    +0.214 C 
ATOM     12  C   UNL     1      33.182 -10.744 -23.199  0.00  0.00    +0.126 C 
ATOM     13  C   UNL     1      32.320 -11.371 -22.322  0.00  0.00    +0.103 C 
ATOM     14  C   UNL     1      31.274 -10.719 -21.508  0.00  0.00    +0.063 C 
ATOM     15  H   UNL     1      34.656 -14.550 -23.845  0.00  0.00    +0.159 HD
ENDROOT
BRANCH  12  19
ATOM     16  N   UNL     1      33.567  -6.657 -24.246  0.00  0.00    -0.248 NA
ATOM     17  C   UNL     1      32.410  -7.163 -23.764  0.00  0.00    +0.066 C 
ATOM     18  C   UNL     1      32.233  -8.489 -23.408  0.00  0.00    +0.012 C 
ATOM     19  C   UNL     1      33.312  -9.354 -23.555  0.00  0.00    -0.003 C 
ATOM     20  C   UNL     1      34.520  -8.870 -24.048  0.00  0.00    +0.018 C 
ATOM     21  C   UNL     1      34.595  -7.526 -24.376  0.00  0.00    +0.098 C 
BRANCH  17  22
ATOM     22  C   UNL     1      31.273  -6.207 -23.619  0.00  0.00    +0.123 C 
ATOM     23  C   UNL     1      29.897  -6.941 -23.508  0.00  0.00    +0.014 C 
ATOM     24  C   UNL     1      31.098  -5.207 -24.812  0.00  0.00    +0.014 C 
BRANCH  22  28
ATOM     25  F   UNL     1      30.277  -5.128 -21.687  0.00  0.00    -0.170 F 
ATOM     26  F   UNL     1      32.301  -5.888 -21.466  0.00  0.00    -0.170 F 
ATOM     27  F   UNL     1      31.931  -4.109 -22.672  0.00  0.00    -0.170 F 
ATOM     28  C   UNL     1      31.443  -5.328 -22.346  0.00  0.00    +0.402 C 
ENDBRANCH  22  28
ENDBRANCH  17  22
ENDBRANCH  12  19
BRANCH   6  31
ATOM     29  O   UNL     1      35.038 -17.592 -20.689  0.00  0.00    -0.274 OA
ATOM     30  N   UNL     1      33.714 -19.473 -20.635  0.00  0.00    -0.327 N 
ATOM     31  C   UNL     1      34.231 -18.344 -21.228  0.00  0.00    +0.238 C 
ATOM     32  H   UNL     1      33.981 -19.713 -19.718  0.00  0.00    +0.145 HD
ATOM     33  H   UNL     1      33.080 -20.042 -21.129  0.00  0.00    +0.145 HD
ENDBRANCH   6  31
TORSDOF 4
ENDMDL
