MODEL 1
REMARK VINA RESULT:      -5.8      0.000      0.000
REMARK  Name = 16750083
REMARK  6 active torsions:
REMARK  status: ('A' for Active; 'I' for Inactive)
REMARK    1  A    between atoms: N_2  and  CA_5
REMARK    2  A    between atoms: C_3  and  C_11
REMARK    3  A    between atoms: CA_5  and  C_8
REMARK    4  A    between atoms: C_8  and  O_9
REMARK    5  A    between atoms: C_11  and  C_12
REMARK    6  A    between atoms: C_12  and  S_13
REMARK                            x       y       z     vdW  Elec       q    Type
REMARK                         _______ _______ _______ _____ _____    ______ ____
ROOT
ATOM      1  O   UNL     1      35.908 -25.057 -15.500  0.00  0.00    -0.275 OA
ATOM      2  N   UNL     1      37.985 -24.134 -15.026  0.00  0.00    -0.297 N 
ATOM      3  C   ACE A   0      36.656 -24.086 -15.419  0.00  0.00    +0.224 C 
ATOM      4  H   UNL     1      38.498 -23.294 -14.995  0.00  0.00    +0.150 HD
ENDROOT
BRANCH   2   5
ATOM      5  CA  UNL     1      38.649 -25.364 -14.661  0.00  0.00    +0.171 C 
ATOM      6  CB  UNL     1      38.435 -25.661 -13.184  0.00  0.00    +0.033 C 
BRANCH   5   8
ATOM      7  OXT UNL     1      40.955 -24.749 -14.273  0.00  0.00    -0.248 OA
ATOM      8  C   UNL     1      40.134 -25.322 -14.982  0.00  0.00    +0.332 C 
BRANCH   8   9
ATOM      9  O   UNL     1      40.485 -25.960 -16.125  0.00  0.00    -0.479 OA
ATOM     10  H   UNL     1      41.268 -25.714 -16.577  0.00  0.00    +0.295 HD
ENDBRANCH   8   9
ENDBRANCH   5   8
ENDBRANCH   2   5
BRANCH   3  11
ATOM     11  C   UNL     1      36.209 -22.662 -15.716  0.00  0.00    +0.096 C 
BRANCH  11  12
ATOM     12  C   UNL     1      37.167 -21.880 -16.607  0.00  0.00    +0.063 C 
BRANCH  12  13
ATOM     13  S   UNL     1      36.508 -21.668 -18.291  0.00  0.00    -0.167 S 
ATOM     14  H   UNL     1      37.512 -21.834 -19.194  0.00  0.00    +0.102 HD
ENDBRANCH  12  13
ENDBRANCH  11  12
ENDBRANCH   3  11
TORSDOF 6
ENDMDL
MODEL 2
REMARK VINA RESULT:      -5.6      1.257      1.466
REMARK  Name = 16750083
REMARK  6 active torsions:
REMARK  status: ('A' for Active; 'I' for Inactive)
REMARK    1  A    between atoms: N_2  and  CA_5
REMARK    2  A    between atoms: C_3  and  C_11
REMARK    3  A    between atoms: CA_5  and  C_8
REMARK    4  A    between atoms: C_8  and  O_9
REMARK    5  A    between atoms: C_11  and  C_12
REMARK    6  A    between atoms: C_12  and  S_13
REMARK                            x       y       z     vdW  Elec       q    Type
REMARK                         _______ _______ _______ _____ _____    ______ ____
ROOT
ATOM      1  O   UNL     1      35.918 -25.611 -15.434  0.00  0.00    -0.275 OA
ATOM      2  N   UNL     1      37.849 -24.407 -14.977  0.00  0.00    -0.297 N 
ATOM      3  C   ACE A   0      36.533 -24.549 -15.389  0.00  0.00    +0.224 C 
ATOM      4  H   UNL     1      38.249 -23.507 -14.977  0.00  0.00    +0.150 HD
ENDROOT
BRANCH   2   5
ATOM      5  CA  UNL     1      38.659 -25.523 -14.547  0.00  0.00    +0.171 C 
ATOM      6  CB  UNL     1      38.547 -25.708 -13.041  0.00  0.00    +0.033 C 
BRANCH   5   8
ATOM      7  OXT UNL     1      40.928 -24.730 -14.279  0.00  0.00    -0.248 OA
ATOM      8  C   UNL     1      40.115 -25.355 -14.952  0.00  0.00    +0.332 C 
BRANCH   8   9
ATOM      9  O   UNL     1      40.447 -25.941 -16.127  0.00  0.00    -0.479 OA
ATOM     10  H   UNL     1      41.153 -26.556 -16.161  0.00  0.00    +0.295 HD
ENDBRANCH   8   9
ENDBRANCH   5   8
ENDBRANCH   2   5
BRANCH   3  11
ATOM     11  C   UNL     1      35.912 -23.209 -15.756  0.00  0.00    +0.096 C 
BRANCH  11  12
ATOM     12  C   UNL     1      34.394 -23.167 -15.625  0.00  0.00    +0.063 C 
BRANCH  12  13
ATOM     13  S   UNL     1      33.570 -23.247 -17.246  0.00  0.00    -0.167 S 
ATOM     14  H   UNL     1      33.134 -22.007 -17.595  0.00  0.00    +0.102 HD
ENDBRANCH  12  13
ENDBRANCH  11  12
ENDBRANCH   3  11
TORSDOF 6
ENDMDL
MODEL 3
REMARK VINA RESULT:      -5.4      7.226      8.853
REMARK  Name = 16750083
REMARK  6 active torsions:
REMARK  status: ('A' for Active; 'I' for Inactive)
REMARK    1  A    between atoms: N_2  and  CA_5
REMARK    2  A    between atoms: C_3  and  C_11
REMARK    3  A    between atoms: CA_5  and  C_8
REMARK    4  A    between atoms: C_8  and  O_9
REMARK    5  A    between atoms: C_11  and  C_12
REMARK    6  A    between atoms: C_12  and  S_13
REMARK                            x       y       z     vdW  Elec       q    Type
REMARK                         _______ _______ _______ _____ _____    ______ ____
ROOT
ATOM      1  O   UNL     1      35.694 -17.887 -20.595  0.00  0.00    -0.275 OA
ATOM      2  N   UNL     1      35.028 -19.978 -21.351  0.00  0.00    -0.297 N 
ATOM      3  C   ACE A   0      35.450 -18.667 -21.511  0.00  0.00    +0.224 C 
ATOM      4  H   UNL     1      34.860 -20.521 -22.156  0.00  0.00    +0.150 HD
ENDROOT
BRANCH   2   5
ATOM      5  CA  UNL     1      34.825 -20.583 -20.055  0.00  0.00    +0.171 C 
ATOM      6  CB  UNL     1      35.814 -21.719 -19.842  0.00  0.00    +0.033 C 
BRANCH   5   8
ATOM      7  OXT UNL     1      33.130 -22.246 -19.604  0.00  0.00    -0.248 OA
ATOM      8  C   UNL     1      33.400 -21.082 -19.880  0.00  0.00    +0.332 C 
BRANCH   8   9
ATOM      9  O   UNL     1      32.444 -20.141 -20.066  0.00  0.00    -0.479 OA
ATOM     10  H   UNL     1      31.973 -19.799 -19.331  0.00  0.00    +0.295 HD
ENDBRANCH   8   9
ENDBRANCH   5   8
ENDBRANCH   2   5
BRANCH   3  11
ATOM     11  C   UNL     1      35.610 -18.304 -22.981  0.00  0.00    +0.096 C 
BRANCH  11  12
ATOM     12  C   UNL     1      35.024 -16.947 -23.356  0.00  0.00    +0.063 C 
BRANCH  12  13
ATOM     13  S   UNL     1      34.599 -16.856 -25.123  0.00  0.00    -0.167 S 
ATOM     14  H   UNL     1      35.561 -17.484 -25.853  0.00  0.00    +0.102 HD
ENDBRANCH  12  13
ENDBRANCH  11  12
ENDBRANCH   3  11
TORSDOF 6
ENDMDL
MODEL 4
REMARK VINA RESULT:      -5.3      2.273      2.924
REMARK  Name = 16750083
REMARK  6 active torsions:
REMARK  status: ('A' for Active; 'I' for Inactive)
REMARK    1  A    between atoms: N_2  and  CA_5
REMARK    2  A    between atoms: C_3  and  C_11
REMARK    3  A    between atoms: CA_5  and  C_8
REMARK    4  A    between atoms: C_8  and  O_9
REMARK    5  A    between atoms: C_11  and  C_12
REMARK    6  A    between atoms: C_12  and  S_13
REMARK                            x       y       z     vdW  Elec       q    Type
REMARK                         _______ _______ _______ _____ _____    ______ ____
ROOT
ATOM      1  O   UNL     1      38.761 -23.538 -15.581  0.00  0.00    -0.275 OA
ATOM      2  N   UNL     1      37.023 -24.001 -14.113  0.00  0.00    -0.297 N 
ATOM      3  C   ACE A   0      37.578 -23.458 -15.262  0.00  0.00    +0.224 C 
ATOM      4  H   UNL     1      36.059 -23.879 -13.952  0.00  0.00    +0.150 HD
ENDROOT
BRANCH   2   5
ATOM      5  CA  UNL     1      37.799 -24.739 -13.143  0.00  0.00    +0.171 C 
ATOM      6  CB  UNL     1      37.249 -26.149 -12.989  0.00  0.00    +0.033 C 
BRANCH   5   8
ATOM      7  OXT UNL     1      37.057 -24.294 -10.885  0.00  0.00    -0.248 OA
ATOM      8  C   UNL     1      37.837 -24.036 -11.796  0.00  0.00    +0.332 C 
BRANCH   8   9
ATOM      9  O   UNL     1      38.797 -23.086 -11.680  0.00  0.00    -0.479 OA
ATOM     10  H   UNL     1      38.814 -22.527 -10.928  0.00  0.00    +0.295 HD
ENDBRANCH   8   9
ENDBRANCH   5   8
ENDBRANCH   2   5
BRANCH   3  11
ATOM     11  C   UNL     1      36.529 -22.762 -16.117  0.00  0.00    +0.096 C 
BRANCH  11  12
ATOM     12  C   UNL     1      37.064 -21.590 -16.932  0.00  0.00    +0.063 C 
BRANCH  12  13
ATOM     13  S   UNL     1      36.399 -21.580 -18.626  0.00  0.00    -0.167 S 
ATOM     14  H   UNL     1      37.256 -22.238 -19.452  0.00  0.00    +0.102 HD
ENDBRANCH  12  13
ENDBRANCH  11  12
ENDBRANCH   3  11
TORSDOF 6
ENDMDL
MODEL 5
REMARK VINA RESULT:      -5.3      8.728     10.719
REMARK  Name = 16750083
REMARK  6 active torsions:
REMARK  status: ('A' for Active; 'I' for Inactive)
REMARK    1  A    between atoms: N_2  and  CA_5
REMARK    2  A    between atoms: C_3  and  C_11
REMARK    3  A    between atoms: CA_5  and  C_8
REMARK    4  A    between atoms: C_8  and  O_9
REMARK    5  A    between atoms: C_11  and  C_12
REMARK    6  A    between atoms: C_12  and  S_13
REMARK                            x       y       z     vdW  Elec       q    Type
REMARK                         _______ _______ _______ _____ _____    ______ ____
ROOT
ATOM      1  O   UNL     1      35.877 -18.485 -20.631  0.00  0.00    -0.275 OA
ATOM      2  N   UNL     1      34.076 -17.387 -21.600  0.00  0.00    -0.297 N 
ATOM      3  C   ACE A   0      34.772 -18.505 -21.166  0.00  0.00    +0.224 C 
ATOM      4  H   UNL     1      33.193 -17.514 -22.018  0.00  0.00    +0.150 HD
ENDROOT
BRANCH   2   5
ATOM      5  CA  UNL     1      34.590 -16.044 -21.466  0.00  0.00    +0.171 C 
ATOM      6  CB  UNL     1      33.643 -15.197 -20.629  0.00  0.00    +0.033 C 
BRANCH   5   8
ATOM      7  OXT UNL     1      34.278 -14.351 -23.164  0.00  0.00    -0.248 OA
ATOM      8  C   UNL     1      34.829 -15.391 -22.817  0.00  0.00    +0.332 C 
BRANCH   8   9
ATOM      9  O   UNL     1      35.693 -16.055 -23.623  0.00  0.00    -0.479 OA
ATOM     10  H   UNL     1      35.705 -15.879 -24.543  0.00  0.00    +0.295 HD
ENDBRANCH   8   9
ENDBRANCH   5   8
ENDBRANCH   2   5
BRANCH   3  11
ATOM     11  C   UNL     1      33.983 -19.785 -21.405  0.00  0.00    +0.096 C 
BRANCH  11  12
ATOM     12  C   UNL     1      33.067 -20.178 -20.252  0.00  0.00    +0.063 C 
BRANCH  12  13
ATOM     13  S   UNL     1      33.661 -21.667 -19.390  0.00  0.00    -0.167 S 
ATOM     14  H   UNL     1      34.868 -21.408 -18.817  0.00  0.00    +0.102 HD
ENDBRANCH  12  13
ENDBRANCH  11  12
ENDBRANCH   3  11
TORSDOF 6
ENDMDL
MODEL 6
REMARK VINA RESULT:      -5.3      7.040      8.879
REMARK  Name = 16750083
REMARK  6 active torsions:
REMARK  status: ('A' for Active; 'I' for Inactive)
REMARK    1  A    between atoms: N_2  and  CA_5
REMARK    2  A    between atoms: C_3  and  C_11
REMARK    3  A    between atoms: CA_5  and  C_8
REMARK    4  A    between atoms: C_8  and  O_9
REMARK    5  A    between atoms: C_11  and  C_12
REMARK    6  A    between atoms: C_12  and  S_13
REMARK                            x       y       z     vdW  Elec       q    Type
REMARK                         _______ _______ _______ _____ _____    ______ ____
ROOT
ATOM      1  O   UNL     1      32.750 -20.324 -20.204  0.00  0.00    -0.275 OA
ATOM      2  N   UNL     1      34.874 -19.850 -21.010  0.00  0.00    -0.297 N 
ATOM      3  C   ACE A   0      33.961 -20.527 -20.217  0.00  0.00    +0.224 C 
ATOM      4  H   UNL     1      35.827 -20.091 -20.943  0.00  0.00    +0.150 HD
ENDROOT
BRANCH   2   5
ATOM      5  CA  UNL     1      34.488 -18.805 -21.930  0.00  0.00    +0.171 C 
ATOM      6  CB  UNL     1      34.726 -19.251 -23.365  0.00  0.00    +0.033 C 
BRANCH   5   8
ATOM      7  OXT UNL     1      35.357 -17.040 -20.524  0.00  0.00    -0.248 OA
ATOM      8  C   UNL     1      35.225 -17.504 -21.651  0.00  0.00    +0.332 C 
BRANCH   8   9
ATOM      9  O   UNL     1      35.716 -16.885 -22.752  0.00  0.00    -0.479 OA
ATOM     10  H   UNL     1      35.509 -17.212 -23.605  0.00  0.00    +0.295 HD
ENDBRANCH   8   9
ENDBRANCH   5   8
ENDBRANCH   2   5
BRANCH   3  11
ATOM     11  C   UNL     1      34.637 -21.594 -19.368  0.00  0.00    +0.096 C 
BRANCH  11  12
ATOM     12  C   UNL     1      36.147 -21.428 -19.242  0.00  0.00    +0.063 C 
BRANCH  12  13
ATOM     13  S   UNL     1      36.732 -21.793 -17.557  0.00  0.00    -0.167 S 
ATOM     14  H   UNL     1      37.955 -22.385 -17.621  0.00  0.00    +0.102 HD
ENDBRANCH  12  13
ENDBRANCH  11  12
ENDBRANCH   3  11
TORSDOF 6
ENDMDL
MODEL 7
REMARK VINA RESULT:      -5.2      8.997     10.400
REMARK  Name = 16750083
REMARK  6 active torsions:
REMARK  status: ('A' for Active; 'I' for Inactive)
REMARK    1  A    between atoms: N_2  and  CA_5
REMARK    2  A    between atoms: C_3  and  C_11
REMARK    3  A    between atoms: CA_5  and  C_8
REMARK    4  A    between atoms: C_8  and  O_9
REMARK    5  A    between atoms: C_11  and  C_12
REMARK    6  A    between atoms: C_12  and  S_13
REMARK                            x       y       z     vdW  Elec       q    Type
REMARK                         _______ _______ _______ _____ _____    ______ ____
ROOT
ATOM      1  O   UNL     1      35.200 -15.845 -22.917  0.00  0.00    -0.275 OA
ATOM      2  N   UNL     1      34.340 -17.084 -21.152  0.00  0.00    -0.297 N 
ATOM      3  C   ACE A   0      34.631 -15.910 -21.830  0.00  0.00    +0.224 C 
ATOM      4  H   UNL     1      33.878 -17.024 -20.284  0.00  0.00    +0.150 HD
ENDROOT
BRANCH   2   5
ATOM      5  CA  UNL     1      34.684 -18.389 -21.664  0.00  0.00    +0.171 C 
ATOM      6  CB  UNL     1      33.797 -19.454 -21.036  0.00  0.00    +0.033 C 
BRANCH   5   8
ATOM      7  OXT UNL     1      36.562 -19.256 -20.412  0.00  0.00    -0.248 OA
ATOM      8  C   UNL     1      36.150 -18.719 -21.435  0.00  0.00    +0.332 C 
BRANCH   8   9
ATOM      9  O   UNL     1      36.976 -18.362 -22.448  0.00  0.00    -0.479 OA
ATOM     10  H   UNL     1      37.636 -17.711 -22.307  0.00  0.00    +0.295 HD
ENDBRANCH   8   9
ENDBRANCH   5   8
ENDBRANCH   2   5
BRANCH   3  11
ATOM     11  C   UNL     1      34.129 -14.686 -21.077  0.00  0.00    +0.096 C 
BRANCH  11  12
ATOM     12  C   UNL     1      32.672 -14.335 -21.356  0.00  0.00    +0.063 C 
BRANCH  12  13
ATOM     13  S   UNL     1      32.498 -13.273 -22.824  0.00  0.00    -0.167 S 
ATOM     14  H   UNL     1      32.434 -11.971 -22.435  0.00  0.00    +0.102 HD
ENDBRANCH  12  13
ENDBRANCH  11  12
ENDBRANCH   3  11
TORSDOF 6
ENDMDL
MODEL 8
REMARK VINA RESULT:      -5.2      3.812      4.397
REMARK  Name = 16750083
REMARK  6 active torsions:
REMARK  status: ('A' for Active; 'I' for Inactive)
REMARK    1  A    between atoms: N_2  and  CA_5
REMARK    2  A    between atoms: C_3  and  C_11
REMARK    3  A    between atoms: CA_5  and  C_8
REMARK    4  A    between atoms: C_8  and  O_9
REMARK    5  A    between atoms: C_11  and  C_12
REMARK    6  A    between atoms: C_12  and  S_13
REMARK                            x       y       z     vdW  Elec       q    Type
REMARK                         _______ _______ _______ _____ _____    ______ ____
ROOT
ATOM      1  O   UNL     1      34.458 -24.222 -12.500  0.00  0.00    -0.275 OA
ATOM      2  N   UNL     1      35.123 -25.012 -14.579  0.00  0.00    -0.297 N 
ATOM      3  C   ACE A   0      34.211 -24.493 -13.672  0.00  0.00    +0.224 C 
ATOM      4  H   UNL     1      34.821 -25.194 -15.498  0.00  0.00    +0.150 HD
ENDROOT
BRANCH   2   5
ATOM      5  CA  UNL     1      36.496 -25.297 -14.232  0.00  0.00    +0.171 C 
ATOM      6  CB  UNL     1      37.380 -24.101 -14.550  0.00  0.00    +0.033 C 
BRANCH   5   8
ATOM      7  OXT UNL     1      38.035 -27.125 -14.600  0.00  0.00    -0.248 OA
ATOM      8  C   UNL     1      37.012 -26.540 -14.939  0.00  0.00    +0.332 C 
BRANCH   8   9
ATOM      9  O   UNL     1      36.259 -26.948 -15.989  0.00  0.00    -0.479 OA
ATOM     10  H   UNL     1      36.364 -27.814 -16.332  0.00  0.00    +0.295 HD
ENDBRANCH   8   9
ENDBRANCH   5   8
ENDBRANCH   2   5
BRANCH   3  11
ATOM     11  C   UNL     1      32.850 -24.263 -14.313  0.00  0.00    +0.096 C 
BRANCH  11  12
ATOM     12  C   UNL     1      31.715 -25.050 -13.669  0.00  0.00    +0.063 C 
BRANCH  12  13
ATOM     13  S   UNL     1      30.264 -25.166 -14.761  0.00  0.00    -0.167 S 
ATOM     14  H   UNL     1      30.535 -24.547 -15.941  0.00  0.00    +0.102 HD
ENDBRANCH  12  13
ENDBRANCH  11  12
ENDBRANCH   3  11
TORSDOF 6
ENDMDL
MODEL 9
REMARK VINA RESULT:      -5.1     10.441     12.058
REMARK  Name = 16750083
REMARK  6 active torsions:
REMARK  status: ('A' for Active; 'I' for Inactive)
REMARK    1  A    between atoms: N_2  and  CA_5
REMARK    2  A    between atoms: C_3  and  C_11
REMARK    3  A    between atoms: CA_5  and  C_8
REMARK    4  A    between atoms: C_8  and  O_9
REMARK    5  A    between atoms: C_11  and  C_12
REMARK    6  A    between atoms: C_12  and  S_13
REMARK                            x       y       z     vdW  Elec       q    Type
REMARK                         _______ _______ _______ _____ _____    ______ ____
ROOT
ATOM      1  O   UNL     1      34.964 -16.879 -25.657  0.00  0.00    -0.275 OA
ATOM      2  N   UNL     1      34.468 -16.624 -23.404  0.00  0.00    -0.297 N 
ATOM      3  C   ACE A   0      34.384 -16.292 -24.748  0.00  0.00    +0.224 C 
ATOM      4  H   UNL     1      33.961 -16.087 -22.753  0.00  0.00    +0.150 HD
ENDROOT
BRANCH   2   5
ATOM      5  CA  UNL     1      35.267 -17.725 -22.919  0.00  0.00    +0.171 C 
ATOM      6  CB  UNL     1      34.649 -19.051 -23.337  0.00  0.00    +0.033 C 
BRANCH   5   8
ATOM      7  OXT UNL     1      35.912 -18.605 -20.761  0.00  0.00    -0.248 OA
ATOM      8  C   UNL     1      35.442 -17.676 -21.409  0.00  0.00    +0.332 C 
BRANCH   8   9
ATOM      9  O   UNL     1      35.025 -16.526 -20.828  0.00  0.00    -0.479 OA
ATOM     10  H   UNL     1      34.297 -16.056 -21.187  0.00  0.00    +0.295 HD
ENDBRANCH   8   9
ENDBRANCH   5   8
ENDBRANCH   2   5
BRANCH   3  11
ATOM     11  C   UNL     1      33.450 -15.113 -24.977  0.00  0.00    +0.096 C 
BRANCH  11  12
ATOM     12  C   UNL     1      32.944 -14.986 -26.409  0.00  0.00    +0.063 C 
BRANCH  12  13
ATOM     13  S   UNL     1      33.246 -13.327 -27.093  0.00  0.00    -0.167 S 
ATOM     14  H   UNL     1      34.290 -13.379 -27.963  0.00  0.00    +0.102 HD
ENDBRANCH  12  13
ENDBRANCH  11  12
ENDBRANCH   3  11
TORSDOF 6
ENDMDL
