MODEL 1
REMARK VINA RESULT:      -9.8      0.000      0.000
REMARK  Name = 9574101
REMARK  13 active torsions:
REMARK  status: ('A' for Active; 'I' for Inactive)
REMARK    1  A    between atoms: C_3  and  C_9
REMARK    2  A    between atoms: C_6  and  C_25
REMARK    3  A    between atoms: N_8  and  C_11
REMARK    4  A    between atoms: C_11  and  C_12
REMARK    5  A    between atoms: C_17  and  C_20
REMARK    6  A    between atoms: N_19  and  C_20
REMARK    7  A    between atoms: N_19  and  O_23
REMARK    8  A    between atoms: C_25  and  C_26
REMARK    9  A    between atoms: C_25  and  N_32
REMARK   10  A    between atoms: N_32  and  C_35
REMARK   11  A    between atoms: C_35  and  C_37
REMARK   12  A    between atoms: C_37  and  O_38
REMARK   13  A    between atoms: O_38  and  C_39
REMARK                            x       y       z     vdW  Elec       q    Type
REMARK                         _______ _______ _______ _____ _____    ______ ____
ROOT
ATOM      1  O   UNL     1      35.104 -13.796 -23.150  0.00  0.00    -0.277 OA
ATOM      2  N   UNL     1      33.465 -14.458 -21.684  0.00  0.00    -0.275 N 
ATOM      3  C   UNL     1      34.053 -15.424 -20.781  0.00  0.00    +0.153 C 
ATOM      4  C   UNL     1      32.141 -14.518 -21.097  0.00  0.00    +0.096 C 
ATOM      5  C   UNL     1      32.799 -15.244 -19.918  0.00  0.00    +0.051 C 
ATOM      6  C   UNL     1      33.940 -13.752 -22.755  0.00  0.00    +0.206 C 
ENDROOT
BRANCH   3   9
ATOM      7  O   UNL     1      33.557 -17.300 -22.262  0.00  0.00    -0.273 OA
ATOM      8  N   UNL     1      35.438 -17.434 -20.922  0.00  0.00    -0.299 N 
ATOM      9  C   UNL     1      34.301 -16.808 -21.407  0.00  0.00    +0.241 C 
ATOM     10  H   UNL     1      35.974 -16.969 -20.238  0.00  0.00    +0.150 HD
BRANCH   8  11
ATOM     11  C   UNL     1      35.877 -18.737 -21.369  0.00  0.00    +0.116 C 
BRANCH  11  12
ATOM     12  C   UNL     1      35.214 -19.846 -20.605  0.00  0.00    -0.003 C 
ATOM     13  C   UNL     1      33.828 -19.993 -20.652  0.00  0.00    -0.003 C 
ATOM     14  C   UNL     1      35.983 -20.729 -19.847  0.00  0.00    -0.003 C 
ATOM     15  C   UNL     1      33.211 -21.023 -19.942  0.00  0.00    +0.003 C 
ATOM     16  C   UNL     1      35.366 -21.759 -19.136  0.00  0.00    +0.003 C 
ATOM     17  C   UNL     1      33.980 -21.905 -19.184  0.00  0.00    +0.036 C 
BRANCH  17  19
ATOM     18  N   UNL     1      32.224 -22.697 -17.640  0.00  0.00    -0.381 N 
ATOM     19  C   UNL     1      33.336 -22.978 -18.443  0.00  0.00    +0.160 C 
ATOM     20  H   UNL     1      31.785 -23.419 -17.136  0.00  0.00    +0.157 HD
ATOM     21  H   UNL     1      31.881 -21.776 -17.580  0.00  0.00    +0.157 HD
BRANCH  19  22
ATOM     22  N   UNL     1      33.827 -24.204 -18.554  0.00  0.00    -0.118 NA
BRANCH  22  23
ATOM     23  O   UNL     1      33.897 -24.626 -19.886  0.00  0.00    -0.264 OA
ATOM     24  H   UNL     1      33.807 -24.004 -20.581  0.00  0.00    +0.247 HD
ENDBRANCH  22  23
ENDBRANCH  19  22
ENDBRANCH  17  19
ENDBRANCH  11  12
ENDBRANCH   8  11
ENDBRANCH   3   9
BRANCH   6  25
ATOM     25  C   UNL     1      32.910 -12.895 -23.440  0.00  0.00    +0.018 C 
BRANCH  25  26
ATOM     26  C   UNL     1      33.037 -11.446 -22.976  0.00  0.00    -0.011 C 
ATOM     27  C   UNL     1      33.530 -10.550 -24.120  0.00  0.00    -0.002 C 
ATOM     28  C   UNL     1      31.700 -10.936 -22.420  0.00  0.00    -0.002 C 
ATOM     29  C   UNL     1      33.614  -9.086 -23.695  0.00  0.00    -0.000 C 
ATOM     30  C   UNL     1      31.787  -9.471 -21.997  0.00  0.00    -0.000 C 
ATOM     31  C   UNL     1      32.286  -8.585 -23.135  0.00  0.00    -0.000 C 
ENDBRANCH  25  26
BRANCH  25  32
ATOM     32  N   UNL     1      33.142 -12.992 -24.873  0.00  0.00    +0.398 N 
ATOM     33  H   UNL     1      34.145 -13.056 -25.044  0.00  0.00    -0.083 HD
ATOM     34  H   UNL     1      32.755 -12.161 -25.320  0.00  0.00    -0.083 HD
BRANCH  32  35
ATOM     35  C   UNL     1      32.486 -14.167 -25.431  0.00  0.00    +0.031 C 
BRANCH  35  37
ATOM     36  O   UNL     1      33.816 -14.089 -27.469  0.00  0.00    -0.252 OA
ATOM     37  C   UNL     1      33.343 -14.728 -26.539  0.00  0.00    +0.295 C 
BRANCH  37  38
ATOM     38  O   UNL     1      33.502 -16.070 -26.331  0.00  0.00    -0.450 OA
BRANCH  38  39
ATOM     39  C   UNL     1      34.526 -16.433 -25.399  0.00  0.00    +0.208 C 
ATOM     40  C   UNL     1      34.542 -17.939 -25.247  0.00  0.00    +0.051 C 
ENDBRANCH  38  39
ENDBRANCH  37  38
ENDBRANCH  35  37
ENDBRANCH  32  35
ENDBRANCH  25  32
ENDBRANCH   6  25
TORSDOF 13
ENDMDL
MODEL 2
REMARK VINA RESULT:      -9.3      1.984      4.082
REMARK  Name = 9574101
REMARK  13 active torsions:
REMARK  status: ('A' for Active; 'I' for Inactive)
REMARK    1  A    between atoms: C_3  and  C_9
REMARK    2  A    between atoms: C_6  and  C_25
REMARK    3  A    between atoms: N_8  and  C_11
REMARK    4  A    between atoms: C_11  and  C_12
REMARK    5  A    between atoms: C_17  and  C_20
REMARK    6  A    between atoms: N_19  and  C_20
REMARK    7  A    between atoms: N_19  and  O_23
REMARK    8  A    between atoms: C_25  and  C_26
REMARK    9  A    between atoms: C_25  and  N_32
REMARK   10  A    between atoms: N_32  and  C_35
REMARK   11  A    between atoms: C_35  and  C_37
REMARK   12  A    between atoms: C_37  and  O_38
REMARK   13  A    between atoms: O_38  and  C_39
REMARK                            x       y       z     vdW  Elec       q    Type
REMARK                         _______ _______ _______ _____ _____    ______ ____
ROOT
ATOM      1  O   UNL     1      32.739 -14.424 -22.446  0.00  0.00    -0.277 OA
ATOM      2  N   UNL     1      32.968 -14.479 -24.730  0.00  0.00    -0.275 N 
ATOM      3  C   UNL     1      33.042 -15.870 -25.126  0.00  0.00    +0.153 C 
ATOM      4  C   UNL     1      33.111 -13.953 -26.072  0.00  0.00    +0.096 C 
ATOM      5  C   UNL     1      32.824 -15.377 -26.562  0.00  0.00    +0.051 C 
ATOM      6  C   UNL     1      32.855 -13.844 -23.524  0.00  0.00    +0.206 C 
ENDROOT
BRANCH   3   9
ATOM      7  O   UNL     1      35.239 -16.792 -25.651  0.00  0.00    -0.273 OA
ATOM      8  N   UNL     1      34.522 -16.863 -23.453  0.00  0.00    -0.299 N 
ATOM      9  C   UNL     1      34.380 -16.554 -24.797  0.00  0.00    +0.241 C 
ATOM     10  H   UNL     1      33.785 -16.638 -22.839  0.00  0.00    +0.150 HD
BRANCH   8  11
ATOM     11  C   UNL     1      35.700 -17.501 -22.907  0.00  0.00    +0.116 C 
BRANCH  11  12
ATOM     12  C   UNL     1      35.349 -18.610 -21.959  0.00  0.00    -0.003 C 
ATOM     13  C   UNL     1      36.349 -19.224 -21.204  0.00  0.00    -0.003 C 
ATOM     14  C   UNL     1      34.025 -19.030 -21.835  0.00  0.00    -0.003 C 
ATOM     15  C   UNL     1      36.023 -20.255 -20.323  0.00  0.00    +0.003 C 
ATOM     16  C   UNL     1      33.700 -20.062 -20.954  0.00  0.00    +0.003 C 
ATOM     17  C   UNL     1      34.700 -20.674 -20.199  0.00  0.00    +0.036 C 
BRANCH  17  19
ATOM     18  N   UNL     1      33.017 -22.076 -19.060  0.00  0.00    -0.381 N 
ATOM     19  C   UNL     1      34.361 -21.751 -19.281  0.00  0.00    +0.160 C 
ATOM     20  H   UNL     1      32.782 -22.803 -18.440  0.00  0.00    +0.157 HD
ATOM     21  H   UNL     1      32.307 -21.578 -19.526  0.00  0.00    +0.157 HD
BRANCH  19  22
ATOM     22  N   UNL     1      35.347 -22.399 -18.678  0.00  0.00    -0.118 NA
BRANCH  22  23
ATOM     23  O   UNL     1      35.020 -22.755 -17.365  0.00  0.00    -0.264 OA
ATOM     24  H   UNL     1      35.667 -23.142 -16.809  0.00  0.00    +0.247 HD
ENDBRANCH  22  23
ENDBRANCH  19  22
ENDBRANCH  17  19
ENDBRANCH  11  12
ENDBRANCH   8  11
ENDBRANCH   3   9
BRANCH   6  25
ATOM     25  C   UNL     1      32.887 -12.342 -23.608  0.00  0.00    +0.018 C 
BRANCH  25  26
ATOM     26  C   UNL     1      32.682 -11.733 -22.223  0.00  0.00    -0.011 C 
ATOM     27  C   UNL     1      31.965 -10.379 -22.326  0.00  0.00    -0.002 C 
ATOM     28  C   UNL     1      31.901 -12.695 -21.317  0.00  0.00    -0.002 C 
ATOM     29  C   UNL     1      31.701  -9.774 -20.950  0.00  0.00    -0.000 C 
ATOM     30  C   UNL     1      31.637 -12.086 -19.943  0.00  0.00    -0.000 C 
ATOM     31  C   UNL     1      30.933 -10.737 -20.050  0.00  0.00    -0.000 C 
ENDBRANCH  25  26
BRANCH  25  32
ATOM     32  N   UNL     1      34.184 -11.961 -24.144  0.00  0.00    +0.398 N 
ATOM     33  H   UNL     1      34.620 -12.776 -24.574  0.00  0.00    -0.083 HD
ATOM     34  H   UNL     1      34.760 -11.609 -23.379  0.00  0.00    -0.083 HD
BRANCH  32  35
ATOM     35  C   UNL     1      34.049 -10.909 -25.143  0.00  0.00    +0.031 C 
BRANCH  35  37
ATOM     36  O   UNL     1      36.162 -10.123 -26.063  0.00  0.00    -0.252 OA
ATOM     37  C   UNL     1      35.320 -10.097 -25.176  0.00  0.00    +0.295 C 
BRANCH  37  38
ATOM     38  O   UNL     1      35.376  -9.327 -24.047  0.00  0.00    -0.450 OA
BRANCH  38  39
ATOM     39  C   UNL     1      34.287  -8.415 -23.868  0.00  0.00    +0.208 C 
ATOM     40  C   UNL     1      34.675  -7.066 -24.435  0.00  0.00    +0.051 C 
ENDBRANCH  38  39
ENDBRANCH  37  38
ENDBRANCH  35  37
ENDBRANCH  32  35
ENDBRANCH  25  32
ENDBRANCH   6  25
TORSDOF 13
ENDMDL
MODEL 3
REMARK VINA RESULT:      -9.2      4.140     12.015
REMARK  Name = 9574101
REMARK  13 active torsions:
REMARK  status: ('A' for Active; 'I' for Inactive)
REMARK    1  A    between atoms: C_3  and  C_9
REMARK    2  A    between atoms: C_6  and  C_25
REMARK    3  A    between atoms: N_8  and  C_11
REMARK    4  A    between atoms: C_11  and  C_12
REMARK    5  A    between atoms: C_17  and  C_20
REMARK    6  A    between atoms: N_19  and  C_20
REMARK    7  A    between atoms: N_19  and  O_23
REMARK    8  A    between atoms: C_25  and  C_26
REMARK    9  A    between atoms: C_25  and  N_32
REMARK   10  A    between atoms: N_32  and  C_35
REMARK   11  A    between atoms: C_35  and  C_37
REMARK   12  A    between atoms: C_37  and  O_38
REMARK   13  A    between atoms: O_38  and  C_39
REMARK                            x       y       z     vdW  Elec       q    Type
REMARK                         _______ _______ _______ _____ _____    ______ ____
ROOT
ATOM      1  O   UNL     1      35.568 -24.134 -16.140  0.00  0.00    -0.277 OA
ATOM      2  N   UNL     1      33.964 -23.009 -17.337  0.00  0.00    -0.275 N 
ATOM      3  C   UNL     1      34.465 -22.840 -18.685  0.00  0.00    +0.153 C 
ATOM      4  C   UNL     1      32.713 -22.318 -17.575  0.00  0.00    +0.096 C 
ATOM      5  C   UNL     1      33.035 -22.442 -19.068  0.00  0.00    +0.051 C 
ATOM      6  C   UNL     1      34.477 -23.570 -16.201  0.00  0.00    +0.206 C 
ENDROOT
BRANCH   3   9
ATOM      7  O   UNL     1      36.509 -21.678 -18.028  0.00  0.00    -0.273 OA
ATOM      8  N   UNL     1      35.401 -20.952 -19.925  0.00  0.00    -0.299 N 
ATOM      9  C   UNL     1      35.568 -21.776 -18.823  0.00  0.00    +0.241 C 
ATOM     10  H   UNL     1      34.620 -21.100 -20.507  0.00  0.00    +0.150 HD
BRANCH   8  11
ATOM     11  C   UNL     1      36.317 -19.886 -20.263  0.00  0.00    +0.116 C 
BRANCH  11  12
ATOM     12  C   UNL     1      35.759 -18.980 -21.321  0.00  0.00    -0.003 C 
ATOM     13  C   UNL     1      35.547 -19.464 -22.612  0.00  0.00    -0.003 C 
ATOM     14  C   UNL     1      35.452 -17.654 -21.016  0.00  0.00    -0.003 C 
ATOM     15  C   UNL     1      35.028 -18.623 -23.597  0.00  0.00    +0.003 C 
ATOM     16  C   UNL     1      34.933 -16.813 -22.000  0.00  0.00    +0.003 C 
ATOM     17  C   UNL     1      34.722 -17.298 -23.290  0.00  0.00    +0.036 C 
BRANCH  17  19
ATOM     18  N   UNL     1      33.669 -15.167 -23.958  0.00  0.00    -0.381 N 
ATOM     19  C   UNL     1      34.181 -16.420 -24.317  0.00  0.00    +0.160 C 
ATOM     20  H   UNL     1      33.301 -14.570 -24.649  0.00  0.00    +0.157 HD
ATOM     21  H   UNL     1      33.676 -14.884 -23.015  0.00  0.00    +0.157 HD
BRANCH  19  22
ATOM     22  N   UNL     1      34.194 -16.838 -25.574  0.00  0.00    -0.118 NA
BRANCH  22  23
ATOM     23  O   UNL     1      33.431 -16.018 -26.411  0.00  0.00    -0.264 OA
ATOM     24  H   UNL     1      33.827 -15.282 -26.835  0.00  0.00    +0.247 HD
ENDBRANCH  22  23
ENDBRANCH  19  22
ENDBRANCH  17  19
ENDBRANCH  11  12
ENDBRANCH   8  11
ENDBRANCH   3   9
BRANCH   6  25
ATOM     25  C   UNL     1      33.590 -23.445 -14.991  0.00  0.00    +0.018 C 
BRANCH  25  26
ATOM     26  C   UNL     1      32.129 -23.651 -15.386  0.00  0.00    -0.011 C 
ATOM     27  C   UNL     1      31.662 -25.067 -15.021  0.00  0.00    -0.002 C 
ATOM     28  C   UNL     1      31.234 -22.594 -14.725  0.00  0.00    -0.002 C 
ATOM     29  C   UNL     1      30.189 -25.280 -15.357  0.00  0.00    -0.000 C 
ATOM     30  C   UNL     1      29.761 -22.811 -15.062  0.00  0.00    -0.000 C 
ATOM     31  C   UNL     1      29.303 -24.222 -14.706  0.00  0.00    -0.000 C 
ENDBRANCH  25  26
BRANCH  25  32
ATOM     32  N   UNL     1      34.006 -24.459 -14.035  0.00  0.00    +0.398 N 
ATOM     33  H   UNL     1      34.815 -24.955 -14.407  0.00  0.00    -0.083 HD
ATOM     34  H   UNL     1      33.229 -25.103 -13.887  0.00  0.00    -0.083 HD
BRANCH  32  35
ATOM     35  C   UNL     1      34.360 -23.859 -12.756  0.00  0.00    +0.031 C 
BRANCH  35  37
ATOM     36  O   UNL     1      35.437 -25.076 -10.943  0.00  0.00    -0.252 OA
ATOM     37  C   UNL     1      35.437 -24.691 -12.105  0.00  0.00    +0.295 C 
BRANCH  37  38
ATOM     38  O   UNL     1      36.414 -24.942 -13.028  0.00  0.00    -0.450 OA
BRANCH  38  39
ATOM     39  C   UNL     1      37.131 -26.167 -12.849  0.00  0.00    +0.208 C 
ATOM     40  C   UNL     1      37.465 -26.745 -14.208  0.00  0.00    +0.051 C 
ENDBRANCH  38  39
ENDBRANCH  37  38
ENDBRANCH  35  37
ENDBRANCH  32  35
ENDBRANCH  25  32
ENDBRANCH   6  25
TORSDOF 13
ENDMDL
MODEL 4
REMARK VINA RESULT:      -9.1      2.269      4.392
REMARK  Name = 9574101
REMARK  13 active torsions:
REMARK  status: ('A' for Active; 'I' for Inactive)
REMARK    1  A    between atoms: C_3  and  C_9
REMARK    2  A    between atoms: C_6  and  C_25
REMARK    3  A    between atoms: N_8  and  C_11
REMARK    4  A    between atoms: C_11  and  C_12
REMARK    5  A    between atoms: C_17  and  C_20
REMARK    6  A    between atoms: N_19  and  C_20
REMARK    7  A    between atoms: N_19  and  O_23
REMARK    8  A    between atoms: C_25  and  C_26
REMARK    9  A    between atoms: C_25  and  N_32
REMARK   10  A    between atoms: N_32  and  C_35
REMARK   11  A    between atoms: C_35  and  C_37
REMARK   12  A    between atoms: C_37  and  O_38
REMARK   13  A    between atoms: O_38  and  C_39
REMARK                            x       y       z     vdW  Elec       q    Type
REMARK                         _______ _______ _______ _____ _____    ______ ____
ROOT
ATOM      1  O   UNL     1      32.183 -12.323 -21.710  0.00  0.00    -0.277 OA
ATOM      2  N   UNL     1      32.960 -13.275 -23.649  0.00  0.00    -0.275 N 
ATOM      3  C   UNL     1      33.000 -14.708 -23.444  0.00  0.00    +0.153 C 
ATOM      4  C   UNL     1      33.475 -13.322 -25.003  0.00  0.00    +0.096 C 
ATOM      5  C   UNL     1      33.188 -14.827 -24.962  0.00  0.00    +0.051 C 
ATOM      6  C   UNL     1      32.613 -12.216 -22.857  0.00  0.00    +0.206 C 
ENDROOT
BRANCH   3   9
ATOM      7  O   UNL     1      34.595 -14.510 -21.608  0.00  0.00    -0.273 OA
ATOM      8  N   UNL     1      34.617 -16.449 -22.870  0.00  0.00    -0.299 N 
ATOM      9  C   UNL     1      34.148 -15.188 -22.540  0.00  0.00    +0.241 C 
ATOM     10  H   UNL     1      34.203 -16.920 -23.630  0.00  0.00    +0.150 HD
BRANCH   8  11
ATOM     11  C   UNL     1      35.686 -17.110 -22.154  0.00  0.00    +0.116 C 
BRANCH  11  12
ATOM     12  C   UNL     1      35.213 -18.355 -21.461  0.00  0.00    -0.003 C 
ATOM     13  C   UNL     1      36.139 -19.247 -20.922  0.00  0.00    -0.003 C 
ATOM     14  C   UNL     1      33.848 -18.620 -21.358  0.00  0.00    -0.003 C 
ATOM     15  C   UNL     1      35.700 -20.404 -20.279  0.00  0.00    +0.003 C 
ATOM     16  C   UNL     1      33.408 -19.777 -20.714  0.00  0.00    +0.003 C 
ATOM     17  C   UNL     1      34.336 -20.669 -20.175  0.00  0.00    +0.036 C 
BRANCH  17  19
ATOM     18  N   UNL     1      32.628 -21.887 -18.873  0.00  0.00    -0.381 N 
ATOM     19  C   UNL     1      33.878 -21.876 -19.505  0.00  0.00    +0.160 C 
ATOM     20  H   UNL     1      32.314 -22.701 -18.417  0.00  0.00    +0.157 HD
ATOM     21  H   UNL     1      32.064 -21.081 -18.885  0.00  0.00    +0.157 HD
BRANCH  19  22
ATOM     22  N   UNL     1      34.666 -22.941 -19.516  0.00  0.00    -0.118 NA
BRANCH  22  23
ATOM     23  O   UNL     1      33.940 -24.137 -19.534  0.00  0.00    -0.264 OA
ATOM     24  H   UNL     1      33.256 -24.279 -18.910  0.00  0.00    +0.247 HD
ENDBRANCH  22  23
ENDBRANCH  19  22
ENDBRANCH  17  19
ENDBRANCH  11  12
ENDBRANCH   8  11
ENDBRANCH   3   9
BRANCH   6  25
ATOM     25  C   UNL     1      32.803 -10.870 -23.502  0.00  0.00    +0.018 C 
BRANCH  25  26
ATOM     26  C   UNL     1      31.946  -9.822 -22.795  0.00  0.00    -0.011 C 
ATOM     27  C   UNL     1      32.683  -9.251 -21.576  0.00  0.00    -0.002 C 
ATOM     28  C   UNL     1      31.549  -8.701 -23.766  0.00  0.00    -0.002 C 
ATOM     29  C   UNL     1      31.868  -8.162 -20.882  0.00  0.00    -0.000 C 
ATOM     30  C   UNL     1      30.736  -7.613 -23.070  0.00  0.00    -0.000 C 
ATOM     31  C   UNL     1      31.467  -7.055 -21.853  0.00  0.00    -0.000 C 
ENDBRANCH  25  26
BRANCH  25  32
ATOM     32  N   UNL     1      34.213 -10.528 -23.398  0.00  0.00    +0.398 N 
ATOM     33  H   UNL     1      34.753 -11.382 -23.265  0.00  0.00    -0.083 HD
ATOM     34  H   UNL     1      34.336  -9.899 -22.605  0.00  0.00    -0.083 HD
BRANCH  32  35
ATOM     35  C   UNL     1      34.678  -9.853 -24.602  0.00  0.00    +0.031 C 
BRANCH  35  37
ATOM     36  O   UNL     1      35.168  -7.913 -23.215  0.00  0.00    -0.252 OA
ATOM     37  C   UNL     1      34.865  -8.387 -24.302  0.00  0.00    +0.295 C 
BRANCH  37  38
ATOM     38  O   UNL     1      34.639  -7.674 -25.447  0.00  0.00    -0.450 OA
BRANCH  38  39
ATOM     39  C   UNL     1      34.588  -6.252 -25.289  0.00  0.00    +0.208 C 
ATOM     40  C   UNL     1      33.140  -5.813 -25.247  0.00  0.00    +0.051 C 
ENDBRANCH  38  39
ENDBRANCH  37  38
ENDBRANCH  35  37
ENDBRANCH  32  35
ENDBRANCH  25  32
ENDBRANCH   6  25
TORSDOF 13
ENDMDL
MODEL 5
REMARK VINA RESULT:      -9.1      3.850      7.056
REMARK  Name = 9574101
REMARK  13 active torsions:
REMARK  status: ('A' for Active; 'I' for Inactive)
REMARK    1  A    between atoms: C_3  and  C_9
REMARK    2  A    between atoms: C_6  and  C_25
REMARK    3  A    between atoms: N_8  and  C_11
REMARK    4  A    between atoms: C_11  and  C_12
REMARK    5  A    between atoms: C_17  and  C_20
REMARK    6  A    between atoms: N_19  and  C_20
REMARK    7  A    between atoms: N_19  and  O_23
REMARK    8  A    between atoms: C_25  and  C_26
REMARK    9  A    between atoms: C_25  and  N_32
REMARK   10  A    between atoms: N_32  and  C_35
REMARK   11  A    between atoms: C_35  and  C_37
REMARK   12  A    between atoms: C_37  and  O_38
REMARK   13  A    between atoms: O_38  and  C_39
REMARK                            x       y       z     vdW  Elec       q    Type
REMARK                         _______ _______ _______ _____ _____    ______ ____
ROOT
ATOM      1  O   UNL     1      32.803 -19.811 -21.268  0.00  0.00    -0.277 OA
ATOM      2  N   UNL     1      34.815 -20.547 -20.444  0.00  0.00    -0.275 N 
ATOM      3  C   UNL     1      34.637 -21.922 -20.024  0.00  0.00    +0.153 C 
ATOM      4  C   UNL     1      36.208 -20.470 -20.051  0.00  0.00    +0.096 C 
ATOM      5  C   UNL     1      36.166 -21.999 -19.943  0.00  0.00    +0.051 C 
ATOM      6  C   UNL     1      33.980 -19.606 -20.979  0.00  0.00    +0.206 C 
ENDROOT
BRANCH   3   9
ATOM      7  O   UNL     1      32.672 -21.704 -18.593  0.00  0.00    -0.273 OA
ATOM      8  N   UNL     1      34.558 -22.715 -17.712  0.00  0.00    -0.299 N 
ATOM      9  C   UNL     1      33.840 -22.088 -18.719  0.00  0.00    +0.241 C 
ATOM     10  H   UNL     1      35.486 -22.988 -17.899  0.00  0.00    +0.150 HD
BRANCH   8  11
ATOM     11  C   UNL     1      34.012 -22.987 -16.402  0.00  0.00    +0.116 C 
BRANCH  11  12
ATOM     12  C   UNL     1      35.061 -23.481 -15.448  0.00  0.00    -0.003 C 
ATOM     13  C   UNL     1      34.686 -24.172 -14.296  0.00  0.00    -0.003 C 
ATOM     14  C   UNL     1      36.411 -23.248 -15.713  0.00  0.00    -0.003 C 
ATOM     15  C   UNL     1      35.660 -24.630 -13.409  0.00  0.00    +0.003 C 
ATOM     16  C   UNL     1      37.385 -23.707 -14.826  0.00  0.00    +0.003 C 
ATOM     17  C   UNL     1      37.009 -24.398 -13.674  0.00  0.00    +0.036 C 
BRANCH  17  19
ATOM     18  N   UNL     1      38.904 -25.890 -13.148  0.00  0.00    -0.381 N 
ATOM     19  C   UNL     1      38.025 -24.876 -12.749  0.00  0.00    +0.160 C 
ATOM     20  H   UNL     1      39.593 -26.218 -12.526  0.00  0.00    +0.157 HD
ATOM     21  H   UNL     1      38.833 -26.276 -14.052  0.00  0.00    +0.157 HD
BRANCH  19  22
ATOM     22  N   UNL     1      38.089 -24.328 -11.545  0.00  0.00    -0.118 NA
BRANCH  22  23
ATOM     23  O   UNL     1      38.575 -23.017 -11.586  0.00  0.00    -0.264 OA
ATOM     24  H   UNL     1      38.642 -22.567 -12.405  0.00  0.00    +0.247 HD
ENDBRANCH  22  23
ENDBRANCH  19  22
ENDBRANCH  17  19
ENDBRANCH  11  12
ENDBRANCH   8  11
ENDBRANCH   3   9
BRANCH   6  25
ATOM     25  C   UNL     1      34.618 -18.260 -21.193  0.00  0.00    +0.018 C 
BRANCH  25  26
ATOM     26  C   UNL     1      35.059 -18.112 -22.647  0.00  0.00    -0.011 C 
ATOM     27  C   UNL     1      34.583 -19.307 -23.484  0.00  0.00    -0.002 C 
ATOM     28  C   UNL     1      34.544 -16.792 -23.238  0.00  0.00    -0.002 C 
ATOM     29  C   UNL     1      34.966 -19.156 -24.954  0.00  0.00    -0.000 C 
ATOM     30  C   UNL     1      34.928 -16.645 -24.708  0.00  0.00    -0.000 C 
ATOM     31  C   UNL     1      34.460 -17.839 -25.535  0.00  0.00    -0.000 C 
ENDBRANCH  25  26
BRANCH  25  32
ATOM     32  N   UNL     1      33.630 -17.248 -20.855  0.00  0.00    +0.398 N 
ATOM     33  H   UNL     1      33.018 -17.610 -20.124  0.00  0.00    -0.083 HD
ATOM     34  H   UNL     1      33.093 -17.027 -21.694  0.00  0.00    -0.083 HD
BRANCH  32  35
ATOM     35  C   UNL     1      34.270 -16.028 -20.381  0.00  0.00    +0.031 C 
BRANCH  35  37
ATOM     36  O   UNL     1      32.332 -14.664 -19.824  0.00  0.00    -0.252 OA
ATOM     37  C   UNL     1      33.307 -14.877 -20.532  0.00  0.00    +0.295 C 
BRANCH  37  38
ATOM     38  O   UNL     1      33.704 -14.112 -21.593  0.00  0.00    -0.450 OA
BRANCH  38  39
ATOM     39  C   UNL     1      32.648 -13.573 -22.395  0.00  0.00    +0.208 C 
ATOM     40  C   UNL     1      33.184 -13.269 -23.777  0.00  0.00    +0.051 C 
ENDBRANCH  38  39
ENDBRANCH  37  38
ENDBRANCH  35  37
ENDBRANCH  32  35
ENDBRANCH  25  32
ENDBRANCH   6  25
TORSDOF 13
ENDMDL
MODEL 6
REMARK VINA RESULT:      -8.7      2.208      4.261
REMARK  Name = 9574101
REMARK  13 active torsions:
REMARK  status: ('A' for Active; 'I' for Inactive)
REMARK    1  A    between atoms: C_3  and  C_9
REMARK    2  A    between atoms: C_6  and  C_25
REMARK    3  A    between atoms: N_8  and  C_11
REMARK    4  A    between atoms: C_11  and  C_12
REMARK    5  A    between atoms: C_17  and  C_20
REMARK    6  A    between atoms: N_19  and  C_20
REMARK    7  A    between atoms: N_19  and  O_23
REMARK    8  A    between atoms: C_25  and  C_26
REMARK    9  A    between atoms: C_25  and  N_32
REMARK   10  A    between atoms: N_32  and  C_35
REMARK   11  A    between atoms: C_35  and  C_37
REMARK   12  A    between atoms: C_37  and  O_38
REMARK   13  A    between atoms: O_38  and  C_39
REMARK                            x       y       z     vdW  Elec       q    Type
REMARK                         _______ _______ _______ _____ _____    ______ ____
ROOT
ATOM      1  O   UNL     1      32.418 -15.519 -21.451  0.00  0.00    -0.277 OA
ATOM      2  N   UNL     1      34.065 -15.955 -22.991  0.00  0.00    -0.275 N 
ATOM      3  C   UNL     1      34.370 -17.369 -22.912  0.00  0.00    +0.153 C 
ATOM      4  C   UNL     1      35.040 -15.668 -24.023  0.00  0.00    +0.096 C 
ATOM      5  C   UNL     1      35.130 -17.184 -24.231  0.00  0.00    +0.051 C 
ATOM      6  C   UNL     1      33.204 -15.135 -22.316  0.00  0.00    +0.206 C 
ENDROOT
BRANCH   3   9
ATOM      7  O   UNL     1      35.209 -17.094 -20.637  0.00  0.00    -0.273 OA
ATOM      8  N   UNL     1      35.857 -18.974 -21.820  0.00  0.00    -0.299 N 
ATOM      9  C   UNL     1      35.179 -17.774 -21.668  0.00  0.00    +0.241 C 
ATOM     10  H   UNL     1      35.777 -19.451 -22.678  0.00  0.00    +0.150 HD
BRANCH   8  11
ATOM     11  C   UNL     1      36.674 -19.560 -20.782  0.00  0.00    +0.116 C 
BRANCH  11  12
ATOM     12  C   UNL     1      35.890 -20.498 -19.912  0.00  0.00    -0.003 C 
ATOM     13  C   UNL     1      34.531 -20.701 -20.154  0.00  0.00    -0.003 C 
ATOM     14  C   UNL     1      36.518 -21.167 -18.862  0.00  0.00    -0.003 C 
ATOM     15  C   UNL     1      33.801 -21.573 -19.346  0.00  0.00    +0.003 C 
ATOM     16  C   UNL     1      35.788 -22.039 -18.054  0.00  0.00    +0.003 C 
ATOM     17  C   UNL     1      34.430 -22.241 -18.296  0.00  0.00    +0.036 C 
BRANCH  17  19
ATOM     18  N   UNL     1      32.279 -23.235 -17.603  0.00  0.00    -0.381 N 
ATOM     19  C   UNL     1      33.669 -23.150 -17.453  0.00  0.00    +0.160 C 
ATOM     20  H   UNL     1      31.759 -23.848 -17.035  0.00  0.00    +0.157 HD
ATOM     21  H   UNL     1      31.822 -22.682 -18.278  0.00  0.00    +0.157 HD
BRANCH  19  22
ATOM     22  N   UNL     1      34.322 -23.879 -16.561  0.00  0.00    -0.118 NA
BRANCH  22  23
ATOM     23  O   UNL     1      33.603 -24.028 -15.371  0.00  0.00    -0.264 OA
ATOM     24  H   UNL     1      32.977 -23.379 -15.116  0.00  0.00    +0.247 HD
ENDBRANCH  22  23
ENDBRANCH  19  22
ENDBRANCH  17  19
ENDBRANCH  11  12
ENDBRANCH   8  11
ENDBRANCH   3   9
BRANCH   6  25
ATOM     25  C   UNL     1      33.289 -13.685 -22.712  0.00  0.00    +0.018 C 
BRANCH  25  26
ATOM     26  C   UNL     1      33.627 -13.564 -24.196  0.00  0.00    -0.011 C 
ATOM     27  C   UNL     1      32.530 -14.207 -25.057  0.00  0.00    -0.002 C 
ATOM     28  C   UNL     1      33.835 -12.094 -24.587  0.00  0.00    -0.002 C 
ATOM     29  C   UNL     1      32.819 -14.052 -26.548  0.00  0.00    -0.000 C 
ATOM     30  C   UNL     1      34.122 -11.942 -26.078  0.00  0.00    -0.000 C 
ATOM     31  C   UNL     1      33.035 -12.590 -26.930  0.00  0.00    -0.000 C 
ENDBRANCH  25  26
BRANCH  25  32
ATOM     32  N   UNL     1      31.998 -13.078 -22.433  0.00  0.00    +0.398 N 
ATOM     33  H   UNL     1      31.274 -13.794 -22.486  0.00  0.00    -0.083 HD
ATOM     34  H   UNL     1      31.828 -12.346 -23.123  0.00  0.00    -0.083 HD
BRANCH  32  35
ATOM     35  C   UNL     1      31.977 -12.478 -21.106  0.00  0.00    +0.031 C 
BRANCH  35  37
ATOM     36  O   UNL     1      30.453 -10.781 -20.253  0.00  0.00    -0.252 OA
ATOM     37  C   UNL     1      31.163 -11.209 -21.153  0.00  0.00    +0.295 C 
BRANCH  37  38
ATOM     38  O   UNL     1      31.348 -10.616 -22.371  0.00  0.00    -0.450 OA
BRANCH  38  39
ATOM     39  C   UNL     1      32.304  -9.551 -22.400  0.00  0.00    +0.208 C 
ATOM     40  C   UNL     1      31.580  -8.245 -22.647  0.00  0.00    +0.051 C 
ENDBRANCH  38  39
ENDBRANCH  37  38
ENDBRANCH  35  37
ENDBRANCH  32  35
ENDBRANCH  25  32
ENDBRANCH   6  25
TORSDOF 13
ENDMDL
MODEL 7
REMARK VINA RESULT:      -8.6      4.392     12.401
REMARK  Name = 9574101
REMARK  13 active torsions:
REMARK  status: ('A' for Active; 'I' for Inactive)
REMARK    1  A    between atoms: C_3  and  C_9
REMARK    2  A    between atoms: C_6  and  C_25
REMARK    3  A    between atoms: N_8  and  C_11
REMARK    4  A    between atoms: C_11  and  C_12
REMARK    5  A    between atoms: C_17  and  C_20
REMARK    6  A    between atoms: N_19  and  C_20
REMARK    7  A    between atoms: N_19  and  O_23
REMARK    8  A    between atoms: C_25  and  C_26
REMARK    9  A    between atoms: C_25  and  N_32
REMARK   10  A    between atoms: N_32  and  C_35
REMARK   11  A    between atoms: C_35  and  C_37
REMARK   12  A    between atoms: C_37  and  O_38
REMARK   13  A    between atoms: O_38  and  C_39
REMARK                            x       y       z     vdW  Elec       q    Type
REMARK                         _______ _______ _______ _____ _____    ______ ____
ROOT
ATOM      1  O   UNL     1      33.379 -22.747 -15.621  0.00  0.00    -0.277 OA
ATOM      2  N   UNL     1      35.653 -22.843 -15.923  0.00  0.00    -0.275 N 
ATOM      3  C   UNL     1      36.025 -21.736 -16.780  0.00  0.00    +0.153 C 
ATOM      4  C   UNL     1      36.998 -23.365 -15.792  0.00  0.00    +0.096 C 
ATOM      5  C   UNL     1      37.474 -22.029 -16.374  0.00  0.00    +0.051 C 
ATOM      6  C   UNL     1      34.461 -23.297 -15.429  0.00  0.00    +0.206 C 
ENDROOT
BRANCH   3   9
ATOM      7  O   UNL     1      34.861 -22.800 -18.643  0.00  0.00    -0.273 OA
ATOM      8  N   UNL     1      36.251 -21.008 -19.103  0.00  0.00    -0.299 N 
ATOM      9  C   UNL     1      35.642 -21.923 -18.258  0.00  0.00    +0.241 C 
ATOM     10  H   UNL     1      36.861 -20.342 -18.711  0.00  0.00    +0.150 HD
BRANCH   8  11
ATOM     11  C   UNL     1      36.035 -20.984 -20.532  0.00  0.00    +0.116 C 
BRANCH  11  12
ATOM     12  C   UNL     1      35.526 -19.651 -21.001  0.00  0.00    -0.003 C 
ATOM     13  C   UNL     1      36.400 -18.745 -21.604  0.00  0.00    -0.003 C 
ATOM     14  C   UNL     1      34.183 -19.318 -20.833  0.00  0.00    -0.003 C 
ATOM     15  C   UNL     1      35.928 -17.507 -22.039  0.00  0.00    +0.003 C 
ATOM     16  C   UNL     1      33.711 -18.079 -21.268  0.00  0.00    +0.003 C 
ATOM     17  C   UNL     1      34.585 -17.174 -21.871  0.00  0.00    +0.036 C 
BRANCH  17  19
ATOM     18  N   UNL     1      32.896 -15.374 -21.805  0.00  0.00    -0.381 N 
ATOM     19  C   UNL     1      34.094 -15.882 -22.324  0.00  0.00    +0.160 C 
ATOM     20  H   UNL     1      32.559 -14.501 -22.108  0.00  0.00    +0.157 HD
ATOM     21  H   UNL     1      32.392 -15.891 -21.136  0.00  0.00    +0.157 HD
BRANCH  19  22
ATOM     22  N   UNL     1      34.805 -15.217 -23.223  0.00  0.00    -0.118 NA
BRANCH  22  23
ATOM     23  O   UNL     1      34.462 -13.862 -23.271  0.00  0.00    -0.264 OA
ATOM     24  H   UNL     1      35.094 -13.210 -23.041  0.00  0.00    +0.247 HD
ENDBRANCH  22  23
ENDBRANCH  19  22
ENDBRANCH  17  19
ENDBRANCH  11  12
ENDBRANCH   8  11
ENDBRANCH   3   9
BRANCH   6  25
ATOM     25  C   UNL     1      34.568 -24.557 -14.613  0.00  0.00    +0.018 C 
BRANCH  25  26
ATOM     26  C   UNL     1      35.958 -24.666 -13.991  0.00  0.00    -0.011 C 
ATOM     27  C   UNL     1      35.915 -24.306 -12.499  0.00  0.00    -0.002 C 
ATOM     28  C   UNL     1      36.536 -26.073 -14.196  0.00  0.00    -0.002 C 
ATOM     29  C   UNL     1      37.284 -24.458 -11.842  0.00  0.00    -0.000 C 
ATOM     30  C   UNL     1      37.904 -26.222 -13.536  0.00  0.00    -0.000 C 
ATOM     31  C   UNL     1      37.859 -25.855 -12.056  0.00  0.00    -0.000 C 
ENDBRANCH  25  26
BRANCH  25  32
ATOM     32  N   UNL     1      33.550 -24.496 -13.576  0.00  0.00    +0.398 N 
ATOM     33  H   UNL     1      33.308 -23.521 -13.404  0.00  0.00    -0.083 HD
ATOM     34  H   UNL     1      33.923 -24.927 -12.731  0.00  0.00    -0.083 HD
BRANCH  32  35
ATOM     35  C   UNL     1      32.351 -25.221 -13.976  0.00  0.00    +0.031 C 
BRANCH  35  37
ATOM     36  O   UNL     1      31.097 -23.541 -12.738  0.00  0.00    -0.252 OA
ATOM     37  C   UNL     1      31.137 -24.408 -13.601  0.00  0.00    +0.295 C 
BRANCH  37  38
ATOM     38  O   UNL     1      30.089 -24.802 -14.385  0.00  0.00    -0.450 OA
BRANCH  38  39
ATOM     39  C   UNL     1      30.127 -24.346 -15.741  0.00  0.00    +0.208 C 
ATOM     40  C   UNL     1      29.584 -22.934 -15.803  0.00  0.00    +0.051 C 
ENDBRANCH  38  39
ENDBRANCH  37  38
ENDBRANCH  35  37
ENDBRANCH  32  35
ENDBRANCH  25  32
ENDBRANCH   6  25
TORSDOF 13
ENDMDL
MODEL 8
REMARK VINA RESULT:      -8.5      3.181      4.663
REMARK  Name = 9574101
REMARK  13 active torsions:
REMARK  status: ('A' for Active; 'I' for Inactive)
REMARK    1  A    between atoms: C_3  and  C_9
REMARK    2  A    between atoms: C_6  and  C_25
REMARK    3  A    between atoms: N_8  and  C_11
REMARK    4  A    between atoms: C_11  and  C_12
REMARK    5  A    between atoms: C_17  and  C_20
REMARK    6  A    between atoms: N_19  and  C_20
REMARK    7  A    between atoms: N_19  and  O_23
REMARK    8  A    between atoms: C_25  and  C_26
REMARK    9  A    between atoms: C_25  and  N_32
REMARK   10  A    between atoms: N_32  and  C_35
REMARK   11  A    between atoms: C_35  and  C_37
REMARK   12  A    between atoms: C_37  and  O_38
REMARK   13  A    between atoms: O_38  and  C_39
REMARK                            x       y       z     vdW  Elec       q    Type
REMARK                         _______ _______ _______ _____ _____    ______ ____
ROOT
ATOM      1  O   UNL     1      35.207 -16.802 -20.316  0.00  0.00    -0.277 OA
ATOM      2  N   UNL     1      33.893 -18.486 -21.160  0.00  0.00    -0.275 N 
ATOM      3  C   UNL     1      33.872 -19.553 -20.181  0.00  0.00    +0.153 C 
ATOM      4  C   UNL     1      33.053 -19.173 -22.120  0.00  0.00    +0.096 C 
ATOM      5  C   UNL     1      32.707 -20.143 -20.985  0.00  0.00    +0.051 C 
ATOM      6  C   UNL     1      34.513 -17.269 -21.218  0.00  0.00    +0.206 C 
ENDROOT
BRANCH   3   9
ATOM      7  O   UNL     1      35.928 -20.523 -21.068  0.00  0.00    -0.273 OA
ATOM      8  N   UNL     1      35.417 -20.895 -18.843  0.00  0.00    -0.299 N 
ATOM      9  C   UNL     1      35.175 -20.367 -20.102  0.00  0.00    +0.241 C 
ATOM     10  H   UNL     1      34.762 -20.722 -18.128  0.00  0.00    +0.150 HD
BRANCH   8  11
ATOM     11  C   UNL     1      36.584 -21.688 -18.527  0.00  0.00    +0.116 C 
BRANCH  11  12
ATOM     12  C   UNL     1      36.479 -22.328 -17.174  0.00  0.00    -0.003 C 
ATOM     13  C   UNL     1      37.620 -22.484 -16.386  0.00  0.00    -0.003 C 
ATOM     14  C   UNL     1      35.242 -22.768 -16.704  0.00  0.00    -0.003 C 
ATOM     15  C   UNL     1      37.523 -23.079 -15.128  0.00  0.00    +0.003 C 
ATOM     16  C   UNL     1      35.145 -23.364 -15.446  0.00  0.00    +0.003 C 
ATOM     17  C   UNL     1      36.286 -23.519 -14.659  0.00  0.00    +0.036 C 
BRANCH  17  19
ATOM     18  N   UNL     1      35.501 -23.481 -12.318  0.00  0.00    -0.381 N 
ATOM     19  C   UNL     1      36.185 -24.140 -13.347  0.00  0.00    +0.160 C 
ATOM     20  H   UNL     1      35.430 -23.897 -11.429  0.00  0.00    +0.157 HD
ATOM     21  H   UNL     1      35.089 -22.602 -12.485  0.00  0.00    +0.157 HD
BRANCH  19  22
ATOM     22  N   UNL     1      36.749 -25.325 -13.166  0.00  0.00    -0.118 NA
BRANCH  22  23
ATOM     23  O   UNL     1      36.439 -25.872 -11.916  0.00  0.00    -0.264 OA
ATOM     24  H   UNL     1      36.938 -26.593 -11.584  0.00  0.00    +0.247 HD
ENDBRANCH  22  23
ENDBRANCH  19  22
ENDBRANCH  17  19
ENDBRANCH  11  12
ENDBRANCH   8  11
ENDBRANCH   3   9
BRANCH   6  25
ATOM     25  C   UNL     1      34.285 -16.517 -22.502  0.00  0.00    +0.018 C 
BRANCH  25  26
ATOM     26  C   UNL     1      33.952 -15.056 -22.204  0.00  0.00    -0.011 C 
ATOM     27  C   UNL     1      34.026 -14.211 -23.484  0.00  0.00    -0.002 C 
ATOM     28  C   UNL     1      32.567 -14.937 -21.551  0.00  0.00    -0.002 C 
ATOM     29  C   UNL     1      33.645 -12.756 -23.222  0.00  0.00    -0.000 C 
ATOM     30  C   UNL     1      32.189 -13.481 -21.293  0.00  0.00    -0.000 C 
ATOM     31  C   UNL     1      32.273 -12.643 -22.564  0.00  0.00    -0.000 C 
ENDBRANCH  25  26
BRANCH  25  32
ATOM     32  N   UNL     1      35.504 -16.610 -23.288  0.00  0.00    +0.398 N 
ATOM     33  H   UNL     1      36.304 -16.654 -22.657  0.00  0.00    -0.083 HD
ATOM     34  H   UNL     1      35.566 -15.788 -23.888  0.00  0.00    -0.083 HD
BRANCH  32  35
ATOM     35  C   UNL     1      35.495 -17.799 -24.129  0.00  0.00    +0.031 C 
BRANCH  35  37
ATOM     36  O   UNL     1      33.604 -18.539 -25.472  0.00  0.00    -0.252 OA
ATOM     37  C   UNL     1      34.400 -17.665 -25.158  0.00  0.00    +0.295 C 
BRANCH  37  38
ATOM     38  O   UNL     1      34.447 -16.403 -25.683  0.00  0.00    -0.450 OA
BRANCH  38  39
ATOM     39  C   UNL     1      33.222 -15.924 -26.247  0.00  0.00    +0.208 C 
ATOM     40  C   UNL     1      33.400 -14.478 -26.658  0.00  0.00    +0.051 C 
ENDBRANCH  38  39
ENDBRANCH  37  38
ENDBRANCH  35  37
ENDBRANCH  32  35
ENDBRANCH  25  32
ENDBRANCH   6  25
TORSDOF 13
ENDMDL
MODEL 9
REMARK VINA RESULT:      -8.4      2.168      3.674
REMARK  Name = 9574101
REMARK  13 active torsions:
REMARK  status: ('A' for Active; 'I' for Inactive)
REMARK    1  A    between atoms: C_3  and  C_9
REMARK    2  A    between atoms: C_6  and  C_25
REMARK    3  A    between atoms: N_8  and  C_11
REMARK    4  A    between atoms: C_11  and  C_12
REMARK    5  A    between atoms: C_17  and  C_20
REMARK    6  A    between atoms: N_19  and  C_20
REMARK    7  A    between atoms: N_19  and  O_23
REMARK    8  A    between atoms: C_25  and  C_26
REMARK    9  A    between atoms: C_25  and  N_32
REMARK   10  A    between atoms: N_32  and  C_35
REMARK   11  A    between atoms: C_35  and  C_37
REMARK   12  A    between atoms: C_37  and  O_38
REMARK   13  A    between atoms: O_38  and  C_39
REMARK                            x       y       z     vdW  Elec       q    Type
REMARK                         _______ _______ _______ _____ _____    ______ ____
ROOT
ATOM      1  O   UNL     1      31.983 -13.810 -21.628  0.00  0.00    -0.277 OA
ATOM      2  N   UNL     1      32.880 -14.040 -23.729  0.00  0.00    -0.275 N 
ATOM      3  C   UNL     1      33.216 -15.438 -23.907  0.00  0.00    +0.153 C 
ATOM      4  C   UNL     1      33.354 -13.624 -25.033  0.00  0.00    +0.096 C 
ATOM      5  C   UNL     1      33.380 -15.113 -25.397  0.00  0.00    +0.051 C 
ATOM      6  C   UNL     1      32.349 -13.320 -22.695  0.00  0.00    +0.206 C 
ENDROOT
BRANCH   3   9
ATOM      7  O   UNL     1      35.189 -15.111 -22.508  0.00  0.00    -0.273 OA
ATOM      8  N   UNL     1      34.682 -17.261 -23.196  0.00  0.00    -0.299 N 
ATOM      9  C   UNL     1      34.464 -15.894 -23.131  0.00  0.00    +0.241 C 
ATOM     10  H   UNL     1      34.053 -17.812 -23.717  0.00  0.00    +0.150 HD
BRANCH   8  11
ATOM     11  C   UNL     1      35.787 -17.920 -22.537  0.00  0.00    +0.116 C 
BRANCH  11  12
ATOM     12  C   UNL     1      35.321 -18.987 -21.589  0.00  0.00    -0.003 C 
ATOM     13  C   UNL     1      36.252 -19.720 -20.853  0.00  0.00    -0.003 C 
ATOM     14  C   UNL     1      33.959 -19.247 -21.446  0.00  0.00    -0.003 C 
ATOM     15  C   UNL     1      35.820 -20.712 -19.973  0.00  0.00    +0.003 C 
ATOM     16  C   UNL     1      33.526 -20.239 -20.566  0.00  0.00    +0.003 C 
ATOM     17  C   UNL     1      34.458 -20.971 -19.830  0.00  0.00    +0.036 C 
BRANCH  17  19
ATOM     18  N   UNL     1      32.638 -22.163 -18.662  0.00  0.00    -0.381 N 
ATOM     19  C   UNL     1      34.007 -22.007 -18.913  0.00  0.00    +0.160 C 
ATOM     20  H   UNL     1      32.328 -22.861 -18.042  0.00  0.00    +0.157 HD
ATOM     21  H   UNL     1      31.986 -21.575 -19.106  0.00  0.00    +0.157 HD
BRANCH  19  22
ATOM     22  N   UNL     1      34.917 -22.780 -18.338  0.00  0.00    -0.118 NA
BRANCH  22  23
ATOM     23  O   UNL     1      34.389 -23.515 -17.272  0.00  0.00    -0.264 OA
ATOM     24  H   UNL     1      34.871 -24.235 -16.914  0.00  0.00    +0.247 HD
ENDBRANCH  22  23
ENDBRANCH  19  22
ENDBRANCH  17  19
ENDBRANCH  11  12
ENDBRANCH   8  11
ENDBRANCH   3   9
BRANCH   6  25
ATOM     25  C   UNL     1      32.242 -11.843 -22.958  0.00  0.00    +0.018 C 
BRANCH  25  26
ATOM     26  C   UNL     1      31.660 -11.131 -21.739  0.00  0.00    -0.011 C 
ATOM     27  C   UNL     1      31.976 -11.910 -20.454  0.00  0.00    -0.002 C 
ATOM     28  C   UNL     1      32.187  -9.692 -21.648  0.00  0.00    -0.002 C 
ATOM     29  C   UNL     1      31.451 -11.191 -19.214  0.00  0.00    -0.000 C 
ATOM     30  C   UNL     1      31.661  -8.977 -20.406  0.00  0.00    -0.000 C 
ATOM     31  C   UNL     1      31.969  -9.758 -19.133  0.00  0.00    -0.000 C 
ENDBRANCH  25  26
BRANCH  25  32
ATOM     32  N   UNL     1      33.580 -11.350 -23.244  0.00  0.00    +0.398 N 
ATOM     33  H   UNL     1      34.172 -12.134 -23.517  0.00  0.00    -0.083 HD
ATOM     34  H   UNL     1      33.946 -10.900 -22.405  0.00  0.00    -0.083 HD
BRANCH  32  35
ATOM     35  C   UNL     1      33.558 -10.371 -24.323  0.00  0.00    +0.031 C 
BRANCH  35  37
ATOM     36  O   UNL     1      34.959  -8.559 -23.498  0.00  0.00    -0.252 OA
ATOM     37  C   UNL     1      34.801  -9.520 -24.239  0.00  0.00    +0.295 C 
BRANCH  37  38
ATOM     38  O   UNL     1      35.720  -9.999 -25.130  0.00  0.00    -0.450 OA
BRANCH  38  39
ATOM     39  C   UNL     1      35.205 -10.883 -26.132  0.00  0.00    +0.208 C 
ATOM     40  C   UNL     1      35.950 -10.646 -27.428  0.00  0.00    +0.051 C 
ENDBRANCH  38  39
ENDBRANCH  37  38
ENDBRANCH  35  37
ENDBRANCH  32  35
ENDBRANCH  25  32
ENDBRANCH   6  25
TORSDOF 13
ENDMDL
