MODEL 1
REMARK VINA RESULT:      -9.2      0.000      0.000
REMARK  Name = 2441
REMARK  1 active torsions:
REMARK  status: ('A' for Active; 'I' for Inactive)
REMARK    1  A    between atoms: C_7  and  C_16
REMARK                            x       y       z     vdW  Elec       q    Type
REMARK                         _______ _______ _______ _____ _____    ______ ____
ROOT
ATOM      1 BR   UNL     1      31.361  -5.057 -24.917  0.00  0.00    -0.049 Br
ATOM      2  O   UNL     1      32.198 -10.253 -18.567  0.00  0.00    -0.273 OA
ATOM      3  N   UNL     1      32.220  -8.363 -19.860  0.00  0.00    -0.282 N 
ATOM      4  N   UNL     1      32.087 -10.673 -21.802  0.00  0.00    -0.259 NA
ATOM      5  C   UNL     1      32.097  -8.263 -22.346  0.00  0.00    +0.033 C 
ATOM      6  C   UNL     1      32.076  -7.663 -21.076  0.00  0.00    +0.052 C 
ATOM      7  C   UNL     1      32.484  -9.694 -22.543  0.00  0.00    +0.095 C 
ATOM      8  C   UNL     1      31.861  -7.478 -23.487  0.00  0.00    +0.009 C 
ATOM      9  C   UNL     1      31.170 -10.404 -20.717  0.00  0.00    +0.210 C 
ATOM     10  C   UNL     1      31.926  -6.271 -20.980  0.00  0.00    +0.015 C 
ATOM     11  C   UNL     1      31.928  -9.690 -19.630  0.00  0.00    +0.251 C 
ATOM     12  C   UNL     1      31.664  -6.103 -23.372  0.00  0.00    +0.035 C 
ATOM     13  C   UNL     1      31.714  -5.497 -22.121  0.00  0.00    +0.008 C 
ATOM     14  H   UNL     1      32.567  -7.850 -19.096  0.00  0.00    +0.155 HD
ENDROOT
BRANCH   7  16
ATOM     15  N   UNL     1      33.158 -11.189 -24.291  0.00  0.00    -0.242 NA
ATOM     16  C   UNL     1      33.423 -10.035 -23.650  0.00  0.00    +0.099 C 
ATOM     17  C   UNL     1      34.470  -9.187 -23.945  0.00  0.00    +0.021 C 
ATOM     18  C   UNL     1      35.316  -9.553 -24.985  0.00  0.00    +0.003 C 
ATOM     19  C   UNL     1      34.003 -11.511 -25.297  0.00  0.00    +0.099 C 
ATOM     20  C   UNL     1      35.085 -10.735 -25.680  0.00  0.00    +0.021 C 
ENDBRANCH   7  16
TORSDOF 1
ENDMDL
MODEL 2
REMARK VINA RESULT:      -9.2     14.334     15.989
REMARK  Name = 2441
REMARK  1 active torsions:
REMARK  status: ('A' for Active; 'I' for Inactive)
REMARK    1  A    between atoms: C_7  and  C_16
REMARK                            x       y       z     vdW  Elec       q    Type
REMARK                         _______ _______ _______ _____ _____    ______ ____
ROOT
ATOM      1 BR   UNL     1      28.917 -23.197 -16.785  0.00  0.00    -0.049 Br
ATOM      2  O   UNL     1      36.182 -24.100 -12.987  0.00  0.00    -0.273 OA
ATOM      3  N   UNL     1      34.023 -23.497 -13.457  0.00  0.00    -0.282 N 
ATOM      4  N   UNL     1      35.266 -24.200 -16.118  0.00  0.00    -0.259 NA
ATOM      5  C   UNL     1      32.938 -23.491 -15.699  0.00  0.00    +0.033 C 
ATOM      6  C   UNL     1      32.896 -23.392 -14.298  0.00  0.00    +0.052 C 
ATOM      7  C   UNL     1      34.227 -23.516 -16.456  0.00  0.00    +0.095 C 
ATOM      8  C   UNL     1      31.740 -23.453 -16.431  0.00  0.00    +0.009 C 
ATOM      9  C   UNL     1      35.200 -25.046 -14.947  0.00  0.00    +0.210 C 
ATOM     10  C   UNL     1      31.667 -23.148 -13.666  0.00  0.00    +0.015 C 
ATOM     11  C   UNL     1      35.200 -24.160 -13.730  0.00  0.00    +0.251 C 
ATOM     12  C   UNL     1      30.520 -23.259 -15.785  0.00  0.00    +0.035 C 
ATOM     13  C   UNL     1      30.485 -23.090 -14.405  0.00  0.00    +0.008 C 
ATOM     14  H   UNL     1      33.962 -23.050 -12.582  0.00  0.00    +0.155 HD
ENDROOT
BRANCH   7  16
ATOM     15  N   UNL     1      35.610 -22.290 -17.982  0.00  0.00    -0.242 NA
ATOM     16  C   UNL     1      34.355 -22.668 -17.676  0.00  0.00    +0.099 C 
ATOM     17  C   UNL     1      33.228 -22.328 -18.395  0.00  0.00    +0.021 C 
ATOM     18  C   UNL     1      33.403 -21.535 -19.523  0.00  0.00    +0.003 C 
ATOM     19  C   UNL     1      35.742 -21.520 -19.086  0.00  0.00    +0.099 C 
ATOM     20  C   UNL     1      34.681 -21.119 -19.882  0.00  0.00    +0.021 C 
ENDBRANCH   7  16
TORSDOF 1
ENDMDL
MODEL 3
REMARK VINA RESULT:      -9.2     15.312     17.016
REMARK  Name = 2441
REMARK  1 active torsions:
REMARK  status: ('A' for Active; 'I' for Inactive)
REMARK    1  A    between atoms: C_7  and  C_16
REMARK                            x       y       z     vdW  Elec       q    Type
REMARK                         _______ _______ _______ _____ _____    ______ ____
ROOT
ATOM      1 BR   UNL     1      31.331 -23.804 -13.846  0.00  0.00    -0.049 Br
ATOM      2  O   UNL     1      36.949 -21.617 -19.473  0.00  0.00    -0.273 OA
ATOM      3  N   UNL     1      35.034 -22.396 -18.486  0.00  0.00    -0.282 N 
ATOM      4  N   UNL     1      37.144 -22.458 -16.326  0.00  0.00    -0.259 NA
ATOM      5  C   UNL     1      34.765 -23.085 -16.108  0.00  0.00    +0.033 C 
ATOM      6  C   UNL     1      34.250 -22.774 -17.377  0.00  0.00    +0.052 C 
ATOM      7  C   UNL     1      36.232 -23.242 -15.862  0.00  0.00    +0.095 C 
ATOM      8  C   UNL     1      33.882 -23.371 -15.053  0.00  0.00    +0.009 C 
ATOM      9  C   UNL     1      36.750 -21.311 -17.114  0.00  0.00    +0.210 C 
ATOM     10  C   UNL     1      32.866 -22.862 -17.594  0.00  0.00    +0.015 C 
ATOM     11  C   UNL     1      36.279 -21.805 -18.455  0.00  0.00    +0.251 C 
ATOM     12  C   UNL     1      32.506 -23.405 -15.271  0.00  0.00    +0.035 C 
ATOM     13  C   UNL     1      31.999 -23.168 -16.544  0.00  0.00    +0.008 C 
ATOM     14  H   UNL     1      34.653 -22.572 -19.376  0.00  0.00    +0.155 HD
ENDROOT
BRANCH   7  16
ATOM     15  N   UNL     1      36.395 -25.614 -15.556  0.00  0.00    -0.242 NA
ATOM     16  C   UNL     1      36.700 -24.404 -15.051  0.00  0.00    +0.099 C 
ATOM     17  C   UNL     1      37.389 -24.186 -13.878  0.00  0.00    +0.021 C 
ATOM     18  C   UNL     1      37.801 -25.303 -13.160  0.00  0.00    +0.003 C 
ATOM     19  C   UNL     1      36.812 -26.677 -14.831  0.00  0.00    +0.099 C 
ATOM     20  C   UNL     1      37.511 -26.576 -13.640  0.00  0.00    +0.021 C 
ENDBRANCH   7  16
TORSDOF 1
ENDMDL
MODEL 4
REMARK VINA RESULT:      -8.5      4.129      6.279
REMARK  Name = 2441
REMARK  1 active torsions:
REMARK  status: ('A' for Active; 'I' for Inactive)
REMARK    1  A    between atoms: C_7  and  C_16
REMARK                            x       y       z     vdW  Elec       q    Type
REMARK                         _______ _______ _______ _____ _____    ______ ____
ROOT
ATOM      1 BR   UNL     1      31.490 -11.776 -19.903  0.00  0.00    -0.049 Br
ATOM      2  O   UNL     1      34.372 -16.550 -25.978  0.00  0.00    -0.273 OA
ATOM      3  N   UNL     1      33.933 -15.679 -23.906  0.00  0.00    -0.282 N 
ATOM      4  N   UNL     1      33.340 -13.456 -25.863  0.00  0.00    -0.259 NA
ATOM      5  C   UNL     1      33.085 -13.392 -23.407  0.00  0.00    +0.033 C 
ATOM      6  C   UNL     1      33.409 -14.706 -23.031  0.00  0.00    +0.052 C 
ATOM      7  C   UNL     1      33.459 -12.831 -24.741  0.00  0.00    +0.095 C 
ATOM      8  C   UNL     1      32.492 -12.530 -22.469  0.00  0.00    +0.009 C 
ATOM      9  C   UNL     1      32.769 -14.785 -25.867  0.00  0.00    +0.210 C 
ATOM     10  C   UNL     1      33.233 -15.098 -21.695  0.00  0.00    +0.015 C 
ATOM     11  C   UNL     1      33.779 -15.730 -25.275  0.00  0.00    +0.251 C 
ATOM     12  C   UNL     1      32.277 -12.950 -21.158  0.00  0.00    +0.035 C 
ATOM     13  C   UNL     1      32.663 -14.228 -20.766  0.00  0.00    +0.008 C 
ATOM     14  H   UNL     1      34.466 -16.399 -23.496  0.00  0.00    +0.155 HD
ENDROOT
BRANCH   7  16
ATOM     15  N   UNL     1      33.636 -10.619 -23.837  0.00  0.00    -0.242 NA
ATOM     16  C   UNL     1      34.048 -11.462 -24.802  0.00  0.00    +0.099 C 
ATOM     17  C   UNL     1      34.945 -11.146 -25.800  0.00  0.00    +0.021 C 
ATOM     18  C   UNL     1      35.463  -9.856 -25.811  0.00  0.00    +0.003 C 
ATOM     19  C   UNL     1      34.161  -9.373 -23.879  0.00  0.00    +0.099 C 
ATOM     20  C   UNL     1      35.069  -8.946 -24.835  0.00  0.00    +0.021 C 
ENDBRANCH   7  16
TORSDOF 1
ENDMDL
MODEL 5
REMARK VINA RESULT:      -8.4     14.240     16.300
REMARK  Name = 2441
REMARK  1 active torsions:
REMARK  status: ('A' for Active; 'I' for Inactive)
REMARK    1  A    between atoms: C_7  and  C_16
REMARK                            x       y       z     vdW  Elec       q    Type
REMARK                         _______ _______ _______ _____ _____    ______ ____
ROOT
ATOM      1 BR   UNL     1      36.485 -25.279 -13.562  0.00  0.00    -0.049 Br
ATOM      2  O   UNL     1      34.949 -20.677 -20.231  0.00  0.00    -0.273 OA
ATOM      3  N   UNL     1      35.839 -21.447 -18.266  0.00  0.00    -0.282 N 
ATOM      4  N   UNL     1      33.182 -22.853 -18.558  0.00  0.00    -0.259 NA
ATOM      5  C   UNL     1      34.830 -23.138 -16.741  0.00  0.00    +0.033 C 
ATOM      6  C   UNL     1      35.894 -22.324 -17.162  0.00  0.00    +0.052 C 
ATOM      7  C   UNL     1      33.453 -23.003 -17.307  0.00  0.00    +0.095 C 
ATOM      8  C   UNL     1      35.024 -24.034 -15.676  0.00  0.00    +0.009 C 
ATOM      9  C   UNL     1      34.267 -22.850 -19.515  0.00  0.00    +0.210 C 
ATOM     10  C   UNL     1      37.098 -22.343 -16.442  0.00  0.00    +0.015 C 
ATOM     11  C   UNL     1      35.018 -21.554 -19.367  0.00  0.00    +0.251 C 
ATOM     12  C   UNL     1      36.242 -24.078 -15.001  0.00  0.00    +0.035 C 
ATOM     13  C   UNL     1      37.273 -23.221 -15.372  0.00  0.00    +0.008 C 
ATOM     14  H   UNL     1      36.452 -20.677 -18.248  0.00  0.00    +0.155 HD
ENDROOT
BRANCH   7  16
ATOM     15  N   UNL     1      31.089 -22.839 -16.949  0.00  0.00    -0.242 NA
ATOM     16  C   UNL     1      32.292 -23.004 -16.370  0.00  0.00    +0.099 C 
ATOM     17  C   UNL     1      32.504 -23.167 -15.017  0.00  0.00    +0.021 C 
ATOM     18  C   UNL     1      31.389 -23.159 -14.188  0.00  0.00    +0.003 C 
ATOM     19  C   UNL     1      30.027 -22.837 -16.112  0.00  0.00    +0.099 C 
ATOM     20  C   UNL     1      30.122 -22.992 -14.738  0.00  0.00    +0.021 C 
ENDBRANCH   7  16
TORSDOF 1
ENDMDL
MODEL 6
REMARK VINA RESULT:      -8.2      2.069      4.552
REMARK  Name = 2441
REMARK  1 active torsions:
REMARK  status: ('A' for Active; 'I' for Inactive)
REMARK    1  A    between atoms: C_7  and  C_16
REMARK                            x       y       z     vdW  Elec       q    Type
REMARK                         _______ _______ _______ _____ _____    ______ ____
ROOT
ATOM      1 BR   UNL     1      35.292 -10.317 -25.752  0.00  0.00    -0.049 Br
ATOM      2  O   UNL     1      30.364 -10.744 -19.153  0.00  0.00    -0.273 OA
ATOM      3  N   UNL     1      31.398 -11.217 -21.141  0.00  0.00    -0.282 N 
ATOM      4  N   UNL     1      31.890  -8.277 -20.650  0.00  0.00    -0.259 NA
ATOM      5  C   UNL     1      32.701  -9.630 -22.551  0.00  0.00    +0.033 C 
ATOM      6  C   UNL     1      32.260 -10.921 -22.218  0.00  0.00    +0.052 C 
ATOM      7  C   UNL     1      32.132  -8.405 -21.910  0.00  0.00    +0.095 C 
ATOM      8  C   UNL     1      33.625  -9.463 -23.596  0.00  0.00    +0.009 C 
ATOM      9  C   UNL     1      32.219  -9.368 -19.759  0.00  0.00    +0.210 C 
ATOM     10  C   UNL     1      32.666 -12.008 -23.007  0.00  0.00    +0.015 C 
ATOM     11  C   UNL     1      31.227 -10.477 -19.991  0.00  0.00    +0.251 C 
ATOM     12  C   UNL     1      34.059 -10.558 -24.340  0.00  0.00    +0.035 C 
ATOM     13  C   UNL     1      33.567 -11.828 -24.057  0.00  0.00    +0.008 C 
ATOM     14  H   UNL     1      30.861 -12.038 -21.220  0.00  0.00    +0.155 HD
ENDROOT
BRANCH   7  16
ATOM     15  N   UNL     1      32.152  -6.041 -22.303  0.00  0.00    -0.242 NA
ATOM     16  C   UNL     1      31.778  -7.244 -22.777  0.00  0.00    +0.099 C 
ATOM     17  C   UNL     1      31.114  -7.456 -23.967  0.00  0.00    +0.021 C 
ATOM     18  C   UNL     1      30.807  -6.339 -24.736  0.00  0.00    +0.003 C 
ATOM     19  C   UNL     1      31.836  -4.978 -23.079  0.00  0.00    +0.099 C 
ATOM     20  C   UNL     1      31.172  -5.073 -24.291  0.00  0.00    +0.021 C 
ENDBRANCH   7  16
TORSDOF 1
ENDMDL
MODEL 7
REMARK VINA RESULT:      -8.2     14.496     16.354
REMARK  Name = 2441
REMARK  1 active torsions:
REMARK  status: ('A' for Active; 'I' for Inactive)
REMARK    1  A    between atoms: C_7  and  C_16
REMARK                            x       y       z     vdW  Elec       q    Type
REMARK                         _______ _______ _______ _____ _____    ______ ____
ROOT
ATOM      1 BR   UNL     1      34.555 -23.901 -12.720  0.00  0.00    -0.049 Br
ATOM      2  O   UNL     1      27.695 -24.196 -17.287  0.00  0.00    -0.273 OA
ATOM      3  N   UNL     1      29.442 -24.787 -15.930  0.00  0.00    -0.282 N 
ATOM      4  N   UNL     1      30.297 -22.225 -17.282  0.00  0.00    -0.259 NA
ATOM      5  C   UNL     1      31.567 -23.527 -15.611  0.00  0.00    +0.033 C 
ATOM      6  C   UNL     1      30.664 -24.547 -15.268  0.00  0.00    +0.052 C 
ATOM      7  C   UNL     1      31.411 -22.713 -16.855  0.00  0.00    +0.095 C 
ATOM      8  C   UNL     1      32.717 -23.328 -14.829  0.00  0.00    +0.009 C 
ATOM      9  C   UNL     1      29.096 -22.430 -16.501  0.00  0.00    +0.210 C 
ATOM     10  C   UNL     1      30.984 -25.418 -14.215  0.00  0.00    +0.015 C 
ATOM     11  C   UNL     1      28.691 -23.873 -16.637  0.00  0.00    +0.251 C 
ATOM     12  C   UNL     1      32.997 -24.171 -13.755  0.00  0.00    +0.035 C 
ATOM     13  C   UNL     1      32.140 -25.226 -13.459  0.00  0.00    +0.008 C 
ATOM     14  H   UNL     1      29.089 -25.704 -15.882  0.00  0.00    +0.155 HD
ENDROOT
BRANCH   7  16
ATOM     15  N   UNL     1      32.401 -21.702 -18.789  0.00  0.00    -0.242 NA
ATOM     16  C   UNL     1      32.615 -22.463 -17.700  0.00  0.00    +0.099 C 
ATOM     17  C   UNL     1      33.830 -23.003 -17.337  0.00  0.00    +0.021 C 
ATOM     18  C   UNL     1      34.920 -22.740 -18.160  0.00  0.00    +0.003 C 
ATOM     19  C   UNL     1      33.484 -21.467 -19.566  0.00  0.00    +0.099 C 
ATOM     20  C   UNL     1      34.751 -21.958 -19.298  0.00  0.00    +0.021 C 
ENDBRANCH   7  16
TORSDOF 1
ENDMDL
MODEL 8
REMARK VINA RESULT:      -7.7     15.294     16.839
REMARK  Name = 2441
REMARK  1 active torsions:
REMARK  status: ('A' for Active; 'I' for Inactive)
REMARK    1  A    between atoms: C_7  and  C_16
REMARK                            x       y       z     vdW  Elec       q    Type
REMARK                         _______ _______ _______ _____ _____    ______ ____
ROOT
ATOM      1 BR   UNL     1      30.526 -22.924 -16.371  0.00  0.00    -0.049 Br
ATOM      2  O   UNL     1      37.083 -25.423 -12.039  0.00  0.00    -0.273 OA
ATOM      3  N   UNL     1      35.075 -24.485 -12.616  0.00  0.00    -0.282 N 
ATOM      4  N   UNL     1      36.602 -24.789 -15.204  0.00  0.00    -0.259 NA
ATOM      5  C   UNL     1      34.314 -23.905 -14.915  0.00  0.00    +0.033 C 
ATOM      6  C   UNL     1      34.089 -24.082 -13.540  0.00  0.00    +0.052 C 
ATOM      7  C   UNL     1      35.687 -23.933 -15.507  0.00  0.00    +0.095 C 
ATOM      8  C   UNL     1      33.237 -23.580 -15.756  0.00  0.00    +0.009 C 
ATOM      9  C   UNL     1      36.296 -25.836 -14.255  0.00  0.00    +0.210 C 
ATOM     10  C   UNL     1      32.813 -23.823 -13.017  0.00  0.00    +0.015 C 
ATOM     11  C   UNL     1      36.212 -25.216 -12.886  0.00  0.00    +0.251 C 
ATOM     12  C   UNL     1      31.963 -23.374 -15.229  0.00  0.00    +0.035 C 
ATOM     13  C   UNL     1      31.755 -23.479 -13.858  0.00  0.00    +0.008 C 
ATOM     14  H   UNL     1      34.937 -24.216 -11.679  0.00  0.00    +0.155 HD
ENDROOT
BRANCH   7  16
ATOM     15  N   UNL     1      35.328 -22.874 -17.627  0.00  0.00    -0.242 NA
ATOM     16  C   UNL     1      36.059 -22.881 -16.497  0.00  0.00    +0.099 C 
ATOM     17  C   UNL     1      37.089 -22.009 -16.214  0.00  0.00    +0.021 C 
ATOM     18  C   UNL     1      37.397 -21.049 -17.171  0.00  0.00    +0.003 C 
ATOM     19  C   UNL     1      35.655 -21.926 -18.534  0.00  0.00    +0.099 C 
ATOM     20  C   UNL     1      36.670 -21.000 -18.357  0.00  0.00    +0.021 C 
ENDBRANCH   7  16
TORSDOF 1
ENDMDL
MODEL 9
REMARK VINA RESULT:      -7.4     16.374     17.838
REMARK  Name = 2441
REMARK  1 active torsions:
REMARK  status: ('A' for Active; 'I' for Inactive)
REMARK    1  A    between atoms: C_7  and  C_16
REMARK                            x       y       z     vdW  Elec       q    Type
REMARK                         _______ _______ _______ _____ _____    ______ ____
ROOT
ATOM      1 BR   UNL     1      36.844 -21.047 -17.598  0.00  0.00    -0.049 Br
ATOM      2  O   UNL     1      36.907 -26.436 -11.355  0.00  0.00    -0.273 OA
ATOM      3  N   UNL     1      37.354 -25.392 -13.345  0.00  0.00    -0.282 N 
ATOM      4  N   UNL     1      34.720 -24.253 -12.405  0.00  0.00    -0.259 NA
ATOM      5  C   UNL     1      35.967 -23.642 -14.447  0.00  0.00    +0.033 C 
ATOM      6  C   UNL     1      37.141 -24.403 -14.327  0.00  0.00    +0.052 C 
ATOM      7  C   UNL     1      34.735 -23.950 -13.658  0.00  0.00    +0.095 C 
ATOM      8  C   UNL     1      35.897 -22.626 -15.415  0.00  0.00    +0.009 C 
ATOM      9  C   UNL     1      35.965 -24.265 -11.670  0.00  0.00    +0.210 C 
ATOM     10  C   UNL     1      38.181 -24.207 -15.249  0.00  0.00    +0.015 C 
ATOM     11  C   UNL     1      36.754 -25.471 -12.106  0.00  0.00    +0.251 C 
ATOM     12  C   UNL     1      36.958 -22.409 -16.292  0.00  0.00    +0.035 C 
ATOM     13  C   UNL     1      38.092 -23.210 -16.221  0.00  0.00    +0.008 C 
ATOM     14  H   UNL     1      37.999 -26.101 -13.566  0.00  0.00    +0.155 HD
ENDROOT
BRANCH   7  16
ATOM     15  N   UNL     1      32.397 -24.476 -13.660  0.00  0.00    -0.242 NA
ATOM     16  C   UNL     1      33.419 -23.948 -14.359  0.00  0.00    +0.099 C 
ATOM     17  C   UNL     1      33.322 -23.430 -15.633  0.00  0.00    +0.021 C 
ATOM     18  C   UNL     1      32.073 -23.453 -16.242  0.00  0.00    +0.003 C 
ATOM     19  C   UNL     1      31.197 -24.482 -14.284  0.00  0.00    +0.099 C 
ATOM     20  C   UNL     1      30.984 -23.987 -15.560  0.00  0.00    +0.021 C 
ENDBRANCH   7  16
TORSDOF 1
ENDMDL
