MODEL 1
REMARK VINA RESULT:      -6.2      0.000      0.000
REMARK  Name = 11205997
REMARK  4 active torsions:
REMARK  status: ('A' for Active; 'I' for Inactive)
REMARK    1  A    between atoms: C_3  and  C_9
REMARK    2  A    between atoms: C_4  and  C_14
REMARK    3  A    between atoms: C_9  and  N_10
REMARK    4  A    between atoms: C_14  and  O_15
REMARK                            x       y       z     vdW  Elec       q    Type
REMARK                         _______ _______ _______ _____ _____    ______ ____
ROOT
ATOM      1  O   UNL     1      34.605 -17.151 -25.874  0.00  0.00    -0.290 OA
ATOM      2  N   UNL     1      33.277 -14.542 -23.821  0.00  0.00    -0.246 NA
ATOM      3  C   UNL     1      34.759 -16.898 -23.565  0.00  0.00    +0.064 C 
ATOM      4  C   UNL     1      34.446 -16.144 -22.439  0.00  0.00    +0.009 C 
ATOM      5  C   UNL     1      34.331 -16.474 -24.819  0.00  0.00    +0.188 C 
ATOM      6  C   UNL     1      33.600 -15.300 -24.892  0.00  0.00    +0.094 C 
ATOM      7  C   UNL     1      33.710 -14.985 -22.619  0.00  0.00    +0.093 C 
ATOM      8  C   UNL     1      33.097 -14.766 -26.198  0.00  0.00    +0.055 C 
ENDROOT
BRANCH   3   9
ATOM      9  C   UNL     1      35.555 -18.158 -23.389  0.00  0.00    -0.074 C 
BRANCH   9  10
ATOM     10  N   UNL     1      34.848 -19.368 -23.880  0.00  0.00    +0.381 N 
ATOM     11  H   UNL     1      35.214 -20.193 -23.404  0.00  0.00    -0.089 HD
ATOM     12  H   UNL     1      34.994 -19.463 -24.885  0.00  0.00    -0.089 HD
ATOM     13  H   UNL     1      33.850 -19.279 -23.689  0.00  0.00    -0.089 HD
ENDBRANCH   9  10
ENDBRANCH   3   9
BRANCH   4  14
ATOM     14  C   UNL     1      34.875 -16.547 -21.070  0.00  0.00    +0.161 C 
BRANCH  14  15
ATOM     15  O   UNL     1      34.876 -15.406 -20.220  0.00  0.00    -0.377 OA
ATOM     16  H   UNL     1      35.685 -14.893 -20.368  0.00  0.00    +0.211 HD
ENDBRANCH  14  15
ENDBRANCH   4  14
TORSDOF 4
ENDMDL
MODEL 2
REMARK VINA RESULT:      -6.2      5.112      6.225
REMARK  Name = 11205997
REMARK  4 active torsions:
REMARK  status: ('A' for Active; 'I' for Inactive)
REMARK    1  A    between atoms: C_3  and  C_9
REMARK    2  A    between atoms: C_4  and  C_14
REMARK    3  A    between atoms: C_9  and  N_10
REMARK    4  A    between atoms: C_14  and  O_15
REMARK                            x       y       z     vdW  Elec       q    Type
REMARK                         _______ _______ _______ _____ _____    ______ ____
ROOT
ATOM      1  O   UNL     1      36.821 -19.366 -20.632  0.00  0.00    -0.290 OA
ATOM      2  N   UNL     1      33.286 -19.710 -21.051  0.00  0.00    -0.246 NA
ATOM      3  C   UNL     1      35.393 -20.944 -19.689  0.00  0.00    +0.064 C 
ATOM      4  C   UNL     1      34.098 -21.434 -19.561  0.00  0.00    +0.009 C 
ATOM      5  C   UNL     1      35.635 -19.838 -20.496  0.00  0.00    +0.188 C 
ATOM      6  C   UNL     1      34.557 -19.263 -21.149  0.00  0.00    +0.094 C 
ATOM      7  C   UNL     1      33.089 -20.787 -20.257  0.00  0.00    +0.093 C 
ATOM      8  C   UNL     1      34.722 -18.070 -22.040  0.00  0.00    +0.055 C 
ENDROOT
BRANCH   3   9
ATOM      9  C   UNL     1      36.498 -21.633 -18.943  0.00  0.00    -0.074 C 
BRANCH   9  10
ATOM     10  N   UNL     1      36.988 -20.853 -17.777  0.00  0.00    +0.381 N 
ATOM     11  H   UNL     1      37.635 -20.132 -18.098  0.00  0.00    -0.089 HD
ATOM     12  H   UNL     1      37.469 -21.477 -17.129  0.00  0.00    -0.089 HD
ATOM     13  H   UNL     1      36.198 -20.415 -17.305  0.00  0.00    -0.089 HD
ENDBRANCH   9  10
ENDBRANCH   3   9
BRANCH   4  14
ATOM     14  C   UNL     1      33.775 -22.615 -18.712  0.00  0.00    +0.161 C 
BRANCH  14  15
ATOM     15  O   UNL     1      33.897 -23.802 -19.487  0.00  0.00    -0.377 OA
ATOM     16  H   UNL     1      33.156 -23.859 -20.109  0.00  0.00    +0.211 HD
ENDBRANCH  14  15
ENDBRANCH   4  14
TORSDOF 4
ENDMDL
MODEL 3
REMARK VINA RESULT:      -6.0      1.368      4.595
REMARK  Name = 11205997
REMARK  4 active torsions:
REMARK  status: ('A' for Active; 'I' for Inactive)
REMARK    1  A    between atoms: C_3  and  C_9
REMARK    2  A    between atoms: C_4  and  C_14
REMARK    3  A    between atoms: C_9  and  N_10
REMARK    4  A    between atoms: C_14  and  O_15
REMARK                            x       y       z     vdW  Elec       q    Type
REMARK                         _______ _______ _______ _____ _____    ______ ____
ROOT
ATOM      1  O   UNL     1      35.092 -16.411 -20.345  0.00  0.00    -0.290 OA
ATOM      2  N   UNL     1      35.559 -18.335 -23.323  0.00  0.00    -0.246 NA
ATOM      3  C   UNL     1      34.418 -15.914 -22.517  0.00  0.00    +0.064 C 
ATOM      4  C   UNL     1      34.371 -16.297 -23.853  0.00  0.00    +0.009 C 
ATOM      5  C   UNL     1      35.035 -16.740 -21.584  0.00  0.00    +0.188 C 
ATOM      6  C   UNL     1      35.586 -17.929 -22.035  0.00  0.00    +0.094 C 
ATOM      7  C   UNL     1      34.951 -17.506 -24.201  0.00  0.00    +0.093 C 
ATOM      8  C   UNL     1      36.270 -18.882 -21.103  0.00  0.00    +0.055 C 
ENDROOT
BRANCH   3   9
ATOM      9  C   UNL     1      33.794 -14.608 -22.121  0.00  0.00    -0.074 C 
BRANCH   9  10
ATOM     10  N   UNL     1      32.645 -14.769 -21.193  0.00  0.00    +0.381 N 
ATOM     11  H   UNL     1      32.601 -15.737 -20.871  0.00  0.00    -0.089 HD
ATOM     12  H   UNL     1      31.780 -14.532 -21.678  0.00  0.00    -0.089 HD
ATOM     13  H   UNL     1      32.766 -14.150 -20.391  0.00  0.00    -0.089 HD
ENDBRANCH   9  10
ENDBRANCH   3   9
BRANCH   4  14
ATOM     14  C   UNL     1      33.723 -15.455 -24.897  0.00  0.00    +0.161 C 
BRANCH  14  15
ATOM     15  O   UNL     1      33.917 -16.052 -26.174  0.00  0.00    -0.377 OA
ATOM     16  H   UNL     1      34.809 -15.845 -26.496  0.00  0.00    +0.211 HD
ENDBRANCH  14  15
ENDBRANCH   4  14
TORSDOF 4
ENDMDL
MODEL 4
REMARK VINA RESULT:      -6.0      2.214      3.067
REMARK  Name = 11205997
REMARK  4 active torsions:
REMARK  status: ('A' for Active; 'I' for Inactive)
REMARK    1  A    between atoms: C_3  and  C_9
REMARK    2  A    between atoms: C_4  and  C_14
REMARK    3  A    between atoms: C_9  and  N_10
REMARK    4  A    between atoms: C_14  and  O_15
REMARK                            x       y       z     vdW  Elec       q    Type
REMARK                         _______ _______ _______ _____ _____    ______ ____
ROOT
ATOM      1  O   UNL     1      32.764 -13.707 -23.978  0.00  0.00    -0.290 OA
ATOM      2  N   UNL     1      34.212 -16.407 -25.823  0.00  0.00    -0.246 NA
ATOM      3  C   UNL     1      34.020 -15.500 -23.186  0.00  0.00    +0.064 C 
ATOM      4  C   UNL     1      34.720 -16.667 -23.474  0.00  0.00    +0.009 C 
ATOM      5  C   UNL     1      33.415 -14.787 -24.215  0.00  0.00    +0.188 C 
ATOM      6  C   UNL     1      33.540 -15.278 -25.505  0.00  0.00    +0.094 C 
ATOM      7  C   UNL     1      34.786 -17.074 -24.797  0.00  0.00    +0.093 C 
ATOM      8  C   UNL     1      32.923 -14.578 -26.677  0.00  0.00    +0.055 C 
ENDROOT
BRANCH   3   9
ATOM      9  C   UNL     1      33.938 -15.044 -21.758  0.00  0.00    -0.074 C 
BRANCH   9  10
ATOM     10  N   UNL     1      32.554 -15.055 -21.221  0.00  0.00    +0.381 N 
ATOM     11  H   UNL     1      32.204 -16.013 -21.199  0.00  0.00    -0.089 HD
ATOM     12  H   UNL     1      31.952 -14.488 -21.820  0.00  0.00    -0.089 HD
ATOM     13  H   UNL     1      32.552 -14.670 -20.277  0.00  0.00    -0.089 HD
ENDBRANCH   9  10
ENDBRANCH   3   9
BRANCH   4  14
ATOM     14  C   UNL     1      35.388 -17.473 -22.414  0.00  0.00    +0.161 C 
BRANCH  14  15
ATOM     15  O   UNL     1      36.511 -18.148 -22.971  0.00  0.00    -0.377 OA
ATOM     16  H   UNL     1      36.307 -19.091 -23.065  0.00  0.00    +0.211 HD
ENDBRANCH  14  15
ENDBRANCH   4  14
TORSDOF 4
ENDMDL
MODEL 5
REMARK VINA RESULT:      -5.9      1.889      3.449
REMARK  Name = 11205997
REMARK  4 active torsions:
REMARK  status: ('A' for Active; 'I' for Inactive)
REMARK    1  A    between atoms: C_3  and  C_9
REMARK    2  A    between atoms: C_4  and  C_14
REMARK    3  A    between atoms: C_9  and  N_10
REMARK    4  A    between atoms: C_14  and  O_15
REMARK                            x       y       z     vdW  Elec       q    Type
REMARK                         _______ _______ _______ _____ _____    ______ ____
ROOT
ATOM      1  O   UNL     1      34.452 -16.958 -25.890  0.00  0.00    -0.290 OA
ATOM      2  N   UNL     1      34.760 -16.515 -22.354  0.00  0.00    -0.246 NA
ATOM      3  C   UNL     1      33.812 -15.134 -24.592  0.00  0.00    +0.064 C 
ATOM      4  C   UNL     1      33.732 -14.556 -23.330  0.00  0.00    +0.009 C 
ATOM      5  C   UNL     1      34.365 -16.402 -24.736  0.00  0.00    +0.188 C 
ATOM      6  C   UNL     1      34.820 -17.044 -23.596  0.00  0.00    +0.094 C 
ATOM      7  C   UNL     1      34.215 -15.282 -22.253  0.00  0.00    +0.093 C 
ATOM      8  C   UNL     1      35.431 -18.411 -23.654  0.00  0.00    +0.055 C 
ENDROOT
BRANCH   3   9
ATOM      9  C   UNL     1      33.293 -14.362 -25.770  0.00  0.00    -0.074 C 
BRANCH   9  10
ATOM     10  N   UNL     1      32.338 -15.139 -26.600  0.00  0.00    +0.381 N 
ATOM     11  H   UNL     1      32.799 -15.976 -26.956  0.00  0.00    -0.089 HD
ATOM     12  H   UNL     1      32.023 -14.566 -27.383  0.00  0.00    -0.089 HD
ATOM     13  H   UNL     1      31.535 -15.408 -26.032  0.00  0.00    -0.089 HD
ENDBRANCH   9  10
ENDBRANCH   3   9
BRANCH   4  14
ATOM     14  C   UNL     1      33.150 -13.202 -23.112  0.00  0.00    +0.161 C 
BRANCH  14  15
ATOM     15  O   UNL     1      31.872 -13.328 -22.500  0.00  0.00    -0.377 OA
ATOM     16  H   UNL     1      31.409 -12.477 -22.540  0.00  0.00    +0.211 HD
ENDBRANCH  14  15
ENDBRANCH   4  14
TORSDOF 4
ENDMDL
MODEL 6
REMARK VINA RESULT:      -5.8     12.130     12.953
REMARK  Name = 11205997
REMARK  4 active torsions:
REMARK  status: ('A' for Active; 'I' for Inactive)
REMARK    1  A    between atoms: C_3  and  C_9
REMARK    2  A    between atoms: C_4  and  C_14
REMARK    3  A    between atoms: C_9  and  N_10
REMARK    4  A    between atoms: C_14  and  O_15
REMARK                            x       y       z     vdW  Elec       q    Type
REMARK                         _______ _______ _______ _____ _____    ______ ____
ROOT
ATOM      1  O   UNL     1      35.191 -24.614 -15.796  0.00  0.00    -0.290 OA
ATOM      2  N   UNL     1      34.411 -24.105 -12.343  0.00  0.00    -0.246 NA
ATOM      3  C   UNL     1      36.649 -24.357 -13.999  0.00  0.00    +0.064 C 
ATOM      4  C   UNL     1      36.811 -24.158 -12.633  0.00  0.00    +0.009 C 
ATOM      5  C   UNL     1      35.369 -24.430 -14.539  0.00  0.00    +0.188 C 
ATOM      6  C   UNL     1      34.293 -24.299 -13.675  0.00  0.00    +0.094 C 
ATOM      7  C   UNL     1      35.670 -24.039 -11.855  0.00  0.00    +0.093 C 
ATOM      8  C   UNL     1      32.879 -24.364 -14.165  0.00  0.00    +0.055 C 
ENDROOT
BRANCH   3   9
ATOM      9  C   UNL     1      37.873 -24.489 -14.857  0.00  0.00    -0.074 C 
BRANCH   9  10
ATOM     10  N   UNL     1      38.006 -23.396 -15.854  0.00  0.00    +0.381 N 
ATOM     11  H   UNL     1      37.551 -22.555 -15.499  0.00  0.00    -0.089 HD
ATOM     12  H   UNL     1      37.563 -23.678 -16.729  0.00  0.00    -0.089 HD
ATOM     13  H   UNL     1      38.994 -23.205 -16.020  0.00  0.00    -0.089 HD
ENDBRANCH   9  10
ENDBRANCH   3   9
BRANCH   4  14
ATOM     14  C   UNL     1      38.155 -24.072 -11.997  0.00  0.00    +0.161 C 
BRANCH  14  15
ATOM     15  O   UNL     1      38.412 -22.726 -11.613  0.00  0.00    -0.377 OA
ATOM     16  H   UNL     1      38.172 -22.131 -12.340  0.00  0.00    +0.211 HD
ENDBRANCH  14  15
ENDBRANCH   4  14
TORSDOF 4
ENDMDL
MODEL 7
REMARK VINA RESULT:      -5.8     11.557     13.667
REMARK  Name = 11205997
REMARK  4 active torsions:
REMARK  status: ('A' for Active; 'I' for Inactive)
REMARK    1  A    between atoms: C_3  and  C_9
REMARK    2  A    between atoms: C_4  and  C_14
REMARK    3  A    between atoms: C_9  and  N_10
REMARK    4  A    between atoms: C_14  and  O_15
REMARK                            x       y       z     vdW  Elec       q    Type
REMARK                         _______ _______ _______ _____ _____    ______ ____
ROOT
ATOM      1  O   UNL     1      38.564 -23.606 -15.572  0.00  0.00    -0.290 OA
ATOM      2  N   UNL     1      38.621 -26.119 -13.027  0.00  0.00    -0.246 NA
ATOM      3  C   UNL     1      36.954 -24.077 -13.957  0.00  0.00    +0.064 C 
ATOM      4  C   UNL     1      36.563 -24.860 -12.877  0.00  0.00    +0.009 C 
ATOM      5  C   UNL     1      38.178 -24.314 -14.573  0.00  0.00    +0.188 C 
ATOM      6  C   UNL     1      38.967 -25.338 -14.074  0.00  0.00    +0.094 C 
ATOM      7  C   UNL     1      37.424 -25.859 -12.454  0.00  0.00    +0.093 C 
ATOM      8  C   UNL     1      40.301 -25.666 -14.673  0.00  0.00    +0.055 C 
ENDROOT
BRANCH   3   9
ATOM      9  C   UNL     1      36.033 -22.989 -14.428  0.00  0.00    -0.074 C 
BRANCH   9  10
ATOM     10  N   UNL     1      35.546 -23.198 -15.815  0.00  0.00    +0.381 N 
ATOM     11  H   UNL     1      36.240 -22.846 -16.476  0.00  0.00    -0.089 HD
ATOM     12  H   UNL     1      34.667 -22.698 -15.947  0.00  0.00    -0.089 HD
ATOM     13  H   UNL     1      35.398 -24.194 -15.977  0.00  0.00    -0.089 HD
ENDBRANCH   9  10
ENDBRANCH   3   9
BRANCH   4  14
ATOM     14  C   UNL     1      35.264 -24.653 -12.176  0.00  0.00    +0.161 C 
BRANCH  14  15
ATOM     15  O   UNL     1      35.374 -25.108 -10.832  0.00  0.00    -0.377 OA
ATOM     16  H   UNL     1      36.228 -24.830 -10.465  0.00  0.00    +0.211 HD
ENDBRANCH  14  15
ENDBRANCH   4  14
TORSDOF 4
ENDMDL
MODEL 8
REMARK VINA RESULT:      -5.8      9.248     10.776
REMARK  Name = 11205997
REMARK  4 active torsions:
REMARK  status: ('A' for Active; 'I' for Inactive)
REMARK    1  A    between atoms: C_3  and  C_9
REMARK    2  A    between atoms: C_4  and  C_14
REMARK    3  A    between atoms: C_9  and  N_10
REMARK    4  A    between atoms: C_14  and  O_15
REMARK                            x       y       z     vdW  Elec       q    Type
REMARK                         _______ _______ _______ _____ _____    ______ ____
ROOT
ATOM      1  O   UNL     1      35.437 -23.176 -16.878  0.00  0.00    -0.290 OA
ATOM      2  N   UNL     1      31.954 -22.787 -17.591  0.00  0.00    -0.246 NA
ATOM      3  C   UNL     1      33.614 -23.603 -15.495  0.00  0.00    +0.064 C 
ATOM      4  C   UNL     1      32.233 -23.608 -15.334  0.00  0.00    +0.009 C 
ATOM      5  C   UNL     1      34.166 -23.190 -16.703  0.00  0.00    +0.188 C 
ATOM      6  C   UNL     1      33.300 -22.795 -17.710  0.00  0.00    +0.094 C 
ATOM      7  C   UNL     1      31.454 -23.194 -16.402  0.00  0.00    +0.093 C 
ATOM      8  C   UNL     1      33.803 -22.335 -19.044  0.00  0.00    +0.055 C 
ENDROOT
BRANCH   3   9
ATOM      9  C   UNL     1      34.474 -24.049 -14.348  0.00  0.00    -0.074 C 
BRANCH   9  10
ATOM     10  N   UNL     1      35.177 -25.330 -14.611  0.00  0.00    +0.381 N 
ATOM     11  H   UNL     1      34.776 -25.774 -15.438  0.00  0.00    -0.089 HD
ATOM     12  H   UNL     1      35.068 -25.949 -13.807  0.00  0.00    -0.089 HD
ATOM     13  H   UNL     1      36.168 -25.149 -14.768  0.00  0.00    -0.089 HD
ENDBRANCH   9  10
ENDBRANCH   3   9
BRANCH   4  14
ATOM     14  C   UNL     1      31.584 -24.040 -14.064  0.00  0.00    +0.161 C 
BRANCH  14  15
ATOM     15  O   UNL     1      31.263 -25.424 -14.143  0.00  0.00    -0.377 OA
ATOM     16  H   UNL     1      31.933 -25.881 -14.676  0.00  0.00    +0.211 HD
ENDBRANCH  14  15
ENDBRANCH   4  14
TORSDOF 4
ENDMDL
MODEL 9
REMARK VINA RESULT:      -5.8      1.178      3.084
REMARK  Name = 11205997
REMARK  4 active torsions:
REMARK  status: ('A' for Active; 'I' for Inactive)
REMARK    1  A    between atoms: C_3  and  C_9
REMARK    2  A    between atoms: C_4  and  C_14
REMARK    3  A    between atoms: C_9  and  N_10
REMARK    4  A    between atoms: C_14  and  O_15
REMARK                            x       y       z     vdW  Elec       q    Type
REMARK                         _______ _______ _______ _____ _____    ______ ____
ROOT
ATOM      1  O   UNL     1      34.407 -16.797 -25.799  0.00  0.00    -0.290 OA
ATOM      2  N   UNL     1      34.896 -18.399 -22.639  0.00  0.00    -0.246 NA
ATOM      3  C   UNL     1      34.425 -15.845 -23.674  0.00  0.00    +0.064 C 
ATOM      4  C   UNL     1      34.559 -16.028 -22.302  0.00  0.00    +0.009 C 
ATOM      5  C   UNL     1      34.526 -16.938 -24.529  0.00  0.00    +0.188 C 
ATOM      6  C   UNL     1      34.760 -18.182 -23.965  0.00  0.00    +0.094 C 
ATOM      7  C   UNL     1      34.792 -17.313 -21.839  0.00  0.00    +0.093 C 
ATOM      8  C   UNL     1      34.884 -19.415 -24.807  0.00  0.00    +0.055 C 
ENDROOT
BRANCH   3   9
ATOM      9  C   UNL     1      34.174 -14.460 -24.194  0.00  0.00    -0.074 C 
BRANCH   9  10
ATOM     10  N   UNL     1      32.998 -14.381 -25.097  0.00  0.00    +0.381 N 
ATOM     11  H   UNL     1      32.697 -13.409 -25.179  0.00  0.00    -0.089 HD
ATOM     12  H   UNL     1      32.237 -14.941 -24.715  0.00  0.00    -0.089 HD
ATOM     13  H   UNL     1      33.253 -14.737 -26.018  0.00  0.00    -0.089 HD
ENDBRANCH   9  10
ENDBRANCH   3   9
BRANCH   4  14
ATOM     14  C   UNL     1      34.462 -14.897 -21.337  0.00  0.00    +0.161 C 
BRANCH  14  15
ATOM     15  O   UNL     1      34.869 -15.339 -20.047  0.00  0.00    -0.377 OA
ATOM     16  H   UNL     1      35.760 -15.718 -20.102  0.00  0.00    +0.211 HD
ENDBRANCH  14  15
ENDBRANCH   4  14
TORSDOF 4
ENDMDL
