MODEL 1
REMARK VINA RESULT:      -8.8      0.000      0.000
REMARK  Name = 16752
REMARK  7 active torsions:
REMARK  status: ('A' for Active; 'I' for Inactive)
REMARK    1  A    between atoms: C_7  and  O_23
REMARK    2  A    between atoms: C_7  and  C_28
REMARK    3  A    between atoms: C_11  and  O_25
REMARK    4  A    between atoms: C_28  and  C_29
REMARK    5  A    between atoms: C_29  and  O_30
REMARK    6  A    between atoms: O_30  and  C_32
REMARK    7  A    between atoms: C_32  and  C_34
REMARK                            x       y       z     vdW  Elec       q    Type
REMARK                         _______ _______ _______ _____ _____    ______ ____
ROOT
ATOM      1  F   UNL     1      35.437 -14.373 -23.992  0.00  0.00    -0.237 F 
ATOM      2  O   UNL     1      34.891 -10.018 -26.119  0.00  0.00    -0.287 OA
ATOM      3  C   UNL     1      34.509 -17.285 -22.261  0.00  0.00    +0.032 C 
ATOM      4  C   UNL     1      34.401 -17.002 -23.776  0.00  0.00    +0.005 C 
ATOM      5  C   UNL     1      33.543 -15.771 -24.108  0.00  0.00    +0.033 C 
ATOM      6  C   UNL     1      34.176 -14.507 -23.432  0.00  0.00    +0.164 C 
ATOM      7  C   UNL     1      35.365 -18.586 -22.311  0.00  0.00    +0.142 C 
ATOM      8  C   UNL     1      34.011 -18.353 -24.373  0.00  0.00    +0.003 C 
ATOM      9  C   UNL     1      35.180 -16.058 -21.611  0.00  0.00    +0.035 C 
ATOM     10  C   UNL     1      34.731 -19.399 -23.480  0.00  0.00    +0.032 C 
ATOM     11  C   UNL     1      34.448 -14.731 -21.913  0.00  0.00    +0.141 C 
ATOM     12  C   UNL     1      33.403 -13.182 -23.809  0.00  0.00    +0.064 C 
ATOM     13  C   UNL     1      33.435 -15.589 -25.634  0.00  0.00    +0.007 C 
ATOM     14  C   UNL     1      33.139 -17.576 -21.591  0.00  0.00    +0.003 C 
ATOM     15  C   UNL     1      32.690 -14.315 -26.013  0.00  0.00    +0.023 C 
ATOM     16  C   UNL     1      33.316 -13.121 -25.339  0.00  0.00    -0.035 C 
ATOM     17  C   UNL     1      35.710 -20.246 -24.288  0.00  0.00    +0.003 C 
ATOM     18  C   UNL     1      31.964 -13.110 -23.247  0.00  0.00    +0.011 C 
ATOM     19  C   UNL     1      34.134 -11.970 -23.251  0.00  0.00    -0.017 C 
ATOM     20  C   UNL     1      33.798 -12.107 -26.074  0.00  0.00    +0.034 C 
ATOM     21  C   UNL     1      34.617 -10.957 -23.978  0.00  0.00    +0.038 C 
ATOM     22  C   UNL     1      34.468 -10.950 -25.444  0.00  0.00    +0.195 C 
ENDROOT
BRANCH   7  23
ATOM     23  O   UNL     1      36.732 -18.276 -22.561  0.00  0.00    -0.380 OA
ATOM     24  H   UNL     1      37.205 -18.196 -21.718  0.00  0.00    +0.211 HD
ENDBRANCH   7  23
BRANCH  11  25
ATOM     25  O   UNL     1      33.254 -14.653 -21.150  0.00  0.00    -0.382 OA
ATOM     26  H   UNL     1      32.719 -15.446 -21.307  0.00  0.00    +0.210 HD
ENDBRANCH  11  25
BRANCH   7  28
ATOM     27  O   UNL     1      36.252 -19.142 -20.169  0.00  0.00    -0.290 OA
ATOM     28  C   UNL     1      35.383 -19.345 -21.016  0.00  0.00    +0.218 C 
BRANCH  28  29
ATOM     29  C   UNL     1      34.280 -20.363 -20.819  0.00  0.00    +0.275 C 
BRANCH  29  30
ATOM     30  O   UNL     1      34.767 -21.502 -20.141  0.00  0.00    -0.437 OA
BRANCH  30  32
ATOM     31  O   UNL     1      32.783 -22.104 -19.143  0.00  0.00    -0.245 OA
ATOM     32  C   UNL     1      33.997 -21.976 -19.118  0.00  0.00    +0.342 C 
BRANCH  32  34
ATOM     33  N   UNL     1      36.376 -22.976 -15.742  0.00  0.00    -0.242 NA
ATOM     34  C   UNL     1      34.829 -22.325 -17.939  0.00  0.00    +0.079 C 
ATOM     35  C   UNL     1      36.127 -21.873 -17.879  0.00  0.00    +0.027 C 
ATOM     36  C   UNL     1      34.278 -23.091 -16.938  0.00  0.00    +0.027 C 
ATOM     37  C   UNL     1      36.860 -22.226 -16.758  0.00  0.00    +0.099 C 
ATOM     38  C   UNL     1      35.095 -23.389 -15.859  0.00  0.00    +0.099 C 
ENDBRANCH  32  34
ENDBRANCH  30  32
ENDBRANCH  29  30
ENDBRANCH  28  29
ENDBRANCH   7  28
TORSDOF 7
ENDMDL
MODEL 2
REMARK VINA RESULT:      -7.4      5.868     12.583
REMARK  Name = 16752
REMARK  7 active torsions:
REMARK  status: ('A' for Active; 'I' for Inactive)
REMARK    1  A    between atoms: C_7  and  O_23
REMARK    2  A    between atoms: C_7  and  C_28
REMARK    3  A    between atoms: C_11  and  O_25
REMARK    4  A    between atoms: C_28  and  C_29
REMARK    5  A    between atoms: C_29  and  O_30
REMARK    6  A    between atoms: O_30  and  C_32
REMARK    7  A    between atoms: C_32  and  C_34
REMARK                            x       y       z     vdW  Elec       q    Type
REMARK                         _______ _______ _______ _____ _____    ______ ____
ROOT
ATOM      1  F   UNL     1      34.651 -12.366 -22.319  0.00  0.00    -0.237 F 
ATOM      2  O   UNL     1      35.290 -17.167 -21.746  0.00  0.00    -0.287 OA
ATOM      3  C   UNL     1      33.107  -9.396 -23.383  0.00  0.00    +0.032 C 
ATOM      4  C   UNL     1      32.807 -10.225 -22.115  0.00  0.00    +0.005 C 
ATOM      5  C   UNL     1      32.400 -11.676 -22.415  0.00  0.00    +0.033 C 
ATOM      6  C   UNL     1      33.566 -12.388 -23.182  0.00  0.00    +0.164 C 
ATOM      7  C   UNL     1      33.410  -8.020 -22.717  0.00  0.00    +0.142 C 
ATOM      8  C   UNL     1      31.845  -9.341 -21.321  0.00  0.00    +0.003 C 
ATOM      9  C   UNL     1      34.289 -10.073 -24.105  0.00  0.00    +0.035 C 
ATOM     10  C   UNL     1      32.305  -7.890 -21.624  0.00  0.00    +0.032 C 
ATOM     11  C   UNL     1      34.038 -11.566 -24.420  0.00  0.00    +0.141 C 
ATOM     12  C   UNL     1      33.261 -13.916 -23.441  0.00  0.00    +0.064 C 
ATOM     13  C   UNL     1      32.060 -12.418 -21.108  0.00  0.00    +0.007 C 
ATOM     14  C   UNL     1      31.888  -9.267 -24.336  0.00  0.00    +0.003 C 
ATOM     15  C   UNL     1      31.762 -13.895 -21.342  0.00  0.00    +0.023 C 
ATOM     16  C   UNL     1      32.897 -14.546 -22.091  0.00  0.00    -0.035 C 
ATOM     17  C   UNL     1      32.731  -7.160 -20.354  0.00  0.00    +0.003 C 
ATOM     18  C   UNL     1      32.088 -14.168 -24.416  0.00  0.00    +0.011 C 
ATOM     19  C   UNL     1      34.475 -14.597 -24.056  0.00  0.00    -0.017 C 
ATOM     20  C   UNL     1      33.554 -15.585 -21.551  0.00  0.00    +0.034 C 
ATOM     21  C   UNL     1      35.133 -15.631 -23.523  0.00  0.00    +0.038 C 
ATOM     22  C   UNL     1      34.706 -16.207 -22.235  0.00  0.00    +0.195 C 
ENDROOT
BRANCH   7  23
ATOM     23  O   UNL     1      34.717  -8.016 -22.152  0.00  0.00    -0.380 OA
ATOM     24  H   UNL     1      34.931  -7.123 -21.839  0.00  0.00    +0.211 HD
ENDBRANCH   7  23
BRANCH  11  25
ATOM     25  O   UNL     1      33.131 -11.684 -25.505  0.00  0.00    -0.382 OA
ATOM     26  H   UNL     1      32.576 -12.469 -25.378  0.00  0.00    +0.210 HD
ENDBRANCH  11  25
BRANCH   7  28
ATOM     27  O   UNL     1      34.318  -6.730 -24.503  0.00  0.00    -0.290 OA
ATOM     28  C   UNL     1      33.413  -6.871 -23.682  0.00  0.00    +0.218 C 
BRANCH  28  29
ATOM     29  C   UNL     1      32.249  -5.909 -23.585  0.00  0.00    +0.275 C 
BRANCH  29  30
ATOM     30  O   UNL     1      31.667  -5.699 -24.854  0.00  0.00    -0.437 OA
BRANCH  30  32
ATOM     31  O   UNL     1      30.398  -3.781 -24.775  0.00  0.00    -0.245 OA
ATOM     32  C   UNL     1      31.365  -4.408 -25.179  0.00  0.00    +0.342 C 
BRANCH  32  34
ATOM     33  N   UNL     1      34.252  -2.777 -27.836  0.00  0.00    -0.242 NA
ATOM     34  C   UNL     1      32.374  -3.839 -26.107  0.00  0.00    +0.079 C 
ATOM     35  C   UNL     1      33.044  -4.681 -26.964  0.00  0.00    +0.027 C 
ATOM     36  C   UNL     1      32.610  -2.484 -26.085  0.00  0.00    +0.027 C 
ATOM     37  C   UNL     1      33.974  -4.100 -27.810  0.00  0.00    +0.099 C 
ATOM     38  C   UNL     1      33.561  -2.002 -26.971  0.00  0.00    +0.099 C 
ENDBRANCH  32  34
ENDBRANCH  30  32
ENDBRANCH  29  30
ENDBRANCH  28  29
ENDBRANCH   7  28
TORSDOF 7
ENDMDL
MODEL 3
REMARK VINA RESULT:      -7.4      3.375      5.847
REMARK  Name = 16752
REMARK  7 active torsions:
REMARK  status: ('A' for Active; 'I' for Inactive)
REMARK    1  A    between atoms: C_7  and  O_23
REMARK    2  A    between atoms: C_7  and  C_28
REMARK    3  A    between atoms: C_11  and  O_25
REMARK    4  A    between atoms: C_28  and  C_29
REMARK    5  A    between atoms: C_29  and  O_30
REMARK    6  A    between atoms: O_30  and  C_32
REMARK    7  A    between atoms: C_32  and  C_34
REMARK                            x       y       z     vdW  Elec       q    Type
REMARK                         _______ _______ _______ _____ _____    ______ ____
ROOT
ATOM      1  F   UNL     1      31.350  -9.833 -23.235  0.00  0.00    -0.237 F 
ATOM      2  O   UNL     1      30.093  -5.125 -23.042  0.00  0.00    -0.287 OA
ATOM      3  C   UNL     1      33.416 -12.661 -22.963  0.00  0.00    +0.032 C 
ATOM      4  C   UNL     1      32.601 -11.965 -21.850  0.00  0.00    +0.005 C 
ATOM      5  C   UNL     1      32.970 -10.486 -21.655  0.00  0.00    +0.033 C 
ATOM      6  C   UNL     1      32.709  -9.711 -22.991  0.00  0.00    +0.164 C 
ATOM      7  C   UNL     1      32.836 -14.101 -22.834  0.00  0.00    +0.142 C 
ATOM      8  C   UNL     1      32.721 -12.917 -20.661  0.00  0.00    +0.003 C 
ATOM      9  C   UNL     1      33.113 -11.925 -24.283  0.00  0.00    +0.035 C 
ATOM     10  C   UNL     1      32.766 -14.333 -21.294  0.00  0.00    +0.032 C 
ATOM     11  C   UNL     1      33.387 -10.405 -24.212  0.00  0.00    +0.141 C 
ATOM     12  C   UNL     1      32.974  -8.161 -22.840  0.00  0.00    +0.064 C 
ATOM     13  C   UNL     1      32.161  -9.881 -20.493  0.00  0.00    +0.007 C 
ATOM     14  C   UNL     1      34.944 -12.677 -22.686  0.00  0.00    +0.003 C 
ATOM     15  C   UNL     1      32.407  -8.385 -20.334  0.00  0.00    +0.023 C 
ATOM     16  C   UNL     1      32.157  -7.671 -21.638  0.00  0.00    -0.035 C 
ATOM     17  C   UNL     1      31.600 -15.196 -20.820  0.00  0.00    +0.003 C 
ATOM     18  C   UNL     1      34.455  -7.797 -22.590  0.00  0.00    +0.011 C 
ATOM     19  C   UNL     1      32.569  -7.433 -24.114  0.00  0.00    -0.017 C 
ATOM     20  C   UNL     1      31.232  -6.701 -21.710  0.00  0.00    +0.034 C 
ATOM     21  C   UNL     1      31.650  -6.466 -24.191  0.00  0.00    +0.038 C 
ATOM     22  C   UNL     1      30.925  -6.023 -22.986  0.00  0.00    +0.195 C 
ENDROOT
BRANCH   7  23
ATOM     23  O   UNL     1      31.550 -14.178 -23.441  0.00  0.00    -0.380 OA
ATOM     24  H   UNL     1      31.411 -15.071 -23.793  0.00  0.00    +0.211 HD
ENDBRANCH   7  23
BRANCH  11  25
ATOM     25  O   UNL     1      34.785 -10.165 -24.240  0.00  0.00    -0.382 OA
ATOM     26  H   UNL     1      34.959  -9.315 -24.674  0.00  0.00    +0.210 HD
ENDBRANCH  11  25
BRANCH   7  28
ATOM     27  O   UNL     1      33.516 -15.346 -24.750  0.00  0.00    -0.290 OA
ATOM     28  C   UNL     1      33.649 -15.144 -23.544  0.00  0.00    +0.218 C 
BRANCH  28  29
ATOM     29  C   UNL     1      34.632 -15.922 -22.696  0.00  0.00    +0.275 C 
BRANCH  29  30
ATOM     30  O   UNL     1      34.131 -17.209 -22.404  0.00  0.00    -0.437 OA
BRANCH  30  32
ATOM     31  O   UNL     1      36.001 -18.309 -23.171  0.00  0.00    -0.245 OA
ATOM     32  C   UNL     1      35.033 -18.233 -22.430  0.00  0.00    +0.342 C 
BRANCH  32  34
ATOM     33  N   UNL     1      34.055 -21.212 -19.563  0.00  0.00    -0.242 NA
ATOM     34  C   UNL     1      34.692 -19.274 -21.428  0.00  0.00    +0.079 C 
ATOM     35  C   UNL     1      35.707 -19.993 -20.840  0.00  0.00    +0.027 C 
ATOM     36  C   UNL     1      33.370 -19.489 -21.115  0.00  0.00    +0.027 C 
ATOM     37  C   UNL     1      35.335 -20.953 -19.913  0.00  0.00    +0.099 C 
ATOM     38  C   UNL     1      33.104 -20.472 -20.174  0.00  0.00    +0.099 C 
ENDBRANCH  32  34
ENDBRANCH  30  32
ENDBRANCH  29  30
ENDBRANCH  28  29
ENDBRANCH   7  28
TORSDOF 7
ENDMDL
MODEL 4
REMARK VINA RESULT:      -7.0      3.890      9.992
REMARK  Name = 16752
REMARK  7 active torsions:
REMARK  status: ('A' for Active; 'I' for Inactive)
REMARK    1  A    between atoms: C_7  and  O_23
REMARK    2  A    between atoms: C_7  and  C_28
REMARK    3  A    between atoms: C_11  and  O_25
REMARK    4  A    between atoms: C_28  and  C_29
REMARK    5  A    between atoms: C_29  and  O_30
REMARK    6  A    between atoms: O_30  and  C_32
REMARK    7  A    between atoms: C_32  and  C_34
REMARK                            x       y       z     vdW  Elec       q    Type
REMARK                         _______ _______ _______ _____ _____    ______ ____
ROOT
ATOM      1  F   UNL     1      35.471 -16.631 -21.269  0.00  0.00    -0.237 F 
ATOM      2  O   UNL     1      36.869 -20.812 -19.182  0.00  0.00    -0.287 OA
ATOM      3  C   UNL     1      33.857 -14.528 -23.573  0.00  0.00    +0.032 C 
ATOM      4  C   UNL     1      33.274 -15.163 -22.291  0.00  0.00    +0.005 C 
ATOM      5  C   UNL     1      33.345 -16.698 -22.282  0.00  0.00    +0.033 C 
ATOM      6  C   UNL     1      34.843 -17.143 -22.394  0.00  0.00    +0.164 C 
ATOM      7  C   UNL     1      33.567 -13.029 -23.264  0.00  0.00    +0.142 C 
ATOM      8  C   UNL     1      31.911 -14.488 -22.138  0.00  0.00    +0.003 C 
ATOM      9  C   UNL     1      35.344 -14.928 -23.649  0.00  0.00    +0.035 C 
ATOM     10  C   UNL     1      32.124 -13.048 -22.674  0.00  0.00    +0.032 C 
ATOM     11  C   UNL     1      35.569 -16.456 -23.590  0.00  0.00    +0.141 C 
ATOM     12  C   UNL     1      35.006 -18.711 -22.293  0.00  0.00    +0.064 C 
ATOM     13  C   UNL     1      32.693 -17.257 -21.003  0.00  0.00    +0.007 C 
ATOM     14  C   UNL     1      33.111 -14.958 -24.866  0.00  0.00    +0.003 C 
ATOM     15  C   UNL     1      32.841 -18.770 -20.892  0.00  0.00    +0.023 C 
ATOM     16  C   UNL     1      34.291 -19.165 -21.015  0.00  0.00    -0.035 C 
ATOM     17  C   UNL     1      31.848 -12.003 -21.597  0.00  0.00    +0.003 C 
ATOM     18  C   UNL     1      34.393 -19.486 -23.482  0.00  0.00    +0.011 C 
ATOM     19  C   UNL     1      36.481 -19.085 -22.260  0.00  0.00    -0.017 C 
ATOM     20  C   UNL     1      34.894 -19.834 -20.019  0.00  0.00    +0.034 C 
ATOM     21  C   UNL     1      37.087 -19.751 -21.272  0.00  0.00    +0.038 C 
ATOM     22  C   UNL     1      36.328 -20.185 -20.085  0.00  0.00    +0.195 C 
ENDROOT
BRANCH   7  23
ATOM     23  O   UNL     1      34.514 -12.519 -22.331  0.00  0.00    -0.380 OA
ATOM     24  H   UNL     1      35.374 -12.415 -22.768  0.00  0.00    +0.211 HD
ENDBRANCH   7  23
BRANCH  11  25
ATOM     25  O   UNL     1      35.207 -17.044 -24.830  0.00  0.00    -0.382 OA
ATOM     26  H   UNL     1      35.718 -17.857 -24.964  0.00  0.00    +0.210 HD
ENDBRANCH  11  25
BRANCH   7  28
ATOM     27  O   UNL     1      33.232 -12.453 -25.553  0.00  0.00    -0.290 OA
ATOM     28  C   UNL     1      33.696 -12.131 -24.460  0.00  0.00    +0.218 C 
BRANCH  28  29
ATOM     29  C   UNL     1      34.422 -10.821 -24.241  0.00  0.00    +0.275 C 
BRANCH  29  30
ATOM     30  O   UNL     1      33.580  -9.884 -23.604  0.00  0.00    -0.437 OA
BRANCH  30  32
ATOM     31  O   UNL     1      35.030  -8.167 -24.103  0.00  0.00    -0.245 OA
ATOM     32  C   UNL     1      34.046  -8.603 -23.524  0.00  0.00    +0.342 C 
BRANCH  32  34
ATOM     33  N   UNL     1      31.623  -6.243 -20.953  0.00  0.00    -0.242 NA
ATOM     34  C   UNL     1      33.199  -7.779 -22.625  0.00  0.00    +0.079 C 
ATOM     35  C   UNL     1      32.995  -8.198 -21.331  0.00  0.00    +0.027 C 
ATOM     36  C   UNL     1      32.644  -6.619 -23.112  0.00  0.00    +0.027 C 
ATOM     37  C   UNL     1      32.197  -7.393 -20.534  0.00  0.00    +0.099 C 
ATOM     38  C   UNL     1      31.861  -5.885 -22.234  0.00  0.00    +0.099 C 
ENDBRANCH  32  34
ENDBRANCH  30  32
ENDBRANCH  29  30
ENDBRANCH  28  29
ENDBRANCH   7  28
TORSDOF 7
ENDMDL
MODEL 5
REMARK VINA RESULT:      -6.9      4.922      8.411
REMARK  Name = 16752
REMARK  7 active torsions:
REMARK  status: ('A' for Active; 'I' for Inactive)
REMARK    1  A    between atoms: C_7  and  O_23
REMARK    2  A    between atoms: C_7  and  C_28
REMARK    3  A    between atoms: C_11  and  O_25
REMARK    4  A    between atoms: C_28  and  C_29
REMARK    5  A    between atoms: C_29  and  O_30
REMARK    6  A    between atoms: O_30  and  C_32
REMARK    7  A    between atoms: C_32  and  C_34
REMARK                            x       y       z     vdW  Elec       q    Type
REMARK                         _______ _______ _______ _____ _____    ______ ____
ROOT
ATOM      1  F   UNL     1      30.464  -7.330 -22.982  0.00  0.00    -0.237 F 
ATOM      2  O   UNL     1      29.890  -2.729 -24.495  0.00  0.00    -0.287 OA
ATOM      3  C   UNL     1      32.163 -10.274 -22.097  0.00  0.00    +0.032 C 
ATOM      4  C   UNL     1      31.875  -9.039 -21.216  0.00  0.00    +0.005 C 
ATOM      5  C   UNL     1      32.453  -7.734 -21.785  0.00  0.00    +0.033 C 
ATOM      6  C   UNL     1      31.826  -7.467 -23.196  0.00  0.00    +0.164 C 
ATOM      7  C   UNL     1      31.508 -11.374 -21.209  0.00  0.00    +0.142 C 
ATOM      8  C   UNL     1      32.299  -9.483 -19.817  0.00  0.00    +0.003 C 
ATOM      9  C   UNL     1      31.499 -10.027 -23.467  0.00  0.00    +0.035 C 
ATOM     10  C   UNL     1      31.959 -10.996 -19.765  0.00  0.00    +0.032 C 
ATOM     11  C   UNL     1      31.949  -8.706 -24.134  0.00  0.00    +0.141 C 
ATOM     12  C   UNL     1      32.299  -6.088 -23.805  0.00  0.00    +0.064 C 
ATOM     13  C   UNL     1      32.177  -6.562 -20.824  0.00  0.00    +0.007 C 
ATOM     14  C   UNL     1      33.679 -10.565 -22.272  0.00  0.00    +0.003 C 
ATOM     15  C   UNL     1      32.629  -5.224 -21.398  0.00  0.00    +0.023 C 
ATOM     16  C   UNL     1      32.018  -5.004 -22.758  0.00  0.00    -0.035 C 
ATOM     17  C   UNL     1      30.946 -11.305 -18.667  0.00  0.00    +0.003 C 
ATOM     18  C   UNL     1      33.805  -6.036 -24.152  0.00  0.00    +0.011 C 
ATOM     19  C   UNL     1      31.557  -5.805 -25.103  0.00  0.00    -0.017 C 
ATOM     20  C   UNL     1      31.242  -3.932 -22.983  0.00  0.00    +0.034 C 
ATOM     21  C   UNL     1      30.783  -4.740 -25.334  0.00  0.00    +0.038 C 
ATOM     22  C   UNL     1      30.583  -3.719 -24.289  0.00  0.00    +0.195 C 
ENDROOT
BRANCH   7  23
ATOM     23  O   UNL     1      30.091 -11.348 -21.346  0.00  0.00    -0.380 OA
ATOM     24  H   UNL     1      29.686 -11.191 -20.479  0.00  0.00    +0.211 HD
ENDBRANCH   7  23
BRANCH  11  25
ATOM     25  O   UNL     1      33.265  -8.848 -24.645  0.00  0.00    -0.382 OA
ATOM     26  H   UNL     1      33.229  -9.257 -25.523  0.00  0.00    +0.210 HD
ENDBRANCH  11  25
BRANCH   7  28
ATOM     27  O   UNL     1      31.733 -13.187 -22.741  0.00  0.00    -0.290 OA
ATOM     28  C   UNL     1      31.898 -12.771 -21.594  0.00  0.00    +0.218 C 
BRANCH  28  29
ATOM     29  C   UNL     1      32.498 -13.627 -20.500  0.00  0.00    +0.275 C 
BRANCH  29  30
ATOM     30  O   UNL     1      32.798 -14.919 -20.984  0.00  0.00    -0.437 OA
BRANCH  30  32
ATOM     31  O   UNL     1      34.963 -14.942 -20.202  0.00  0.00    -0.245 OA
ATOM     32  C   UNL     1      34.119 -15.261 -21.026  0.00  0.00    +0.342 C 
BRANCH  32  34
ATOM     33  N   UNL     1      34.988 -17.623 -24.449  0.00  0.00    -0.242 NA
ATOM     34  C   UNL     1      34.422 -16.086 -22.222  0.00  0.00    +0.079 C 
ATOM     35  C   UNL     1      34.226 -15.547 -23.473  0.00  0.00    +0.027 C 
ATOM     36  C   UNL     1      34.892 -17.367 -22.047  0.00  0.00    +0.027 C 
ATOM     37  C   UNL     1      34.524 -16.357 -24.555  0.00  0.00    +0.099 C 
ATOM     38  C   UNL     1      35.160 -18.096 -23.195  0.00  0.00    +0.099 C 
ENDBRANCH  32  34
ENDBRANCH  30  32
ENDBRANCH  29  30
ENDBRANCH  28  29
ENDBRANCH   7  28
TORSDOF 7
ENDMDL
MODEL 6
REMARK VINA RESULT:      -6.3      6.204      9.382
REMARK  Name = 16752
REMARK  7 active torsions:
REMARK  status: ('A' for Active; 'I' for Inactive)
REMARK    1  A    between atoms: C_7  and  O_23
REMARK    2  A    between atoms: C_7  and  C_28
REMARK    3  A    between atoms: C_11  and  O_25
REMARK    4  A    between atoms: C_28  and  C_29
REMARK    5  A    between atoms: C_29  and  O_30
REMARK    6  A    between atoms: O_30  and  C_32
REMARK    7  A    between atoms: C_32  and  C_34
REMARK                            x       y       z     vdW  Elec       q    Type
REMARK                         _______ _______ _______ _____ _____    ______ ____
ROOT
ATOM      1  F   UNL     1      30.485  -7.467 -22.921  0.00  0.00    -0.237 F 
ATOM      2  O   UNL     1      29.957  -2.980 -24.757  0.00  0.00    -0.287 OA
ATOM      3  C   UNL     1      32.158 -10.339 -21.784  0.00  0.00    +0.032 C 
ATOM      4  C   UNL     1      31.838  -9.048 -20.998  0.00  0.00    +0.005 C 
ATOM      5  C   UNL     1      32.433  -7.782 -21.632  0.00  0.00    +0.033 C 
ATOM      6  C   UNL     1      31.855  -7.613 -23.079  0.00  0.00    +0.164 C 
ATOM      7  C   UNL     1      31.475 -11.379 -20.847  0.00  0.00    +0.142 C 
ATOM      8  C   UNL     1      32.215  -9.396 -19.558  0.00  0.00    +0.003 C 
ATOM      9  C   UNL     1      31.541 -10.186 -23.189  0.00  0.00    +0.035 C 
ATOM     10  C   UNL     1      31.875 -10.904 -19.417  0.00  0.00    +0.032 C 
ATOM     11  C   UNL     1      32.012  -8.911 -23.927  0.00  0.00    +0.141 C 
ATOM     12  C   UNL     1      32.346  -6.276 -23.762  0.00  0.00    +0.064 C 
ATOM     13  C   UNL     1      32.122  -6.549 -20.762  0.00  0.00    +0.007 C 
ATOM     14  C   UNL     1      33.679 -10.635 -21.886  0.00  0.00    +0.003 C 
ATOM     15  C   UNL     1      32.591  -5.251 -21.408  0.00  0.00    +0.023 C 
ATOM     16  C   UNL     1      32.027  -5.125 -22.800  0.00  0.00    -0.035 C 
ATOM     17  C   UNL     1      30.826 -11.143 -18.335  0.00  0.00    +0.003 C 
ATOM     18  C   UNL     1      33.863  -6.241 -24.060  0.00  0.00    +0.011 C 
ATOM     19  C   UNL     1      31.648  -6.083 -25.101  0.00  0.00    -0.017 C 
ATOM     20  C   UNL     1      31.258  -4.073 -23.123  0.00  0.00    +0.034 C 
ATOM     21  C   UNL     1      30.881  -5.038 -25.428  0.00  0.00    +0.038 C 
ATOM     22  C   UNL     1      30.644  -3.951 -24.462  0.00  0.00    +0.195 C 
ENDROOT
BRANCH   7  23
ATOM     23  O   UNL     1      30.063 -11.368 -21.033  0.00  0.00    -0.380 OA
ATOM     24  H   UNL     1      29.646 -11.946 -20.376  0.00  0.00    +0.211 HD
ENDBRANCH   7  23
BRANCH  11  25
ATOM     25  O   UNL     1      33.345  -9.082 -24.382  0.00  0.00    -0.382 OA
ATOM     26  H   UNL     1      33.480 -10.004 -24.650  0.00  0.00    +0.210 HD
ENDBRANCH  11  25
BRANCH   7  28
ATOM     27  O   UNL     1      32.266 -13.539 -20.222  0.00  0.00    -0.290 OA
ATOM     28  C   UNL     1      31.880 -12.797 -21.124  0.00  0.00    +0.218 C 
BRANCH  28  29
ATOM     29  C   UNL     1      31.784 -13.254 -22.564  0.00  0.00    +0.275 C 
BRANCH  29  30
ATOM     30  O   UNL     1      32.516 -14.445 -22.760  0.00  0.00    -0.437 OA
BRANCH  30  32
ATOM     31  O   UNL     1      34.813 -14.535 -22.874  0.00  0.00    -0.245 OA
ATOM     32  C   UNL     1      33.724 -14.320 -23.384  0.00  0.00    +0.342 C 
BRANCH  32  34
ATOM     33  N   UNL     1      33.248 -13.058 -27.413  0.00  0.00    -0.242 NA
ATOM     34  C   UNL     1      33.558 -13.878 -24.792  0.00  0.00    +0.079 C 
ATOM     35  C   UNL     1      33.814 -12.566 -25.115  0.00  0.00    +0.027 C 
ATOM     36  C   UNL     1      33.152 -14.795 -25.734  0.00  0.00    +0.027 C 
ATOM     37  C   UNL     1      33.644 -12.205 -26.441  0.00  0.00    +0.099 C 
ATOM     38  C   UNL     1      33.012 -14.333 -27.033  0.00  0.00    +0.099 C 
ENDBRANCH  32  34
ENDBRANCH  30  32
ENDBRANCH  29  30
ENDBRANCH  28  29
ENDBRANCH   7  28
TORSDOF 7
ENDMDL
MODEL 7
REMARK VINA RESULT:      -6.2      5.159      9.218
REMARK  Name = 16752
REMARK  7 active torsions:
REMARK  status: ('A' for Active; 'I' for Inactive)
REMARK    1  A    between atoms: C_7  and  O_23
REMARK    2  A    between atoms: C_7  and  C_28
REMARK    3  A    between atoms: C_11  and  O_25
REMARK    4  A    between atoms: C_28  and  C_29
REMARK    5  A    between atoms: C_29  and  O_30
REMARK    6  A    between atoms: O_30  and  C_32
REMARK    7  A    between atoms: C_32  and  C_34
REMARK                            x       y       z     vdW  Elec       q    Type
REMARK                         _______ _______ _______ _____ _____    ______ ____
ROOT
ATOM      1  F   UNL     1      34.348 -20.892 -17.647  0.00  0.00    -0.237 F 
ATOM      2  O   UNL     1      34.147 -18.253 -21.744  0.00  0.00    -0.287 OA
ATOM      3  C   UNL     1      34.861 -23.713 -15.618  0.00  0.00    +0.032 C 
ATOM      4  C   UNL     1      35.909 -22.692 -16.114  0.00  0.00    +0.005 C 
ATOM      5  C   UNL     1      35.983 -22.588 -17.646  0.00  0.00    +0.033 C 
ATOM      6  C   UNL     1      34.587 -22.141 -18.198  0.00  0.00    +0.164 C 
ATOM      7  C   UNL     1      35.105 -23.596 -14.084  0.00  0.00    +0.142 C 
ATOM      8  C   UNL     1      37.173 -23.063 -15.340  0.00  0.00    +0.003 C 
ATOM      9  C   UNL     1      33.483 -23.238 -16.122  0.00  0.00    +0.035 C 
ATOM     10  C   UNL     1      36.658 -23.555 -13.961  0.00  0.00    +0.032 C 
ATOM     11  C   UNL     1      33.430 -23.033 -17.653  0.00  0.00    +0.141 C 
ATOM     12  C   UNL     1      34.611 -21.916 -19.761  0.00  0.00    +0.064 C 
ATOM     13  C   UNL     1      37.088 -21.598 -18.062  0.00  0.00    +0.007 C 
ATOM     14  C   UNL     1      35.143 -25.164 -16.092  0.00  0.00    +0.003 C 
ATOM     15  C   UNL     1      37.124 -21.372 -19.569  0.00  0.00    +0.023 C 
ATOM     16  C   UNL     1      35.765 -20.955 -20.069  0.00  0.00    -0.035 C 
ATOM     17  C   UNL     1      37.198 -22.695 -12.822  0.00  0.00    +0.003 C 
ATOM     18  C   UNL     1      34.836 -23.208 -20.580  0.00  0.00    +0.011 C 
ATOM     19  C   UNL     1      33.280 -21.346 -20.231  0.00  0.00    -0.017 C 
ATOM     20  C   UNL     1      35.610 -19.780 -20.700  0.00  0.00    +0.034 C 
ATOM     21  C   UNL     1      33.119 -20.178 -20.860  0.00  0.00    +0.038 C 
ATOM     22  C   UNL     1      34.280 -19.318 -21.151  0.00  0.00    +0.195 C 
ENDROOT
BRANCH   7  23
ATOM     23  O   UNL     1      34.501 -22.413 -13.570  0.00  0.00    -0.380 OA
ATOM     24  H   UNL     1      34.364 -21.781 -14.293  0.00  0.00    +0.211 HD
ENDBRANCH   7  23
BRANCH  11  25
ATOM     25  O   UNL     1      33.387 -24.292 -18.307  0.00  0.00    -0.382 OA
ATOM     26  H   UNL     1      34.256 -24.487 -18.689  0.00  0.00    +0.210 HD
ENDBRANCH  11  25
BRANCH   7  28
ATOM     27  O   UNL     1      35.142 -25.348 -12.467  0.00  0.00    -0.290 OA
ATOM     28  C   UNL     1      34.487 -24.709 -13.289  0.00  0.00    +0.218 C 
BRANCH  28  29
ATOM     29  C   UNL     1      33.024 -24.994 -13.557  0.00  0.00    +0.275 C 
BRANCH  29  30
ATOM     30  O   UNL     1      32.232 -23.865 -13.255  0.00  0.00    -0.437 OA
BRANCH  30  32
ATOM     31  O   UNL     1      30.278 -24.401 -12.163  0.00  0.00    -0.245 OA
ATOM     32  C   UNL     1      30.885 -24.072 -13.171  0.00  0.00    +0.342 C 
BRANCH  32  34
ATOM     33  N   UNL     1      28.997 -23.430 -16.922  0.00  0.00    -0.242 NA
ATOM     34  C   UNL     1      30.225 -23.849 -14.482  0.00  0.00    +0.079 C 
ATOM     35  C   UNL     1      29.558 -24.892 -15.080  0.00  0.00    +0.027 C 
ATOM     36  C   UNL     1      30.300 -22.603 -15.061  0.00  0.00    +0.027 C 
ATOM     37  C   UNL     1      28.959 -24.631 -16.302  0.00  0.00    +0.099 C 
ATOM     38  C   UNL     1      29.667 -22.446 -16.284  0.00  0.00    +0.099 C 
ENDBRANCH  32  34
ENDBRANCH  30  32
ENDBRANCH  29  30
ENDBRANCH  28  29
ENDBRANCH   7  28
TORSDOF 7
ENDMDL
MODEL 8
REMARK VINA RESULT:      -5.8      6.057     12.740
REMARK  Name = 16752
REMARK  7 active torsions:
REMARK  status: ('A' for Active; 'I' for Inactive)
REMARK    1  A    between atoms: C_7  and  O_23
REMARK    2  A    between atoms: C_7  and  C_28
REMARK    3  A    between atoms: C_11  and  O_25
REMARK    4  A    between atoms: C_28  and  C_29
REMARK    5  A    between atoms: C_29  and  O_30
REMARK    6  A    between atoms: O_30  and  C_32
REMARK    7  A    between atoms: C_32  and  C_34
REMARK                            x       y       z     vdW  Elec       q    Type
REMARK                         _______ _______ _______ _____ _____    ______ ____
ROOT
ATOM      1  F   UNL     1      34.598 -12.170 -22.399  0.00  0.00    -0.237 F 
ATOM      2  O   UNL     1      34.874 -16.908 -21.273  0.00  0.00    -0.287 OA
ATOM      3  C   UNL     1      33.346  -9.253 -23.902  0.00  0.00    +0.032 C 
ATOM      4  C   UNL     1      32.886  -9.920 -22.587  0.00  0.00    +0.005 C 
ATOM      5  C   UNL     1      32.413 -11.371 -22.769  0.00  0.00    +0.033 C 
ATOM      6  C   UNL     1      33.591 -12.225 -23.350  0.00  0.00    +0.164 C 
ATOM      7  C   UNL     1      33.680  -7.831 -23.358  0.00  0.00    +0.142 C 
ATOM      8  C   UNL     1      31.921  -8.902 -21.980  0.00  0.00    +0.003 C 
ATOM      9  C   UNL     1      34.538 -10.069 -24.439  0.00  0.00    +0.035 C 
ATOM     10  C   UNL     1      32.498  -7.521 -22.390  0.00  0.00    +0.032 C 
ATOM     11  C   UNL     1      34.219 -11.571 -24.618  0.00  0.00    +0.141 C 
ATOM     12  C   UNL     1      33.211 -13.753 -23.474  0.00  0.00    +0.064 C 
ATOM     13  C   UNL     1      31.916 -11.945 -21.429  0.00  0.00    +0.007 C 
ATOM     14  C   UNL     1      32.222  -9.162 -24.970  0.00  0.00    +0.003 C 
ATOM     15  C   UNL     1      31.545 -13.420 -21.534  0.00  0.00    +0.023 C 
ATOM     16  C   UNL     1      32.694 -14.211 -22.105  0.00  0.00    -0.035 C 
ATOM     17  C   UNL     1      32.862  -6.682 -21.169  0.00  0.00    +0.003 C 
ATOM     18  C   UNL     1      32.111 -14.045 -24.521  0.00  0.00    +0.011 C 
ATOM     19  C   UNL     1      34.426 -14.564 -23.902  0.00  0.00    -0.017 C 
ATOM     20  C   UNL     1      33.234 -15.219 -21.402  0.00  0.00    +0.034 C 
ATOM     21  C   UNL     1      34.968 -15.569 -23.207  0.00  0.00    +0.038 C 
ATOM     22  C   UNL     1      34.397 -15.976 -21.910  0.00  0.00    +0.195 C 
ENDROOT
BRANCH   7  23
ATOM     23  O   UNL     1      34.932  -7.838 -22.680  0.00  0.00    -0.380 OA
ATOM     24  H   UNL     1      34.795  -7.623 -21.744  0.00  0.00    +0.211 HD
ENDBRANCH   7  23
BRANCH  11  25
ATOM     25  O   UNL     1      33.400 -11.757 -25.762  0.00  0.00    -0.382 OA
ATOM     26  H   UNL     1      33.422 -10.957 -26.309  0.00  0.00    +0.210 HD
ENDBRANCH  11  25
BRANCH   7  28
ATOM     27  O   UNL     1      34.821  -6.793 -25.175  0.00  0.00    -0.290 OA
ATOM     28  C   UNL     1      33.840  -6.797 -24.433  0.00  0.00    +0.218 C 
BRANCH  28  29
ATOM     29  C   UNL     1      32.732  -5.771 -24.548  0.00  0.00    +0.275 C 
BRANCH  29  30
ATOM     30  O   UNL     1      33.144  -4.679 -25.342  0.00  0.00    -0.437 OA
BRANCH  30  32
ATOM     31  O   UNL     1      31.985  -4.025 -27.220  0.00  0.00    -0.245 OA
ATOM     32  C   UNL     1      32.161  -4.009 -26.011  0.00  0.00    +0.342 C 
BRANCH  32  34
ATOM     33  N   UNL     1      29.717  -1.792 -23.333  0.00  0.00    -0.242 NA
ATOM     34  C   UNL     1      31.307  -3.234 -25.075  0.00  0.00    +0.079 C 
ATOM     35  C   UNL     1      31.721  -3.072 -23.773  0.00  0.00    +0.027 C 
ATOM     36  C   UNL     1      30.127  -2.700 -25.536  0.00  0.00    +0.027 C 
ATOM     37  C   UNL     1      30.888  -2.342 -22.940  0.00  0.00    +0.099 C 
ATOM     38  C   UNL     1      29.366  -1.986 -24.624  0.00  0.00    +0.099 C 
ENDBRANCH  32  34
ENDBRANCH  30  32
ENDBRANCH  29  30
ENDBRANCH  28  29
ENDBRANCH   7  28
TORSDOF 7
ENDMDL
