MODEL 1
REMARK VINA RESULT:      -9.5      0.000      0.000
REMARK  Name = 54676228
REMARK  2 active torsions:
REMARK  status: ('A' for Active; 'I' for Inactive)
REMARK    1  A    between atoms: C_7  and  C_16
REMARK    2  A    between atoms: C_8  and  O_24
REMARK                            x       y       z     vdW  Elec       q    Type
REMARK                         _______ _______ _______ _____ _____    ______ ____
ROOT
ATOM      1  S   UNL     1      36.934 -25.372 -15.122  0.00  0.00    +0.077 S 
ATOM      2  O   UNL     1      36.050 -26.436 -15.556  0.00  0.00    -0.150 OA
ATOM      3  O   UNL     1      38.375 -25.531 -15.160  0.00  0.00    -0.150 OA
ATOM      4  N   UNL     1      36.501 -23.893 -15.901  0.00  0.00    -0.181 N 
ATOM      5  C   UNL     1      36.473 -24.996 -13.468  0.00  0.00    +0.128 C 
ATOM      6  C   UNL     1      35.364 -24.163 -13.280  0.00  0.00    +0.054 C 
ATOM      7  C   UNL     1      35.131 -23.505 -15.670  0.00  0.00    +0.156 C 
ATOM      8  C   UNL     1      34.602 -23.632 -14.437  0.00  0.00    +0.154 C 
ATOM      9  C   UNL     1      37.217 -25.510 -12.407  0.00  0.00    +0.020 C 
ATOM     10  C   UNL     1      37.488 -22.777 -15.817  0.00  0.00    +0.139 C 
ATOM     11  C   UNL     1      35.001 -23.863 -11.960  0.00  0.00    +0.004 C 
ATOM     12  C   UNL     1      36.839 -25.194 -11.106  0.00  0.00    +0.001 C 
ATOM     13  C   UNL     1      35.734 -24.374 -10.882  0.00  0.00    +0.000 C 
ENDROOT
BRANCH   7  16
ATOM     14  O   UNL     1      33.244 -23.138 -16.988  0.00  0.00    -0.268 OA
ATOM     15  N   UNL     1      35.302 -22.191 -17.629  0.00  0.00    -0.265 N 
ATOM     16  C   UNL     1      34.444 -22.930 -16.830  0.00  0.00    +0.269 C 
ATOM     17  H   UNL     1      36.240 -22.141 -17.333  0.00  0.00    +0.157 HD
ATOM     18  N   UNL     1      35.970 -20.830 -19.463  0.00  0.00    -0.229 NA
ATOM     19  C   UNL     1      34.985 -21.498 -18.823  0.00  0.00    +0.134 C 
ATOM     20  C   UNL     1      33.672 -21.552 -19.263  0.00  0.00    +0.034 C 
ATOM     21  C   UNL     1      33.350 -20.876 -20.435  0.00  0.00    +0.004 C 
ATOM     22  C   UNL     1      35.621 -20.185 -20.599  0.00  0.00    +0.100 C 
ATOM     23  C   UNL     1      34.338 -20.176 -21.121  0.00  0.00    +0.021 C 
ENDBRANCH   7  16
BRANCH   8  24
ATOM     24  O   UNL     1      33.307 -23.268 -14.120  0.00  0.00    -0.504 OA
ATOM     25  H   UNL     1      32.935 -22.490 -14.488  0.00  0.00    +0.292 HD
ENDBRANCH   8  24
TORSDOF 2
ENDMDL
MODEL 2
REMARK VINA RESULT:      -9.1      3.382      4.615
REMARK  Name = 54676228
REMARK  2 active torsions:
REMARK  status: ('A' for Active; 'I' for Inactive)
REMARK    1  A    between atoms: C_7  and  C_16
REMARK    2  A    between atoms: C_8  and  O_24
REMARK                            x       y       z     vdW  Elec       q    Type
REMARK                         _______ _______ _______ _____ _____    ______ ____
ROOT
ATOM      1  S   UNL     1      37.388 -23.154 -12.954  0.00  0.00    +0.077 S 
ATOM      2  O   UNL     1      37.228 -22.217 -14.048  0.00  0.00    -0.150 OA
ATOM      3  O   UNL     1      38.074 -22.774 -11.734  0.00  0.00    -0.150 OA
ATOM      4  N   UNL     1      35.862 -23.859 -12.556  0.00  0.00    -0.181 N 
ATOM      5  C   UNL     1      38.210 -24.555 -13.624  0.00  0.00    +0.128 C 
ATOM      6  C   UNL     1      37.432 -25.488 -14.321  0.00  0.00    +0.054 C 
ATOM      7  C   UNL     1      35.231 -24.523 -13.670  0.00  0.00    +0.156 C 
ATOM      8  C   UNL     1      35.972 -25.289 -14.495  0.00  0.00    +0.154 C 
ATOM      9  C   UNL     1      39.581 -24.711 -13.435  0.00  0.00    +0.020 C 
ATOM     10  C   UNL     1      35.782 -24.598 -11.263  0.00  0.00    +0.139 C 
ATOM     11  C   UNL     1      38.091 -26.606 -14.852  0.00  0.00    +0.004 C 
ATOM     12  C   UNL     1      40.211 -25.831 -13.968  0.00  0.00    +0.001 C 
ATOM     13  C   UNL     1      39.469 -26.777 -14.675  0.00  0.00    +0.000 C 
ENDROOT
BRANCH   7  16
ATOM     14  O   UNL     1      33.066 -24.689 -12.823  0.00  0.00    -0.268 OA
ATOM     15  N   UNL     1      33.400 -23.773 -14.966  0.00  0.00    -0.265 N 
ATOM     16  C   UNL     1      33.779 -24.342 -13.760  0.00  0.00    +0.269 C 
ATOM     17  H   UNL     1      34.127 -23.564 -15.597  0.00  0.00    +0.157 HD
ATOM     18  N   UNL     1      31.923 -22.902 -16.616  0.00  0.00    -0.229 NA
ATOM     19  C   UNL     1      32.088 -23.457 -15.394  0.00  0.00    +0.134 C 
ATOM     20  C   UNL     1      31.046 -23.742 -14.525  0.00  0.00    +0.034 C 
ATOM     21  C   UNL     1      29.754 -23.436 -14.937  0.00  0.00    +0.004 C 
ATOM     22  C   UNL     1      30.653 -22.618 -16.982  0.00  0.00    +0.100 C 
ATOM     23  C   UNL     1      29.545 -22.863 -16.188  0.00  0.00    +0.021 C 
ENDBRANCH   7  16
BRANCH   8  24
ATOM     24  O   UNL     1      35.450 -25.977 -15.574  0.00  0.00    -0.504 OA
ATOM     25  H   UNL     1      36.001 -26.199 -16.299  0.00  0.00    +0.292 HD
ENDBRANCH   8  24
TORSDOF 2
ENDMDL
MODEL 3
REMARK VINA RESULT:      -8.7      3.690      6.861
REMARK  Name = 54676228
REMARK  2 active torsions:
REMARK  status: ('A' for Active; 'I' for Inactive)
REMARK    1  A    between atoms: C_7  and  C_16
REMARK    2  A    between atoms: C_8  and  O_24
REMARK                            x       y       z     vdW  Elec       q    Type
REMARK                         _______ _______ _______ _____ _____    ______ ____
ROOT
ATOM      1  S   UNL     1      30.891 -24.712 -13.836  0.00  0.00    +0.077 S 
ATOM      2  O   UNL     1      31.055 -26.040 -14.395  0.00  0.00    -0.150 OA
ATOM      3  O   UNL     1      30.282 -24.517 -12.534  0.00  0.00    -0.150 OA
ATOM      4  N   UNL     1      32.390 -23.858 -13.899  0.00  0.00    -0.181 N 
ATOM      5  C   UNL     1      29.962 -23.794 -15.012  0.00  0.00    +0.128 C 
ATOM      6  C   UNL     1      30.655 -23.257 -16.104  0.00  0.00    +0.054 C 
ATOM      7  C   UNL     1      32.933 -23.755 -15.231  0.00  0.00    +0.156 C 
ATOM      8  C   UNL     1      32.114 -23.470 -16.264  0.00  0.00    +0.154 C 
ATOM      9  C   UNL     1      28.594 -23.611 -14.825  0.00  0.00    +0.020 C 
ATOM     10  C   UNL     1      32.486 -22.610 -13.088  0.00  0.00    +0.139 C 
ATOM     11  C   UNL     1      29.912 -22.523 -17.039  0.00  0.00    +0.004 C 
ATOM     12  C   UNL     1      27.880 -22.875 -15.765  0.00  0.00    +0.001 C 
ATOM     13  C   UNL     1      28.535 -22.333 -16.869  0.00  0.00    +0.000 C 
ENDROOT
BRANCH   7  16
ATOM     14  O   UNL     1      34.983 -23.472 -16.303  0.00  0.00    -0.268 OA
ATOM     15  N   UNL     1      34.910 -24.577 -14.226  0.00  0.00    -0.265 N 
ATOM     16  C   UNL     1      34.387 -23.912 -15.324  0.00  0.00    +0.269 C 
ATOM     17  H   UNL     1      34.264 -24.855 -13.537  0.00  0.00    +0.157 HD
ATOM     18  N   UNL     1      36.577 -25.560 -12.841  0.00  0.00    -0.229 NA
ATOM     19  C   UNL     1      36.266 -24.902 -13.981  0.00  0.00    +0.134 C 
ATOM     20  C   UNL     1      37.197 -24.523 -14.936  0.00  0.00    +0.034 C 
ATOM     21  C   UNL     1      38.531 -24.839 -14.705  0.00  0.00    +0.004 C 
ATOM     22  C   UNL     1      37.884 -25.850 -12.651  0.00  0.00    +0.100 C 
ATOM     23  C   UNL     1      38.889 -25.515 -13.543  0.00  0.00    +0.021 C 
ENDBRANCH   7  16
BRANCH   8  24
ATOM     24  O   UNL     1      32.549 -23.332 -17.569  0.00  0.00    -0.504 OA
ATOM     25  H   UNL     1      31.991 -22.934 -18.208  0.00  0.00    +0.292 HD
ENDBRANCH   8  24
TORSDOF 2
ENDMDL
MODEL 4
REMARK VINA RESULT:      -8.5      9.864     12.994
REMARK  Name = 54676228
REMARK  2 active torsions:
REMARK  status: ('A' for Active; 'I' for Inactive)
REMARK    1  A    between atoms: C_7  and  C_16
REMARK    2  A    between atoms: C_8  and  O_24
REMARK                            x       y       z     vdW  Elec       q    Type
REMARK                         _______ _______ _______ _____ _____    ______ ____
ROOT
ATOM      1  S   UNL     1      34.632 -15.154 -21.126  0.00  0.00    +0.077 S 
ATOM      2  O   UNL     1      35.723 -14.208 -21.246  0.00  0.00    -0.150 OA
ATOM      3  O   UNL     1      34.539 -16.053 -19.992  0.00  0.00    -0.150 OA
ATOM      4  N   UNL     1      33.123 -14.341 -21.337  0.00  0.00    -0.181 N 
ATOM      5  C   UNL     1      34.664 -16.128 -22.589  0.00  0.00    +0.128 C 
ATOM      6  C   UNL     1      34.078 -15.586 -23.739  0.00  0.00    +0.054 C 
ATOM      7  C   UNL     1      33.020 -13.644 -22.595  0.00  0.00    +0.156 C 
ATOM      8  C   UNL     1      33.468 -14.234 -23.721  0.00  0.00    +0.154 C 
ATOM      9  C   UNL     1      35.242 -17.396 -22.565  0.00  0.00    +0.020 C 
ATOM     10  C   UNL     1      31.896 -15.090 -20.936  0.00  0.00    +0.139 C 
ATOM     11  C   UNL     1      34.104 -16.366 -24.903  0.00  0.00    +0.004 C 
ATOM     12  C   UNL     1      35.250 -18.153 -23.732  0.00  0.00    +0.001 C 
ATOM     13  C   UNL     1      34.684 -17.641 -24.899  0.00  0.00    +0.000 C 
ENDROOT
BRANCH   7  16
ATOM     14  O   UNL     1      31.236 -12.254 -22.030  0.00  0.00    -0.268 OA
ATOM     15  N   UNL     1      33.131 -11.332 -23.081  0.00  0.00    -0.265 N 
ATOM     16  C   UNL     1      32.353 -12.340 -22.531  0.00  0.00    +0.269 C 
ATOM     17  H   UNL     1      34.008 -11.603 -23.436  0.00  0.00    +0.157 HD
ATOM     18  N   UNL     1      33.706  -9.126 -23.763  0.00  0.00    -0.229 NA
ATOM     19  C   UNL     1      32.807  -9.957 -23.189  0.00  0.00    +0.134 C 
ATOM     20  C   UNL     1      31.577  -9.550 -22.697  0.00  0.00    +0.034 C 
ATOM     21  C   UNL     1      31.250  -8.202 -22.799  0.00  0.00    +0.004 C 
ATOM     22  C   UNL     1      33.353  -7.824 -23.845  0.00  0.00    +0.100 C 
ATOM     23  C   UNL     1      32.150  -7.316 -23.383  0.00  0.00    +0.021 C 
ENDBRANCH   7  16
BRANCH   8  24
ATOM     24  O   UNL     1      33.392 -13.650 -24.972  0.00  0.00    -0.504 OA
ATOM     25  H   UNL     1      33.583 -14.156 -25.738  0.00  0.00    +0.292 HD
ENDBRANCH   8  24
TORSDOF 2
ENDMDL
MODEL 5
REMARK VINA RESULT:      -8.5      6.453     11.063
REMARK  Name = 54676228
REMARK  2 active torsions:
REMARK  status: ('A' for Active; 'I' for Inactive)
REMARK    1  A    between atoms: C_7  and  C_16
REMARK    2  A    between atoms: C_8  and  O_24
REMARK                            x       y       z     vdW  Elec       q    Type
REMARK                         _______ _______ _______ _____ _____    ______ ____
ROOT
ATOM      1  S   UNL     1      32.569 -15.014 -20.991  0.00  0.00    +0.077 S 
ATOM      2  O   UNL     1      31.474 -15.953 -21.129  0.00  0.00    -0.150 OA
ATOM      3  O   UNL     1      32.487 -13.896 -20.071  0.00  0.00    -0.150 OA
ATOM      4  N   UNL     1      34.046 -15.868 -20.721  0.00  0.00    -0.181 N 
ATOM      5  C   UNL     1      32.873 -14.372 -22.598  0.00  0.00    +0.128 C 
ATOM      6  C   UNL     1      33.642 -15.153 -23.470  0.00  0.00    +0.054 C 
ATOM      7  C   UNL     1      34.355 -16.817 -21.762  0.00  0.00    +0.156 C 
ATOM      8  C   UNL     1      34.166 -16.476 -23.052  0.00  0.00    +0.154 C 
ATOM      9  C   UNL     1      32.369 -13.123 -22.953  0.00  0.00    +0.020 C 
ATOM     10  C   UNL     1      35.209 -15.064 -20.245  0.00  0.00    +0.139 C 
ATOM     11  C   UNL     1      33.884 -14.637 -24.751  0.00  0.00    +0.004 C 
ATOM     12  C   UNL     1      32.627 -12.631 -24.228  0.00  0.00    +0.001 C 
ATOM     13  C   UNL     1      33.381 -13.385 -25.126  0.00  0.00    +0.000 C 
ENDROOT
BRANCH   7  16
ATOM     14  O   UNL     1      36.131 -18.290 -21.427  0.00  0.00    -0.268 OA
ATOM     15  N   UNL     1      33.965 -18.919 -20.749  0.00  0.00    -0.265 N 
ATOM     16  C   UNL     1      34.927 -18.085 -21.298  0.00  0.00    +0.269 C 
ATOM     17  H   UNL     1      33.044 -18.572 -20.736  0.00  0.00    +0.157 HD
ATOM     18  N   UNL     1      33.083 -20.872 -19.713  0.00  0.00    -0.229 NA
ATOM     19  C   UNL     1      34.157 -20.212 -20.204  0.00  0.00    +0.134 C 
ATOM     20  C   UNL     1      35.445 -20.724 -20.211  0.00  0.00    +0.034 C 
ATOM     21  C   UNL     1      35.643 -21.993 -19.679  0.00  0.00    +0.004 C 
ATOM     22  C   UNL     1      33.314 -22.103 -19.205  0.00  0.00    +0.100 C 
ATOM     23  C   UNL     1      34.562 -22.702 -19.164  0.00  0.00    +0.021 C 
ENDBRANCH   7  16
BRANCH   8  24
ATOM     24  O   UNL     1      34.453 -17.313 -24.115  0.00  0.00    -0.504 OA
ATOM     25  H   UNL     1      34.431 -16.981 -24.991  0.00  0.00    +0.292 HD
ENDBRANCH   8  24
TORSDOF 2
ENDMDL
MODEL 6
REMARK VINA RESULT:      -8.5     10.978     14.323
REMARK  Name = 54676228
REMARK  2 active torsions:
REMARK  status: ('A' for Active; 'I' for Inactive)
REMARK    1  A    between atoms: C_7  and  C_16
REMARK    2  A    between atoms: C_8  and  O_24
REMARK                            x       y       z     vdW  Elec       q    Type
REMARK                         _______ _______ _______ _____ _____    ______ ____
ROOT
ATOM      1  S   UNL     1      31.357 -11.254 -21.900  0.00  0.00    +0.077 S 
ATOM      2  O   UNL     1      30.328 -11.274 -22.921  0.00  0.00    -0.150 OA
ATOM      3  O   UNL     1      31.016 -11.196 -20.492  0.00  0.00    -0.150 OA
ATOM      4  N   UNL     1      32.473 -12.544 -22.166  0.00  0.00    -0.181 N 
ATOM      5  C   UNL     1      32.385  -9.876 -22.266  0.00  0.00    +0.128 C 
ATOM      6  C   UNL     1      33.360 -10.043 -23.257  0.00  0.00    +0.054 C 
ATOM      7  C   UNL     1      33.088 -12.509 -23.469  0.00  0.00    +0.156 C 
ATOM      8  C   UNL     1      33.505 -11.332 -23.978  0.00  0.00    +0.154 C 
ATOM      9  C   UNL     1      32.222  -8.684 -21.565  0.00  0.00    +0.020 C 
ATOM     10  C   UNL     1      33.405 -12.867 -21.046  0.00  0.00    +0.139 C 
ATOM     11  C   UNL     1      34.180  -8.943 -23.545  0.00  0.00    +0.004 C 
ATOM     12  C   UNL     1      33.051  -7.608 -21.866  0.00  0.00    +0.001 C 
ATOM     13  C   UNL     1      34.027  -7.735 -22.853  0.00  0.00    +0.000 C 
ENDROOT
BRANCH   7  16
ATOM     14  O   UNL     1      32.744 -14.030 -25.201  0.00  0.00    -0.268 OA
ATOM     15  N   UNL     1      34.039 -14.672 -23.343  0.00  0.00    -0.265 N 
ATOM     16  C   UNL     1      33.264 -13.816 -24.110  0.00  0.00    +0.269 C 
ATOM     17  H   UNL     1      34.369 -14.312 -22.488  0.00  0.00    +0.157 HD
ATOM     18  N   UNL     1      35.178 -16.679 -22.763  0.00  0.00    -0.229 NA
ATOM     19  C   UNL     1      34.412 -16.003 -23.648  0.00  0.00    +0.134 C 
ATOM     20  C   UNL     1      33.960 -16.534 -24.846  0.00  0.00    +0.034 C 
ATOM     21  C   UNL     1      34.319 -17.841 -25.155  0.00  0.00    +0.004 C 
ATOM     22  C   UNL     1      35.508 -17.946 -23.096  0.00  0.00    +0.100 C 
ATOM     23  C   UNL     1      35.108 -18.568 -24.268  0.00  0.00    +0.021 C 
ENDBRANCH   7  16
BRANCH   8  24
ATOM     24  O   UNL     1      34.122 -11.206 -25.208  0.00  0.00    -0.504 OA
ATOM     25  H   UNL     1      33.678 -10.776 -25.913  0.00  0.00    +0.292 HD
ENDBRANCH   8  24
TORSDOF 2
ENDMDL
MODEL 7
REMARK VINA RESULT:      -8.3      3.440      4.639
REMARK  Name = 54676228
REMARK  2 active torsions:
REMARK  status: ('A' for Active; 'I' for Inactive)
REMARK    1  A    between atoms: C_7  and  C_16
REMARK    2  A    between atoms: C_8  and  O_24
REMARK                            x       y       z     vdW  Elec       q    Type
REMARK                         _______ _______ _______ _____ _____    ______ ____
ROOT
ATOM      1  S   UNL     1      36.731 -25.017 -12.873  0.00  0.00    +0.077 S 
ATOM      2  O   UNL     1      36.541 -23.708 -12.280  0.00  0.00    -0.150 OA
ATOM      3  O   UNL     1      36.737 -26.216 -12.058  0.00  0.00    -0.150 OA
ATOM      4  N   UNL     1      35.638 -25.230 -14.194  0.00  0.00    -0.181 N 
ATOM      5  C   UNL     1      38.256 -24.945 -13.743  0.00  0.00    +0.128 C 
ATOM      6  C   UNL     1      38.246 -24.361 -15.016  0.00  0.00    +0.054 C 
ATOM      7  C   UNL     1      35.769 -24.217 -15.212  0.00  0.00    +0.156 C 
ATOM      8  C   UNL     1      36.996 -23.813 -15.596  0.00  0.00    +0.154 C 
ATOM      9  C   UNL     1      39.409 -25.475 -13.168  0.00  0.00    +0.020 C 
ATOM     10  C   UNL     1      35.475 -26.619 -14.713  0.00  0.00    +0.139 C 
ATOM     11  C   UNL     1      39.464 -24.307 -15.708  0.00  0.00    +0.004 C 
ATOM     12  C   UNL     1      40.604 -25.414 -13.877  0.00  0.00    +0.001 C 
ATOM     13  C   UNL     1      40.633 -24.831 -15.143  0.00  0.00    +0.000 C 
ENDROOT
BRANCH   7  16
ATOM     14  O   UNL     1      34.487 -23.344 -16.952  0.00  0.00    -0.268 OA
ATOM     15  N   UNL     1      33.452 -23.854 -14.899  0.00  0.00    -0.265 N 
ATOM     16  C   UNL     1      34.505 -23.755 -15.795  0.00  0.00    +0.269 C 
ATOM     17  H   UNL     1      33.670 -24.211 -14.008  0.00  0.00    +0.157 HD
ATOM     18  N   UNL     1      31.214 -23.673 -14.111  0.00  0.00    -0.229 NA
ATOM     19  C   UNL     1      32.098 -23.501 -15.119  0.00  0.00    +0.134 C 
ATOM     20  C   UNL     1      31.765 -22.994 -16.366  0.00  0.00    +0.034 C 
ATOM     21  C   UNL     1      30.438 -22.644 -16.591  0.00  0.00    +0.004 C 
ATOM     22  C   UNL     1      29.934 -23.322 -14.367  0.00  0.00    +0.100 C 
ATOM     23  C   UNL     1      29.499 -22.808 -15.578  0.00  0.00    +0.021 C 
ENDBRANCH   7  16
BRANCH   8  24
ATOM     24  O   UNL     1      37.216 -22.864 -16.577  0.00  0.00    -0.504 OA
ATOM     25  H   UNL     1      38.067 -22.483 -16.677  0.00  0.00    +0.292 HD
ENDBRANCH   8  24
TORSDOF 2
ENDMDL
MODEL 8
REMARK VINA RESULT:      -8.2     13.138     17.379
REMARK  Name = 54676228
REMARK  2 active torsions:
REMARK  status: ('A' for Active; 'I' for Inactive)
REMARK    1  A    between atoms: C_7  and  C_16
REMARK    2  A    between atoms: C_8  and  O_24
REMARK                            x       y       z     vdW  Elec       q    Type
REMARK                         _______ _______ _______ _____ _____    ______ ____
ROOT
ATOM      1  S   UNL     1      30.842  -6.858 -23.277  0.00  0.00    +0.077 S 
ATOM      2  O   UNL     1      30.033  -7.733 -24.101  0.00  0.00    -0.150 OA
ATOM      3  O   UNL     1      30.298  -5.632 -22.725  0.00  0.00    -0.150 OA
ATOM      4  N   UNL     1      31.595  -7.767 -22.016  0.00  0.00    -0.181 N 
ATOM      5  C   UNL     1      32.251  -6.440 -24.240  0.00  0.00    +0.128 C 
ATOM      6  C   UNL     1      33.296  -7.370 -24.292  0.00  0.00    +0.054 C 
ATOM      7  C   UNL     1      32.406  -8.855 -22.503  0.00  0.00    +0.156 C 
ATOM      8  C   UNL     1      33.206  -8.664 -23.571  0.00  0.00    +0.154 C 
ATOM      9  C   UNL     1      32.302  -5.214 -24.899  0.00  0.00    +0.020 C 
ATOM     10  C   UNL     1      32.202  -6.988 -20.898  0.00  0.00    +0.139 C 
ATOM     11  C   UNL     1      34.420  -7.033 -25.060  0.00  0.00    +0.004 C 
ATOM     12  C   UNL     1      33.430  -4.900 -25.650  0.00  0.00    +0.001 C 
ATOM     13  C   UNL     1      34.487  -5.806 -25.732  0.00  0.00    +0.000 C 
ENDROOT
BRANCH   7  16
ATOM     14  O   UNL     1      32.095 -10.030 -20.514  0.00  0.00    -0.268 OA
ATOM     15  N   UNL     1      32.537 -11.217 -22.499  0.00  0.00    -0.265 N 
ATOM     16  C   UNL     1      32.326 -10.091 -21.718  0.00  0.00    +0.269 C 
ATOM     17  H   UNL     1      32.709 -11.058 -23.455  0.00  0.00    +0.157 HD
ATOM     18  N   UNL     1      32.761 -13.533 -22.999  0.00  0.00    -0.229 NA
ATOM     19  C   UNL     1      32.532 -12.569 -22.078  0.00  0.00    +0.134 C 
ATOM     20  C   UNL     1      32.293 -12.820 -20.736  0.00  0.00    +0.034 C 
ATOM     21  C   UNL     1      32.287 -14.145 -20.313  0.00  0.00    +0.004 C 
ATOM     22  C   UNL     1      32.748 -14.808 -22.551  0.00  0.00    +0.100 C 
ATOM     23  C   UNL     1      32.518 -15.164 -21.232  0.00  0.00    +0.021 C 
ENDBRANCH   7  16
BRANCH   8  24
ATOM     24  O   UNL     1      34.032  -9.642 -24.094  0.00  0.00    -0.504 OA
ATOM     25  H   UNL     1      34.572  -9.451 -24.836  0.00  0.00    +0.292 HD
ENDBRANCH   8  24
TORSDOF 2
ENDMDL
MODEL 9
REMARK VINA RESULT:      -8.1      1.933      2.924
REMARK  Name = 54676228
REMARK  2 active torsions:
REMARK  status: ('A' for Active; 'I' for Inactive)
REMARK    1  A    between atoms: C_7  and  C_16
REMARK    2  A    between atoms: C_8  and  O_24
REMARK                            x       y       z     vdW  Elec       q    Type
REMARK                         _______ _______ _______ _____ _____    ______ ____
ROOT
ATOM      1  S   UNL     1      36.106 -24.192 -13.201  0.00  0.00    +0.077 S 
ATOM      2  O   UNL     1      36.134 -22.792 -12.823  0.00  0.00    -0.150 OA
ATOM      3  O   UNL     1      35.626 -25.206 -12.283  0.00  0.00    -0.150 OA
ATOM      4  N   UNL     1      35.311 -24.375 -14.723  0.00  0.00    -0.181 N 
ATOM      5  C   UNL     1      37.750 -24.610 -13.659  0.00  0.00    +0.128 C 
ATOM      6  C   UNL     1      38.169 -24.262 -14.949  0.00  0.00    +0.054 C 
ATOM      7  C   UNL     1      35.916 -23.603 -15.780  0.00  0.00    +0.156 C 
ATOM      8  C   UNL     1      37.259 -23.555 -15.884  0.00  0.00    +0.154 C 
ATOM      9  C   UNL     1      38.574 -25.278 -12.756  0.00  0.00    +0.020 C 
ATOM     10  C   UNL     1      34.914 -25.760 -15.110  0.00  0.00    +0.139 C 
ATOM     11  C   UNL     1      39.480 -24.599 -15.313  0.00  0.00    +0.004 C 
ATOM     12  C   UNL     1      39.869 -25.606 -13.142  0.00  0.00    +0.001 C 
ATOM     13  C   UNL     1      40.323 -25.267 -14.416  0.00  0.00    +0.000 C 
ENDROOT
BRANCH   7  16
ATOM     14  O   UNL     1      33.767 -23.123 -16.542  0.00  0.00    -0.268 OA
ATOM     15  N   UNL     1      35.623 -22.266 -17.710  0.00  0.00    -0.265 N 
ATOM     16  C   UNL     1      34.973 -22.976 -16.711  0.00  0.00    +0.269 C 
ATOM     17  H   UNL     1      36.607 -22.267 -17.675  0.00  0.00    +0.157 HD
ATOM     18  N   UNL     1      35.844 -20.909 -19.652  0.00  0.00    -0.229 NA
ATOM     19  C   UNL     1      35.033 -21.540 -18.772  0.00  0.00    +0.134 C 
ATOM     20  C   UNL     1      33.649 -21.523 -18.844  0.00  0.00    +0.034 C 
ATOM     21  C   UNL     1      33.060 -20.813 -19.884  0.00  0.00    +0.004 C 
ATOM     22  C   UNL     1      35.237 -20.229 -20.649  0.00  0.00    +0.100 C 
ATOM     23  C   UNL     1      33.863 -20.150 -20.809  0.00  0.00    +0.021 C 
ENDBRANCH   7  16
BRANCH   8  24
ATOM     24  O   UNL     1      37.925 -22.858 -16.876  0.00  0.00    -0.504 OA
ATOM     25  H   UNL     1      37.474 -22.203 -17.371  0.00  0.00    +0.292 HD
ENDBRANCH   8  24
TORSDOF 2
ENDMDL
