MODEL 1
REMARK VINA RESULT:      -6.7      0.000      0.000
REMARK  Name = 439553
REMARK  7 active torsions:
REMARK  status: ('A' for Active; 'I' for Inactive)
REMARK    1  A    between atoms: C_2  and  O_6
REMARK    2  A    between atoms: C_3  and  O_8
REMARK    3  A    between atoms: C_3  and  C_12
REMARK    4  A    between atoms: C_4  and  O_10
REMARK    5  A    between atoms: C_5  and  C_15
REMARK    6  A    between atoms: C_12  and  O_13
REMARK    7  A    between atoms: C_15  and  O_16
REMARK                            x       y       z     vdW  Elec       q    Type
REMARK                         _______ _______ _______ _____ _____    ______ ____
ROOT
ATOM      1  O   UNL     1      39.234 -24.339 -13.097  0.00  0.00    -0.328 OA
ATOM      2  C   UNL     1      38.220 -26.119 -14.238  0.00  0.00    +0.194 C 
ATOM      3  C   UNL     1      39.168 -24.936 -14.407  0.00  0.00    +0.239 C 
ATOM      4  C   UNL     1      37.182 -25.534 -13.306  0.00  0.00    +0.172 C 
ATOM      5  C   UNL     1      38.054 -24.716 -12.360  0.00  0.00    +0.176 C 
ENDROOT
BRANCH   2   6
ATOM      6  O   UNL     1      37.645 -26.553 -15.454  0.00  0.00    -0.378 OA
ATOM      7  H   UNL     1      36.764 -26.158 -15.555  0.00  0.00    +0.211 HD
ENDBRANCH   2   6
BRANCH   3   8
ATOM      8  O   UNL     1      38.612 -24.006 -15.337  0.00  0.00    -0.360 OA
ATOM      9  H   UNL     1      38.616 -24.395 -16.225  0.00  0.00    +0.213 HD
ENDBRANCH   3   8
BRANCH   4  10
ATOM     10  O   UNL     1      36.481 -26.555 -12.620  0.00  0.00    -0.379 OA
ATOM     11  H   UNL     1      35.667 -26.769 -13.102  0.00  0.00    +0.211 HD
ENDBRANCH   4  10
BRANCH   3  12
ATOM     12  C   UNL     1      40.561 -25.347 -14.859  0.00  0.00    +0.196 C 
BRANCH  12  13
ATOM     13  O   UNL     1      40.465 -25.951 -16.138  0.00  0.00    -0.378 OA
ATOM     14  H   UNL     1      40.886 -25.377 -16.798  0.00  0.00    +0.211 HD
ENDBRANCH  12  13
ENDBRANCH   3  12
BRANCH   5  15
ATOM     15  C   UNL     1      37.361 -23.466 -11.846  0.00  0.00    +0.169 C 
BRANCH  15  16
ATOM     16  O   UNL     1      38.284 -22.390 -11.866  0.00  0.00    -0.379 OA
ATOM     17  H   UNL     1      38.579 -22.235 -12.776  0.00  0.00    +0.211 HD
ENDBRANCH  15  16
ENDBRANCH   5  15
TORSDOF 7
ENDMDL
MODEL 2
REMARK VINA RESULT:      -6.4      1.677      3.110
REMARK  Name = 439553
REMARK  7 active torsions:
REMARK  status: ('A' for Active; 'I' for Inactive)
REMARK    1  A    between atoms: C_2  and  O_6
REMARK    2  A    between atoms: C_3  and  O_8
REMARK    3  A    between atoms: C_3  and  C_12
REMARK    4  A    between atoms: C_4  and  O_10
REMARK    5  A    between atoms: C_5  and  C_15
REMARK    6  A    between atoms: C_12  and  O_13
REMARK    7  A    between atoms: C_15  and  O_16
REMARK                            x       y       z     vdW  Elec       q    Type
REMARK                         _______ _______ _______ _____ _____    ______ ____
ROOT
ATOM      1  O   UNL     1      35.904 -24.679 -13.025  0.00  0.00    -0.328 OA
ATOM      2  C   UNL     1      38.207 -24.955 -13.366  0.00  0.00    +0.194 C 
ATOM      3  C   UNL     1      36.846 -25.602 -13.605  0.00  0.00    +0.239 C 
ATOM      4  C   UNL     1      38.024 -24.389 -11.975  0.00  0.00    +0.172 C 
ATOM      5  C   UNL     1      36.591 -23.874 -12.047  0.00  0.00    +0.176 C 
ENDROOT
BRANCH   2   6
ATOM      6  O   UNL     1      39.280 -25.874 -13.419  0.00  0.00    -0.378 OA
ATOM      7  H   UNL     1      38.993 -26.680 -13.877  0.00  0.00    +0.211 HD
ENDBRANCH   2   6
BRANCH   3   8
ATOM      8  O   UNL     1      36.784 -26.853 -12.920  0.00  0.00    -0.360 OA
ATOM      9  H   UNL     1      37.360 -27.495 -13.365  0.00  0.00    +0.213 HD
ENDBRANCH   3   8
BRANCH   4  10
ATOM     10  O   UNL     1      38.945 -23.341 -11.728  0.00  0.00    -0.379 OA
ATOM     11  H   UNL     1      38.462 -22.509 -11.607  0.00  0.00    +0.211 HD
ENDBRANCH   4  10
BRANCH   3  12
ATOM     12  C   UNL     1      36.532 -25.805 -15.079  0.00  0.00    +0.196 C 
BRANCH  12  13
ATOM     13  O   UNL     1      37.595 -26.527 -15.676  0.00  0.00    -0.378 OA
ATOM     14  H   UNL     1      38.286 -25.908 -15.961  0.00  0.00    +0.211 HD
ENDBRANCH  12  13
ENDBRANCH   3  12
BRANCH   5  15
ATOM     15  C   UNL     1      35.862 -23.965 -10.717  0.00  0.00    +0.169 C 
BRANCH  15  16
ATOM     16  O   UNL     1      35.325 -25.270 -10.579  0.00  0.00    -0.379 OA
ATOM     17  H   UNL     1      36.036 -25.890 -10.357  0.00  0.00    +0.211 HD
ENDBRANCH  15  16
ENDBRANCH   5  15
TORSDOF 7
ENDMDL
MODEL 3
REMARK VINA RESULT:      -6.4      0.888      3.872
REMARK  Name = 439553
REMARK  7 active torsions:
REMARK  status: ('A' for Active; 'I' for Inactive)
REMARK    1  A    between atoms: C_2  and  O_6
REMARK    2  A    between atoms: C_3  and  O_8
REMARK    3  A    between atoms: C_3  and  C_12
REMARK    4  A    between atoms: C_4  and  O_10
REMARK    5  A    between atoms: C_5  and  C_15
REMARK    6  A    between atoms: C_12  and  O_13
REMARK    7  A    between atoms: C_15  and  O_16
REMARK                            x       y       z     vdW  Elec       q    Type
REMARK                         _______ _______ _______ _____ _____    ______ ____
ROOT
ATOM      1  O   UNL     1      38.367 -23.818 -13.852  0.00  0.00    -0.328 OA
ATOM      2  C   UNL     1      37.104 -25.608 -13.019  0.00  0.00    +0.194 C 
ATOM      3  C   UNL     1      37.701 -24.254 -12.652  0.00  0.00    +0.239 C 
ATOM      4  C   UNL     1      38.209 -26.196 -13.870  0.00  0.00    +0.172 C 
ATOM      5  C   UNL     1      38.660 -24.974 -14.662  0.00  0.00    +0.176 C 
ENDROOT
BRANCH   2   6
ATOM      6  O   UNL     1      36.823 -26.419 -11.896  0.00  0.00    -0.378 OA
ATOM      7  H   UNL     1      35.882 -26.343 -11.670  0.00  0.00    +0.211 HD
ENDBRANCH   2   6
BRANCH   3   8
ATOM      8  O   UNL     1      38.653 -24.419 -11.601  0.00  0.00    -0.360 OA
ATOM      9  H   UNL     1      38.540 -25.292 -11.196  0.00  0.00    +0.213 HD
ENDBRANCH   3   8
BRANCH   4  10
ATOM     10  O   UNL     1      37.710 -27.214 -14.719  0.00  0.00    -0.379 OA
ATOM     11  H   UNL     1      37.930 -28.082 -14.347  0.00  0.00    +0.211 HD
ENDBRANCH   4  10
BRANCH   3  12
ATOM     12  C   UNL     1      36.653 -23.231 -12.241  0.00  0.00    +0.196 C 
BRANCH  12  13
ATOM     13  O   UNL     1      37.194 -22.408 -11.222  0.00  0.00    -0.378 OA
ATOM     14  H   UNL     1      37.902 -22.887 -10.763  0.00  0.00    +0.211 HD
ENDBRANCH  12  13
ENDBRANCH   3  12
BRANCH   5  15
ATOM     15  C   UNL     1      40.143 -24.995 -14.991  0.00  0.00    +0.169 C 
BRANCH  15  16
ATOM     16  O   UNL     1      40.375 -25.972 -15.992  0.00  0.00    -0.379 OA
ATOM     17  H   UNL     1      41.053 -26.593 -15.687  0.00  0.00    +0.211 HD
ENDBRANCH  15  16
ENDBRANCH   5  15
TORSDOF 7
ENDMDL
MODEL 4
REMARK VINA RESULT:      -6.0      2.000      4.275
REMARK  Name = 439553
REMARK  7 active torsions:
REMARK  status: ('A' for Active; 'I' for Inactive)
REMARK    1  A    between atoms: C_2  and  O_6
REMARK    2  A    between atoms: C_3  and  O_8
REMARK    3  A    between atoms: C_3  and  C_12
REMARK    4  A    between atoms: C_4  and  O_10
REMARK    5  A    between atoms: C_5  and  C_15
REMARK    6  A    between atoms: C_12  and  O_13
REMARK    7  A    between atoms: C_15  and  O_16
REMARK                            x       y       z     vdW  Elec       q    Type
REMARK                         _______ _______ _______ _____ _____    ______ ____
ROOT
ATOM      1  O   UNL     1      37.678 -24.725 -13.329  0.00  0.00    -0.328 OA
ATOM      2  C   UNL     1      35.521 -23.816 -13.450  0.00  0.00    +0.194 C 
ATOM      3  C   UNL     1      36.622 -24.233 -12.481  0.00  0.00    +0.239 C 
ATOM      4  C   UNL     1      35.600 -24.920 -14.481  0.00  0.00    +0.172 C 
ATOM      5  C   UNL     1      37.108 -25.117 -14.593  0.00  0.00    +0.176 C 
ENDROOT
BRANCH   2   6
ATOM      6  O   UNL     1      34.242 -23.752 -12.849  0.00  0.00    -0.378 OA
ATOM      7  H   UNL     1      34.100 -24.544 -12.306  0.00  0.00    +0.211 HD
ENDBRANCH   2   6
BRANCH   3   8
ATOM      8  O   UNL     1      36.147 -25.284 -11.639  0.00  0.00    -0.360 OA
ATOM      9  H   UNL     1      35.674 -25.940 -12.175  0.00  0.00    +0.213 HD
ENDBRANCH   3   8
BRANCH   4  10
ATOM     10  O   UNL     1      35.033 -24.508 -15.711  0.00  0.00    -0.379 OA
ATOM     11  H   UNL     1      34.615 -23.641 -15.600  0.00  0.00    +0.211 HD
ENDBRANCH   4  10
BRANCH   3  12
ATOM     12  C   UNL     1      37.136 -23.083 -11.628  0.00  0.00    +0.196 C 
BRANCH  12  13
ATOM     13  O   UNL     1      38.553 -23.111 -11.631  0.00  0.00    -0.378 OA
ATOM     14  H   UNL     1      38.864 -23.766 -10.986  0.00  0.00    +0.211 HD
ENDBRANCH  12  13
ENDBRANCH   3  12
BRANCH   5  15
ATOM     15  C   UNL     1      37.496 -26.554 -14.896  0.00  0.00    +0.169 C 
BRANCH  15  16
ATOM     16  O   UNL     1      36.781 -26.990 -16.040  0.00  0.00    -0.379 OA
ATOM     17  H   UNL     1      36.622 -26.236 -16.628  0.00  0.00    +0.211 HD
ENDBRANCH  15  16
ENDBRANCH   5  15
TORSDOF 7
ENDMDL
MODEL 5
REMARK VINA RESULT:      -5.9      1.958      2.520
REMARK  Name = 439553
REMARK  7 active torsions:
REMARK  status: ('A' for Active; 'I' for Inactive)
REMARK    1  A    between atoms: C_2  and  O_6
REMARK    2  A    between atoms: C_3  and  O_8
REMARK    3  A    between atoms: C_3  and  C_12
REMARK    4  A    between atoms: C_4  and  O_10
REMARK    5  A    between atoms: C_5  and  C_15
REMARK    6  A    between atoms: C_12  and  O_13
REMARK    7  A    between atoms: C_15  and  O_16
REMARK                            x       y       z     vdW  Elec       q    Type
REMARK                         _______ _______ _______ _____ _____    ______ ____
ROOT
ATOM      1  O   UNL     1      36.408 -23.457 -13.693  0.00  0.00    -0.328 OA
ATOM      2  C   UNL     1      37.803 -25.219 -14.358  0.00  0.00    +0.194 C 
ATOM      3  C   UNL     1      36.883 -24.120 -14.880  0.00  0.00    +0.239 C 
ATOM      4  C   UNL     1      37.041 -25.687 -13.138  0.00  0.00    +0.172 C 
ATOM      5  C   UNL     1      36.528 -24.364 -12.579  0.00  0.00    +0.176 C 
ENDROOT
BRANCH   2   6
ATOM      6  O   UNL     1      38.001 -26.269 -15.284  0.00  0.00    -0.378 OA
ATOM      7  H   UNL     1      38.844 -26.711 -15.097  0.00  0.00    +0.211 HD
ENDBRANCH   2   6
BRANCH   3   8
ATOM      8  O   UNL     1      35.785 -24.706 -15.580  0.00  0.00    -0.360 OA
ATOM      9  H   UNL     1      35.110 -24.030 -15.749  0.00  0.00    +0.213 HD
ENDBRANCH   3   8
BRANCH   4  10
ATOM     10  O   UNL     1      37.900 -26.343 -12.223  0.00  0.00    -0.379 OA
ATOM     11  H   UNL     1      38.388 -27.043 -12.683  0.00  0.00    +0.211 HD
ENDBRANCH   4  10
BRANCH   3  12
ATOM     12  C   UNL     1      37.595 -23.122 -15.781  0.00  0.00    +0.196 C 
BRANCH  12  13
ATOM     13  O   UNL     1      38.942 -23.532 -15.938  0.00  0.00    -0.378 OA
ATOM     14  H   UNL     1      39.173 -23.529 -16.881  0.00  0.00    +0.211 HD
ENDBRANCH  12  13
ENDBRANCH   3  12
BRANCH   5  15
ATOM     15  C   UNL     1      35.182 -24.494 -11.888  0.00  0.00    +0.169 C 
BRANCH  15  16
ATOM     16  O   UNL     1      35.362 -25.184 -10.662  0.00  0.00    -0.379 OA
ATOM     17  H   UNL     1      36.166 -25.724 -10.710  0.00  0.00    +0.211 HD
ENDBRANCH  15  16
ENDBRANCH   5  15
TORSDOF 7
ENDMDL
MODEL 6
REMARK VINA RESULT:      -5.9      1.718      4.577
REMARK  Name = 439553
REMARK  7 active torsions:
REMARK  status: ('A' for Active; 'I' for Inactive)
REMARK    1  A    between atoms: C_2  and  O_6
REMARK    2  A    between atoms: C_3  and  O_8
REMARK    3  A    between atoms: C_3  and  C_12
REMARK    4  A    between atoms: C_4  and  O_10
REMARK    5  A    between atoms: C_5  and  C_15
REMARK    6  A    between atoms: C_12  and  O_13
REMARK    7  A    between atoms: C_15  and  O_16
REMARK                            x       y       z     vdW  Elec       q    Type
REMARK                         _______ _______ _______ _____ _____    ______ ____
ROOT
ATOM      1  O   UNL     1      36.196 -25.606 -12.821  0.00  0.00    -0.328 OA
ATOM      2  C   UNL     1      37.718 -23.995 -12.058  0.00  0.00    +0.194 C 
ATOM      3  C   UNL     1      36.232 -24.320 -12.174  0.00  0.00    +0.239 C 
ATOM      4  C   UNL     1      38.236 -24.510 -13.383  0.00  0.00    +0.172 C 
ATOM      5  C   UNL     1      37.429 -25.793 -13.542  0.00  0.00    +0.176 C 
ENDROOT
BRANCH   2   6
ATOM      6  O   UNL     1      37.978 -22.615 -11.896  0.00  0.00    -0.378 OA
ATOM      7  H   UNL     1      37.842 -22.367 -10.968  0.00  0.00    +0.211 HD
ENDBRANCH   2   6
BRANCH   3   8
ATOM      8  O   UNL     1      35.591 -23.344 -12.996  0.00  0.00    -0.360 OA
ATOM      9  H   UNL     1      34.714 -23.143 -12.635  0.00  0.00    +0.213 HD
ENDBRANCH   3   8
BRANCH   4  10
ATOM     10  O   UNL     1      39.626 -24.770 -13.319  0.00  0.00    -0.379 OA
ATOM     11  H   UNL     1      40.102 -23.944 -13.142  0.00  0.00    +0.211 HD
ENDBRANCH   4  10
BRANCH   3  12
ATOM     12  C   UNL     1      35.531 -24.398 -10.826  0.00  0.00    +0.196 C 
BRANCH  12  13
ATOM     13  O   UNL     1      36.437 -23.985  -9.817  0.00  0.00    -0.378 OA
ATOM     14  H   UNL     1      35.950 -23.820  -8.994  0.00  0.00    +0.211 HD
ENDBRANCH  12  13
ENDBRANCH   3  12
BRANCH   5  15
ATOM     15  C   UNL     1      37.119 -26.123 -14.993  0.00  0.00    +0.169 C 
BRANCH  15  16
ATOM     16  O   UNL     1      35.876 -26.801 -15.052  0.00  0.00    -0.379 OA
ATOM     17  H   UNL     1      35.283 -26.336 -15.662  0.00  0.00    +0.211 HD
ENDBRANCH  15  16
ENDBRANCH   5  15
TORSDOF 7
ENDMDL
MODEL 7
REMARK VINA RESULT:      -5.9      1.894      4.027
REMARK  Name = 439553
REMARK  7 active torsions:
REMARK  status: ('A' for Active; 'I' for Inactive)
REMARK    1  A    between atoms: C_2  and  O_6
REMARK    2  A    between atoms: C_3  and  O_8
REMARK    3  A    between atoms: C_3  and  C_12
REMARK    4  A    between atoms: C_4  and  O_10
REMARK    5  A    between atoms: C_5  and  C_15
REMARK    6  A    between atoms: C_12  and  O_13
REMARK    7  A    between atoms: C_15  and  O_16
REMARK                            x       y       z     vdW  Elec       q    Type
REMARK                         _______ _______ _______ _____ _____    ______ ____
ROOT
ATOM      1  O   UNL     1      36.265 -23.217 -13.780  0.00  0.00    -0.328 OA
ATOM      2  C   UNL     1      36.355 -25.534 -13.433  0.00  0.00    +0.194 C 
ATOM      3  C   UNL     1      36.427 -24.185 -12.726  0.00  0.00    +0.239 C 
ATOM      4  C   UNL     1      37.120 -25.241 -14.706  0.00  0.00    +0.172 C 
ATOM      5  C   UNL     1      36.633 -23.833 -15.030  0.00  0.00    +0.176 C 
ENDROOT
BRANCH   2   6
ATOM      6  O   UNL     1      36.949 -26.584 -12.697  0.00  0.00    -0.378 OA
ATOM      7  H   UNL     1      36.701 -27.436 -13.091  0.00  0.00    +0.211 HD
ENDBRANCH   2   6
BRANCH   3   8
ATOM      8  O   UNL     1      37.711 -24.030 -12.119  0.00  0.00    -0.360 OA
ATOM      9  H   UNL     1      37.664 -24.300 -11.189  0.00  0.00    +0.213 HD
ENDBRANCH   3   8
BRANCH   4  10
ATOM     10  O   UNL     1      36.779 -26.160 -15.727  0.00  0.00    -0.379 OA
ATOM     11  H   UNL     1      37.235 -25.916 -16.547  0.00  0.00    +0.211 HD
ENDBRANCH   4  10
BRANCH   3  12
ATOM     12  C   UNL     1      35.338 -23.999 -11.680  0.00  0.00    +0.196 C 
BRANCH  12  13
ATOM     13  O   UNL     1      35.393 -25.083 -10.769  0.00  0.00    -0.378 OA
ATOM     14  H   UNL     1      34.637 -25.672 -10.921  0.00  0.00    +0.211 HD
ENDBRANCH  12  13
ENDBRANCH   3  12
BRANCH   5  15
ATOM     15  C   UNL     1      37.690 -22.984 -15.718  0.00  0.00    +0.169 C 
BRANCH  15  16
ATOM     16  O   UNL     1      38.891 -23.732 -15.806  0.00  0.00    -0.379 OA
ATOM     17  H   UNL     1      39.449 -23.540 -15.036  0.00  0.00    +0.211 HD
ENDBRANCH  15  16
ENDBRANCH   5  15
TORSDOF 7
ENDMDL
MODEL 8
REMARK VINA RESULT:      -5.8      1.651      3.981
REMARK  Name = 439553
REMARK  7 active torsions:
REMARK  status: ('A' for Active; 'I' for Inactive)
REMARK    1  A    between atoms: C_2  and  O_6
REMARK    2  A    between atoms: C_3  and  O_8
REMARK    3  A    between atoms: C_3  and  C_12
REMARK    4  A    between atoms: C_4  and  O_10
REMARK    5  A    between atoms: C_5  and  C_15
REMARK    6  A    between atoms: C_12  and  O_13
REMARK    7  A    between atoms: C_15  and  O_16
REMARK                            x       y       z     vdW  Elec       q    Type
REMARK                         _______ _______ _______ _____ _____    ______ ____
ROOT
ATOM      1  O   UNL     1      38.306 -25.092 -12.900  0.00  0.00    -0.328 OA
ATOM      2  C   UNL     1      36.279 -24.664 -13.997  0.00  0.00    +0.194 C 
ATOM      3  C   UNL     1      36.905 -25.418 -12.827  0.00  0.00    +0.239 C 
ATOM      4  C   UNL     1      37.337 -24.844 -15.063  0.00  0.00    +0.172 C 
ATOM      5  C   UNL     1      38.615 -24.685 -14.248  0.00  0.00    +0.176 C 
ENDROOT
BRANCH   2   6
ATOM      6  O   UNL     1      35.033 -25.196 -14.402  0.00  0.00    -0.378 OA
ATOM      7  H   UNL     1      34.379 -25.062 -13.697  0.00  0.00    +0.211 HD
ENDBRANCH   2   6
BRANCH   3   8
ATOM      8  O   UNL     1      36.723 -26.822 -13.010  0.00  0.00    -0.360 OA
ATOM      9  H   UNL     1      36.606 -27.014 -13.954  0.00  0.00    +0.213 HD
ENDBRANCH   3   8
BRANCH   4  10
ATOM     10  O   UNL     1      37.226 -23.846 -16.062  0.00  0.00    -0.379 OA
ATOM     11  H   UNL     1      36.574 -24.122 -16.724  0.00  0.00    +0.211 HD
ENDBRANCH   4  10
BRANCH   3  12
ATOM     12  C   UNL     1      36.345 -24.998 -11.477  0.00  0.00    +0.196 C 
BRANCH  12  13
ATOM     13  O   UNL     1      34.929 -25.032 -11.541  0.00  0.00    -0.378 OA
ATOM     14  H   UNL     1      34.561 -24.746 -10.690  0.00  0.00    +0.211 HD
ENDBRANCH  12  13
ENDBRANCH   3  12
BRANCH   5  15
ATOM     15  C   UNL     1      39.764 -25.527 -14.777  0.00  0.00    +0.169 C 
BRANCH  15  16
ATOM     16  O   UNL     1      40.982 -24.845 -14.530  0.00  0.00    -0.379 OA
ATOM     17  H   UNL     1      41.575 -24.959 -15.288  0.00  0.00    +0.211 HD
ENDBRANCH  15  16
ENDBRANCH   5  15
TORSDOF 7
ENDMDL
MODEL 9
REMARK VINA RESULT:      -5.8     10.736     12.063
REMARK  Name = 439553
REMARK  7 active torsions:
REMARK  status: ('A' for Active; 'I' for Inactive)
REMARK    1  A    between atoms: C_2  and  O_6
REMARK    2  A    between atoms: C_3  and  O_8
REMARK    3  A    between atoms: C_3  and  C_12
REMARK    4  A    between atoms: C_4  and  O_10
REMARK    5  A    between atoms: C_5  and  C_15
REMARK    6  A    between atoms: C_12  and  O_13
REMARK    7  A    between atoms: C_15  and  O_16
REMARK                            x       y       z     vdW  Elec       q    Type
REMARK                         _______ _______ _______ _____ _____    ______ ____
ROOT
ATOM      1  O   UNL     1      35.012 -19.669 -22.974  0.00  0.00    -0.328 OA
ATOM      2  C   UNL     1      35.512 -17.804 -21.644  0.00  0.00    +0.194 C 
ATOM      3  C   UNL     1      34.888 -19.196 -21.619  0.00  0.00    +0.239 C 
ATOM      4  C   UNL     1      35.022 -17.285 -22.978  0.00  0.00    +0.172 C 
ATOM      5  C   UNL     1      35.146 -18.530 -23.848  0.00  0.00    +0.176 C 
ENDROOT
BRANCH   2   6
ATOM      6  O   UNL     1      35.088 -16.981 -20.575  0.00  0.00    -0.378 OA
ATOM      7  H   UNL     1      34.359 -17.414 -20.103  0.00  0.00    +0.211 HD
ENDBRANCH   2   6
BRANCH   3   8
ATOM      8  O   UNL     1      33.509 -19.095 -21.264  0.00  0.00    -0.360 OA
ATOM      9  H   UNL     1      33.156 -19.980 -21.082  0.00  0.00    +0.213 HD
ENDBRANCH   3   8
BRANCH   4  10
ATOM     10  O   UNL     1      35.846 -16.234 -23.448  0.00  0.00    -0.379 OA
ATOM     11  H   UNL     1      36.771 -16.526 -23.454  0.00  0.00    +0.211 HD
ENDBRANCH   4  10
BRANCH   3  12
ATOM     12  C   UNL     1      35.596 -20.151 -20.670  0.00  0.00    +0.196 C 
BRANCH  12  13
ATOM     13  O   UNL     1      36.695 -19.477 -20.081  0.00  0.00    -0.378 OA
ATOM     14  H   UNL     1      36.519 -19.337 -19.137  0.00  0.00    +0.211 HD
ENDBRANCH  12  13
ENDBRANCH   3  12
BRANCH   5  15
ATOM     15  C   UNL     1      34.085 -18.602 -24.934  0.00  0.00    +0.169 C 
BRANCH  15  16
ATOM     16  O   UNL     1      34.090 -17.384 -25.659  0.00  0.00    -0.379 OA
ATOM     17  H   UNL     1      34.986 -17.204 -25.982  0.00  0.00    +0.211 HD
ENDBRANCH  15  16
ENDBRANCH   5  15
TORSDOF 7
ENDMDL
