MODEL 1
REMARK VINA RESULT:      -8.5      0.000      0.000
REMARK  Name = 4946
REMARK  7 active torsions:
REMARK  status: ('A' for Active; 'I' for Inactive)
REMARK    1  A    between atoms: O_1  and  C_2
REMARK    2  A    between atoms: O_1  and  C_12
REMARK    3  A    between atoms: C_12  and  C_13
REMARK    4  A    between atoms: C_13  and  O_14
REMARK    5  A    between atoms: C_13  and  C_16
REMARK    6  A    between atoms: C_16  and  N_17
REMARK    7  A    between atoms: N_17  and  C_20
REMARK                            x       y       z     vdW  Elec       q    Type
REMARK                         _______ _______ _______ _____ _____    ______ ____
ROOT
ATOM      1  O   UNL     1      34.349 -17.949 -22.685  0.00  0.00    -0.473 OA
ENDROOT
BRANCH   1   2
ATOM      2  C   UNL     1      35.140 -18.715 -21.875  0.00  0.00    +0.139 C 
ATOM      3  C   UNL     1      34.591 -19.696 -21.034  0.00  0.00    +0.034 C 
ATOM      4  C   UNL     1      35.452 -20.463 -20.213  0.00  0.00    +0.003 C 
ATOM      5  C   UNL     1      36.517 -18.493 -21.908  0.00  0.00    +0.037 C 
ATOM      6  C   UNL     1      33.208 -19.932 -20.987  0.00  0.00    +0.003 C 
ATOM      7  C   UNL     1      36.836 -20.227 -20.259  0.00  0.00    +0.000 C 
ATOM      8  C   UNL     1      37.364 -19.248 -21.101  0.00  0.00    +0.003 C 
ATOM      9  C   UNL     1      34.903 -21.444 -19.371  0.00  0.00    +0.000 C 
ATOM     10  C   UNL     1      32.680 -20.911 -20.145  0.00  0.00    +0.000 C 
ATOM     11  C   UNL     1      33.527 -21.665 -19.338  0.00  0.00    +0.000 C 
ENDBRANCH   1   2
BRANCH   1  12
ATOM     12  C   UNL     1      34.656 -17.952 -24.075  0.00  0.00    +0.232 C 
BRANCH  12  13
ATOM     13  C   UNL     1      34.708 -16.509 -24.573  0.00  0.00    +0.133 C 
BRANCH  13  14
ATOM     14  O   UNL     1      34.221 -16.471 -25.917  0.00  0.00    -0.383 OA
ATOM     15  H   UNL     1      33.557 -17.167 -26.040  0.00  0.00    +0.210 HD
ENDBRANCH  13  14
BRANCH  13  16
ATOM     16  C   UNL     1      33.864 -15.549 -23.731  0.00  0.00    -0.048 C 
BRANCH  16  17
ATOM     17  N   UNL     1      34.681 -14.762 -22.816  0.00  0.00    +0.387 N 
ATOM     18  H   UNL     1      34.915 -13.873 -23.256  0.00  0.00    -0.084 HD
ATOM     19  H   UNL     1      35.527 -15.288 -22.601  0.00  0.00    -0.084 HD
BRANCH  17  20
ATOM     20  C   UNL     1      33.966 -14.504 -21.572  0.00  0.00    -0.062 C 
ATOM     21  C   UNL     1      34.551 -15.345 -20.441  0.00  0.00    -0.023 C 
ATOM     22  C   UNL     1      32.483 -14.802 -21.767  0.00  0.00    -0.023 C 
ENDBRANCH  17  20
ENDBRANCH  16  17
ENDBRANCH  13  16
ENDBRANCH  12  13
ENDBRANCH   1  12
TORSDOF 7
ENDMDL
MODEL 2
REMARK VINA RESULT:      -8.3      2.818      6.523
REMARK  Name = 4946
REMARK  7 active torsions:
REMARK  status: ('A' for Active; 'I' for Inactive)
REMARK    1  A    between atoms: O_1  and  C_2
REMARK    2  A    between atoms: O_1  and  C_12
REMARK    3  A    between atoms: C_12  and  C_13
REMARK    4  A    between atoms: C_13  and  O_14
REMARK    5  A    between atoms: C_13  and  C_16
REMARK    6  A    between atoms: C_16  and  N_17
REMARK    7  A    between atoms: N_17  and  C_20
REMARK                            x       y       z     vdW  Elec       q    Type
REMARK                         _______ _______ _______ _____ _____    ______ ____
ROOT
ATOM      1  O   UNL     1      35.145 -19.047 -20.687  0.00  0.00    -0.473 OA
ENDROOT
BRANCH   1   2
ATOM      2  C   UNL     1      34.965 -18.446 -21.901  0.00  0.00    +0.139 C 
ATOM      3  C   UNL     1      34.758 -17.061 -22.008  0.00  0.00    +0.034 C 
ATOM      4  C   UNL     1      34.576 -16.486 -23.288  0.00  0.00    +0.003 C 
ATOM      5  C   UNL     1      34.993 -19.252 -23.040  0.00  0.00    +0.037 C 
ATOM      6  C   UNL     1      34.726 -16.235 -20.873  0.00  0.00    +0.003 C 
ATOM      7  C   UNL     1      34.607 -17.313 -24.424  0.00  0.00    +0.000 C 
ATOM      8  C   UNL     1      34.815 -18.686 -24.299  0.00  0.00    +0.003 C 
ATOM      9  C   UNL     1      34.368 -15.102 -23.395  0.00  0.00    +0.000 C 
ATOM     10  C   UNL     1      34.518 -14.862 -20.998  0.00  0.00    +0.000 C 
ATOM     11  C   UNL     1      34.339 -14.296 -22.257  0.00  0.00    +0.000 C 
ENDBRANCH   1   2
BRANCH   1  12
ATOM     12  C   UNL     1      34.969 -20.459 -20.634  0.00  0.00    +0.232 C 
BRANCH  12  13
ATOM     13  C   UNL     1      33.727 -20.772 -19.802  0.00  0.00    +0.133 C 
BRANCH  13  14
ATOM     14  O   UNL     1      32.582 -20.735 -20.658  0.00  0.00    -0.383 OA
ATOM     15  H   UNL     1      32.569 -21.529 -21.215  0.00  0.00    +0.210 HD
ENDBRANCH  13  14
BRANCH  13  16
ATOM     16  C   UNL     1      33.779 -22.147 -19.132  0.00  0.00    -0.048 C 
BRANCH  16  17
ATOM     17  N   UNL     1      32.593 -22.408 -18.327  0.00  0.00    +0.387 N 
ATOM     18  H   UNL     1      31.865 -22.802 -18.922  0.00  0.00    -0.084 HD
ATOM     19  H   UNL     1      32.281 -21.530 -17.914  0.00  0.00    -0.084 HD
BRANCH  17  20
ATOM     20  C   UNL     1      32.890 -23.347 -17.253  0.00  0.00    -0.062 C 
ATOM     21  C   UNL     1      31.839 -23.241 -16.152  0.00  0.00    -0.023 C 
ATOM     22  C   UNL     1      34.287 -23.069 -16.706  0.00  0.00    -0.023 C 
ENDBRANCH  17  20
ENDBRANCH  16  17
ENDBRANCH  13  16
ENDBRANCH  12  13
ENDBRANCH   1  12
TORSDOF 7
ENDMDL
MODEL 3
REMARK VINA RESULT:      -8.1      7.290     10.782
REMARK  Name = 4946
REMARK  7 active torsions:
REMARK  status: ('A' for Active; 'I' for Inactive)
REMARK    1  A    between atoms: O_1  and  C_2
REMARK    2  A    between atoms: O_1  and  C_12
REMARK    3  A    between atoms: C_12  and  C_13
REMARK    4  A    between atoms: C_13  and  O_14
REMARK    5  A    between atoms: C_13  and  C_16
REMARK    6  A    between atoms: C_16  and  N_17
REMARK    7  A    between atoms: N_17  and  C_20
REMARK                            x       y       z     vdW  Elec       q    Type
REMARK                         _______ _______ _______ _____ _____    ______ ____
ROOT
ATOM      1  O   UNL     1      35.325 -23.488 -13.907  0.00  0.00    -0.473 OA
ENDROOT
BRANCH   1   2
ATOM      2  C   UNL     1      34.547 -23.366 -15.024  0.00  0.00    +0.139 C 
ATOM      3  C   UNL     1      35.065 -22.846 -16.221  0.00  0.00    +0.034 C 
ATOM      4  C   UNL     1      34.220 -22.739 -17.351  0.00  0.00    +0.003 C 
ATOM      5  C   UNL     1      33.216 -23.775 -14.941  0.00  0.00    +0.037 C 
ATOM      6  C   UNL     1      36.402 -22.428 -16.322  0.00  0.00    +0.003 C 
ATOM      7  C   UNL     1      32.882 -23.156 -17.250  0.00  0.00    +0.000 C 
ATOM      8  C   UNL     1      32.385 -23.670 -16.052  0.00  0.00    +0.003 C 
ATOM      9  C   UNL     1      34.736 -22.218 -18.548  0.00  0.00    +0.000 C 
ATOM     10  C   UNL     1      36.899 -21.914 -17.520  0.00  0.00    +0.000 C 
ATOM     11  C   UNL     1      36.067 -21.809 -18.631  0.00  0.00    +0.000 C 
ENDBRANCH   1   2
BRANCH   1  12
ATOM     12  C   UNL     1      34.778 -24.224 -12.817  0.00  0.00    +0.232 C 
BRANCH  12  13
ATOM     13  C   UNL     1      35.841 -24.362 -11.730  0.00  0.00    +0.133 C 
BRANCH  13  14
ATOM     14  O   UNL     1      35.298 -25.130 -10.653  0.00  0.00    -0.383 OA
ATOM     15  H   UNL     1      36.021 -25.507 -10.129  0.00  0.00    +0.210 HD
ENDBRANCH  13  14
BRANCH  13  16
ATOM     16  C   UNL     1      37.116 -25.056 -12.217  0.00  0.00    -0.048 C 
BRANCH  16  17
ATOM     17  N   UNL     1      36.826 -26.280 -12.952  0.00  0.00    +0.387 N 
ATOM     18  H   UNL     1      35.830 -26.312 -13.168  0.00  0.00    -0.084 HD
ATOM     19  H   UNL     1      37.092 -27.077 -12.376  0.00  0.00    -0.084 HD
BRANCH  17  20
ATOM     20  C   UNL     1      37.583 -26.332 -14.196  0.00  0.00    -0.062 C 
ATOM     21  C   UNL     1      38.412 -25.061 -14.365  0.00  0.00    -0.023 C 
ATOM     22  C   UNL     1      36.625 -26.520 -15.368  0.00  0.00    -0.023 C 
ENDBRANCH  17  20
ENDBRANCH  16  17
ENDBRANCH  13  16
ENDBRANCH  12  13
ENDBRANCH   1  12
TORSDOF 7
ENDMDL
MODEL 4
REMARK VINA RESULT:      -7.9      3.931      5.586
REMARK  Name = 4946
REMARK  7 active torsions:
REMARK  status: ('A' for Active; 'I' for Inactive)
REMARK    1  A    between atoms: O_1  and  C_2
REMARK    2  A    between atoms: O_1  and  C_12
REMARK    3  A    between atoms: C_12  and  C_13
REMARK    4  A    between atoms: C_13  and  O_14
REMARK    5  A    between atoms: C_13  and  C_16
REMARK    6  A    between atoms: C_16  and  N_17
REMARK    7  A    between atoms: N_17  and  C_20
REMARK                            x       y       z     vdW  Elec       q    Type
REMARK                         _______ _______ _______ _____ _____    ______ ____
ROOT
ATOM      1  O   UNL     1      33.832 -13.786 -24.101  0.00  0.00    -0.473 OA
ENDROOT
BRANCH   1   2
ATOM      2  C   UNL     1      34.139 -14.719 -23.151  0.00  0.00    +0.139 C 
ATOM      3  C   UNL     1      34.370 -16.062 -23.492  0.00  0.00    +0.034 C 
ATOM      4  C   UNL     1      34.683 -16.990 -22.472  0.00  0.00    +0.003 C 
ATOM      5  C   UNL     1      34.216 -14.298 -21.823  0.00  0.00    +0.037 C 
ATOM      6  C   UNL     1      34.296 -16.503 -24.823  0.00  0.00    +0.003 C 
ATOM      7  C   UNL     1      34.757 -16.549 -21.140  0.00  0.00    +0.000 C 
ATOM      8  C   UNL     1      34.525 -15.212 -20.819  0.00  0.00    +0.003 C 
ATOM      9  C   UNL     1      34.914 -18.333 -22.812  0.00  0.00    +0.000 C 
ATOM     10  C   UNL     1      34.528 -17.840 -25.144  0.00  0.00    +0.000 C 
ATOM     11  C   UNL     1      34.836 -18.754 -24.140  0.00  0.00    +0.000 C 
ENDBRANCH   1   2
BRANCH   1  12
ATOM     12  C   UNL     1      33.444 -12.497 -23.638  0.00  0.00    +0.232 C 
BRANCH  12  13
ATOM     13  C   UNL     1      34.142 -11.436 -24.486  0.00  0.00    +0.133 C 
BRANCH  13  14
ATOM     14  O   UNL     1      33.725 -11.590 -25.845  0.00  0.00    -0.383 OA
ATOM     15  H   UNL     1      32.760 -11.510 -25.899  0.00  0.00    +0.210 HD
ENDBRANCH  13  14
BRANCH  13  16
ATOM     16  C   UNL     1      33.820 -10.005 -24.047  0.00  0.00    -0.048 C 
BRANCH  16  17
ATOM     17  N   UNL     1      34.987  -9.135 -24.122  0.00  0.00    +0.387 N 
ATOM     18  H   UNL     1      35.250  -9.011 -25.099  0.00  0.00    -0.084 HD
ATOM     19  H   UNL     1      35.748  -9.567 -23.598  0.00  0.00    -0.084 HD
BRANCH  17  20
ATOM     20  C   UNL     1      34.702  -7.831 -23.537  0.00  0.00    -0.062 C 
ATOM     21  C   UNL     1      33.507  -7.924 -22.592  0.00  0.00    -0.023 C 
ATOM     22  C   UNL     1      34.442  -6.821 -24.651  0.00  0.00    -0.023 C 
ENDBRANCH  17  20
ENDBRANCH  16  17
ENDBRANCH  13  16
ENDBRANCH  12  13
ENDBRANCH   1  12
TORSDOF 7
ENDMDL
MODEL 5
REMARK VINA RESULT:      -7.8      8.665     11.229
REMARK  Name = 4946
REMARK  7 active torsions:
REMARK  status: ('A' for Active; 'I' for Inactive)
REMARK    1  A    between atoms: O_1  and  C_2
REMARK    2  A    between atoms: O_1  and  C_12
REMARK    3  A    between atoms: C_12  and  C_13
REMARK    4  A    between atoms: C_13  and  O_14
REMARK    5  A    between atoms: C_13  and  C_16
REMARK    6  A    between atoms: C_16  and  N_17
REMARK    7  A    between atoms: N_17  and  C_20
REMARK                            x       y       z     vdW  Elec       q    Type
REMARK                         _______ _______ _______ _____ _____    ______ ____
ROOT
ATOM      1  O   UNL     1      34.584 -24.323 -13.156  0.00  0.00    -0.473 OA
ENDROOT
BRANCH   1   2
ATOM      2  C   UNL     1      34.104 -23.926 -14.372  0.00  0.00    +0.139 C 
ATOM      3  C   UNL     1      32.725 -23.881 -14.635  0.00  0.00    +0.034 C 
ATOM      4  C   UNL     1      32.278 -23.464 -15.911  0.00  0.00    +0.003 C 
ATOM      5  C   UNL     1      35.028 -23.565 -15.353  0.00  0.00    +0.037 C 
ATOM      6  C   UNL     1      31.781 -24.242 -13.660  0.00  0.00    +0.003 C 
ATOM      7  C   UNL     1      33.222 -23.103 -16.886  0.00  0.00    +0.000 C 
ATOM      8  C   UNL     1      34.588 -23.154 -16.608  0.00  0.00    +0.003 C 
ATOM      9  C   UNL     1      30.899 -23.419 -16.174  0.00  0.00    +0.000 C 
ATOM     10  C   UNL     1      30.415 -24.191 -13.939  0.00  0.00    +0.000 C 
ATOM     11  C   UNL     1      29.975 -23.781 -15.194  0.00  0.00    +0.000 C 
ENDBRANCH   1   2
BRANCH   1  12
ATOM     12  C   UNL     1      35.680 -23.586 -12.623  0.00  0.00    +0.232 C 
BRANCH  12  13
ATOM     13  C   UNL     1      36.368 -24.429 -11.552  0.00  0.00    +0.133 C 
BRANCH  13  14
ATOM     14  O   UNL     1      35.371 -25.162 -10.836  0.00  0.00    -0.383 OA
ATOM     15  H   UNL     1      34.686 -25.463 -11.453  0.00  0.00    +0.210 HD
ENDBRANCH  13  14
BRANCH  13  16
ATOM     16  C   UNL     1      37.377 -25.428 -12.125  0.00  0.00    -0.048 C 
BRANCH  16  17
ATOM     17  N   UNL     1      36.766 -26.324 -13.098  0.00  0.00    +0.387 N 
ATOM     18  H   UNL     1      35.868 -25.938 -13.391  0.00  0.00    -0.084 HD
ATOM     19  H   UNL     1      36.638 -27.238 -12.664  0.00  0.00    -0.084 HD
BRANCH  17  20
ATOM     20  C   UNL     1      37.620 -26.481 -14.268  0.00  0.00    -0.062 C 
ATOM     21  C   UNL     1      38.429 -25.209 -14.508  0.00  0.00    -0.023 C 
ATOM     22  C   UNL     1      36.761 -26.821 -15.482  0.00  0.00    -0.023 C 
ENDBRANCH  17  20
ENDBRANCH  16  17
ENDBRANCH  13  16
ENDBRANCH  12  13
ENDBRANCH   1  12
TORSDOF 7
ENDMDL
MODEL 6
REMARK VINA RESULT:      -7.8      6.042      8.985
REMARK  Name = 4946
REMARK  7 active torsions:
REMARK  status: ('A' for Active; 'I' for Inactive)
REMARK    1  A    between atoms: O_1  and  C_2
REMARK    2  A    between atoms: O_1  and  C_12
REMARK    3  A    between atoms: C_12  and  C_13
REMARK    4  A    between atoms: C_13  and  O_14
REMARK    5  A    between atoms: C_13  and  C_16
REMARK    6  A    between atoms: C_16  and  N_17
REMARK    7  A    between atoms: N_17  and  C_20
REMARK                            x       y       z     vdW  Elec       q    Type
REMARK                         _______ _______ _______ _____ _____    ______ ____
ROOT
ATOM      1  O   UNL     1      33.662 -23.770 -15.746  0.00  0.00    -0.473 OA
ENDROOT
BRANCH   1   2
ATOM      2  C   UNL     1      34.813 -23.170 -16.174  0.00  0.00    +0.139 C 
ATOM      3  C   UNL     1      34.886 -22.541 -17.428  0.00  0.00    +0.034 C 
ATOM      4  C   UNL     1      36.101 -21.934 -17.826  0.00  0.00    +0.003 C 
ATOM      5  C   UNL     1      35.920 -23.201 -15.327  0.00  0.00    +0.037 C 
ATOM      6  C   UNL     1      33.781 -22.501 -18.294  0.00  0.00    +0.003 C 
ATOM      7  C   UNL     1      37.206 -21.975 -16.960  0.00  0.00    +0.000 C 
ATOM      8  C   UNL     1      37.115 -22.604 -15.719  0.00  0.00    +0.003 C 
ATOM      9  C   UNL     1      36.175 -21.305 -19.080  0.00  0.00    +0.000 C 
ATOM     10  C   UNL     1      33.872 -21.871 -19.535  0.00  0.00    +0.000 C 
ATOM     11  C   UNL     1      35.068 -21.275 -19.927  0.00  0.00    +0.000 C 
ENDBRANCH   1   2
BRANCH   1  12
ATOM     12  C   UNL     1      33.569 -24.070 -14.357  0.00  0.00    +0.232 C 
BRANCH  12  13
ATOM     13  C   UNL     1      32.190 -23.655 -13.852  0.00  0.00    +0.133 C 
BRANCH  13  14
ATOM     14  O   UNL     1      32.354 -22.874 -12.665  0.00  0.00    -0.383 OA
ATOM     15  H   UNL     1      31.705 -23.156 -12.001  0.00  0.00    +0.210 HD
ENDBRANCH  13  14
BRANCH  13  16
ATOM     16  C   UNL     1      31.401 -22.823 -14.866  0.00  0.00    -0.048 C 
BRANCH  16  17
ATOM     17  N   UNL     1      30.698 -23.659 -15.830  0.00  0.00    +0.387 N 
ATOM     18  H   UNL     1      31.110 -24.591 -15.828  0.00  0.00    -0.084 HD
ATOM     19  H   UNL     1      30.782 -23.233 -16.753  0.00  0.00    -0.084 HD
BRANCH  17  20
ATOM     20  C   UNL     1      29.284 -23.764 -15.495  0.00  0.00    -0.062 C 
ATOM     21  C   UNL     1      28.995 -25.107 -14.831  0.00  0.00    -0.023 C 
ATOM     22  C   UNL     1      28.447 -23.586 -16.759  0.00  0.00    -0.023 C 
ENDBRANCH  17  20
ENDBRANCH  16  17
ENDBRANCH  13  16
ENDBRANCH  12  13
ENDBRANCH   1  12
TORSDOF 7
ENDMDL
MODEL 7
REMARK VINA RESULT:      -7.7      3.281      5.287
REMARK  Name = 4946
REMARK  7 active torsions:
REMARK  status: ('A' for Active; 'I' for Inactive)
REMARK    1  A    between atoms: O_1  and  C_2
REMARK    2  A    between atoms: O_1  and  C_12
REMARK    3  A    between atoms: C_12  and  C_13
REMARK    4  A    between atoms: C_13  and  O_14
REMARK    5  A    between atoms: C_13  and  C_16
REMARK    6  A    between atoms: C_16  and  N_17
REMARK    7  A    between atoms: N_17  and  C_20
REMARK                            x       y       z     vdW  Elec       q    Type
REMARK                         _______ _______ _______ _____ _____    ______ ____
ROOT
ATOM      1  O   UNL     1      32.896 -13.585 -24.426  0.00  0.00    -0.473 OA
ENDROOT
BRANCH   1   2
ATOM      2  C   UNL     1      33.515 -14.797 -24.307  0.00  0.00    +0.139 C 
ATOM      3  C   UNL     1      33.946 -15.277 -23.059  0.00  0.00    +0.034 C 
ATOM      4  C   UNL     1      34.583 -16.539 -22.987  0.00  0.00    +0.003 C 
ATOM      5  C   UNL     1      33.707 -15.550 -25.465  0.00  0.00    +0.037 C 
ATOM      6  C   UNL     1      33.762 -14.533 -21.883  0.00  0.00    +0.003 C 
ATOM      7  C   UNL     1      34.768 -17.284 -24.164  0.00  0.00    +0.000 C 
ATOM      8  C   UNL     1      34.333 -16.791 -25.394  0.00  0.00    +0.003 C 
ATOM      9  C   UNL     1      35.016 -17.019 -21.741  0.00  0.00    +0.000 C 
ATOM     10  C   UNL     1      34.197 -15.026 -20.653  0.00  0.00    +0.000 C 
ATOM     11  C   UNL     1      34.824 -16.267 -20.582  0.00  0.00    +0.000 C 
ENDBRANCH   1   2
BRANCH   1  12
ATOM     12  C   UNL     1      33.588 -12.577 -25.156  0.00  0.00    +0.232 C 
BRANCH  12  13
ATOM     13  C   UNL     1      34.120 -11.534 -24.177  0.00  0.00    +0.133 C 
BRANCH  13  14
ATOM     14  O   UNL     1      35.044 -10.687 -24.866  0.00  0.00    -0.383 OA
ATOM     15  H   UNL     1      35.311 -11.111 -25.697  0.00  0.00    +0.210 HD
ENDBRANCH  13  14
BRANCH  13  16
ATOM     16  C   UNL     1      33.021 -10.652 -23.577  0.00  0.00    -0.048 C 
BRANCH  16  17
ATOM     17  N   UNL     1      32.190 -11.383 -22.629  0.00  0.00    +0.387 N 
ATOM     18  H   UNL     1      32.790 -11.926 -22.009  0.00  0.00    -0.084 HD
ATOM     19  H   UNL     1      31.565 -11.997 -23.151  0.00  0.00    -0.084 HD
BRANCH  17  20
ATOM     20  C   UNL     1      31.383 -10.469 -21.832  0.00  0.00    -0.062 C 
ATOM     21  C   UNL     1      32.161  -9.187 -21.547  0.00  0.00    -0.023 C 
ATOM     22  C   UNL     1      30.969 -11.158 -20.534  0.00  0.00    -0.023 C 
ENDBRANCH  17  20
ENDBRANCH  16  17
ENDBRANCH  13  16
ENDBRANCH  12  13
ENDBRANCH   1  12
TORSDOF 7
ENDMDL
MODEL 8
REMARK VINA RESULT:      -7.6      2.944      4.706
REMARK  Name = 4946
REMARK  7 active torsions:
REMARK  status: ('A' for Active; 'I' for Inactive)
REMARK    1  A    between atoms: O_1  and  C_2
REMARK    2  A    between atoms: O_1  and  C_12
REMARK    3  A    between atoms: C_12  and  C_13
REMARK    4  A    between atoms: C_13  and  O_14
REMARK    5  A    between atoms: C_13  and  C_16
REMARK    6  A    between atoms: C_16  and  N_17
REMARK    7  A    between atoms: N_17  and  C_20
REMARK                            x       y       z     vdW  Elec       q    Type
REMARK                         _______ _______ _______ _____ _____    ______ ____
ROOT
ATOM      1  O   UNL     1      34.382 -14.564 -22.594  0.00  0.00    -0.473 OA
ENDROOT
BRANCH   1   2
ATOM      2  C   UNL     1      34.392 -15.681 -23.380  0.00  0.00    +0.139 C 
ATOM      3  C   UNL     1      34.697 -16.945 -22.848  0.00  0.00    +0.034 C 
ATOM      4  C   UNL     1      34.695 -18.073 -23.703  0.00  0.00    +0.003 C 
ATOM      5  C   UNL     1      34.089 -15.532 -24.733  0.00  0.00    +0.037 C 
ATOM      6  C   UNL     1      35.006 -17.114 -21.489  0.00  0.00    +0.003 C 
ATOM      7  C   UNL     1      34.387 -17.904 -25.063  0.00  0.00    +0.000 C 
ATOM      8  C   UNL     1      34.086 -16.641 -25.574  0.00  0.00    +0.003 C 
ATOM      9  C   UNL     1      35.001 -19.337 -23.172  0.00  0.00    +0.000 C 
ATOM     10  C   UNL     1      35.307 -18.377 -20.979  0.00  0.00    +0.000 C 
ATOM     11  C   UNL     1      35.305 -19.486 -21.820  0.00  0.00    +0.000 C 
ENDBRANCH   1   2
BRANCH   1  12
ATOM     12  C   UNL     1      33.673 -13.433 -23.091  0.00  0.00    +0.232 C 
BRANCH  12  13
ATOM     13  C   UNL     1      32.373 -13.279 -22.304  0.00  0.00    +0.133 C 
BRANCH  13  14
ATOM     14  O   UNL     1      32.593 -13.729 -20.965  0.00  0.00    -0.383 OA
ATOM     15  H   UNL     1      33.160 -13.095 -20.500  0.00  0.00    +0.210 HD
ENDBRANCH  13  14
BRANCH  13  16
ATOM     16  C   UNL     1      31.869 -11.835 -22.247  0.00  0.00    -0.048 C 
BRANCH  16  17
ATOM     17  N   UNL     1      30.773 -11.676 -21.300  0.00  0.00    +0.387 N 
ATOM     18  H   UNL     1      30.717 -12.507 -20.710  0.00  0.00    -0.084 HD
ATOM     19  H   UNL     1      29.907 -11.550 -21.822  0.00  0.00    -0.084 HD
BRANCH  17  20
ATOM     20  C   UNL     1      30.980 -10.507 -20.456  0.00  0.00    -0.062 C 
ATOM     21  C   UNL     1      31.986  -9.559 -21.102  0.00  0.00    -0.023 C 
ATOM     22  C   UNL     1      31.456 -10.954 -19.076  0.00  0.00    -0.023 C 
ENDBRANCH  17  20
ENDBRANCH  16  17
ENDBRANCH  13  16
ENDBRANCH  12  13
ENDBRANCH   1  12
TORSDOF 7
ENDMDL
MODEL 9
REMARK VINA RESULT:      -7.6      7.372     10.536
REMARK  Name = 4946
REMARK  7 active torsions:
REMARK  status: ('A' for Active; 'I' for Inactive)
REMARK    1  A    between atoms: O_1  and  C_2
REMARK    2  A    between atoms: O_1  and  C_12
REMARK    3  A    between atoms: C_12  and  C_13
REMARK    4  A    between atoms: C_13  and  O_14
REMARK    5  A    between atoms: C_13  and  C_16
REMARK    6  A    between atoms: C_16  and  N_17
REMARK    7  A    between atoms: N_17  and  C_20
REMARK                            x       y       z     vdW  Elec       q    Type
REMARK                         _______ _______ _______ _____ _____    ______ ____
ROOT
ATOM      1  O   UNL     1      35.464 -23.681 -13.988  0.00  0.00    -0.473 OA
ENDROOT
BRANCH   1   2
ATOM      2  C   UNL     1      35.878 -23.104 -15.156  0.00  0.00    +0.139 C 
ATOM      3  C   UNL     1      35.003 -22.947 -16.243  0.00  0.00    +0.034 C 
ATOM      4  C   UNL     1      35.479 -22.344 -17.431  0.00  0.00    +0.003 C 
ATOM      5  C   UNL     1      37.202 -22.674 -15.238  0.00  0.00    +0.037 C 
ATOM      6  C   UNL     1      33.667 -23.375 -16.177  0.00  0.00    +0.003 C 
ATOM      7  C   UNL     1      36.816 -21.916 -17.497  0.00  0.00    +0.000 C 
ATOM      8  C   UNL     1      37.670 -22.080 -16.407  0.00  0.00    +0.003 C 
ATOM      9  C   UNL     1      34.605 -22.187 -18.519  0.00  0.00    +0.000 C 
ATOM     10  C   UNL     1      32.813 -23.211 -17.267  0.00  0.00    +0.000 C 
ATOM     11  C   UNL     1      33.281 -22.618 -18.436  0.00  0.00    +0.000 C 
ENDBRANCH   1   2
BRANCH   1  12
ATOM     12  C   UNL     1      36.194 -23.350 -12.811  0.00  0.00    +0.232 C 
BRANCH  12  13
ATOM     13  C   UNL     1      36.270 -24.582 -11.913  0.00  0.00    +0.133 C 
BRANCH  13  14
ATOM     14  O   UNL     1      34.951 -25.106 -11.741  0.00  0.00    -0.383 OA
ATOM     15  H   UNL     1      34.322 -24.374 -11.644  0.00  0.00    +0.210 HD
ENDBRANCH  13  14
BRANCH  13  16
ATOM     16  C   UNL     1      37.155 -25.693 -12.485  0.00  0.00    -0.048 C 
BRANCH  16  17
ATOM     17  N   UNL     1      38.492 -25.215 -12.808  0.00  0.00    +0.387 N 
ATOM     18  H   UNL     1      39.169 -25.683 -12.207  0.00  0.00    -0.084 HD
ATOM     19  H   UNL     1      38.521 -24.207 -12.662  0.00  0.00    -0.084 HD
BRANCH  17  20
ATOM     20  C   UNL     1      38.822 -25.492 -14.200  0.00  0.00    -0.062 C 
ATOM     21  C   UNL     1      37.865 -26.534 -14.773  0.00  0.00    -0.023 C 
ATOM     22  C   UNL     1      40.269 -25.967 -14.295  0.00  0.00    -0.023 C 
ENDBRANCH  17  20
ENDBRANCH  16  17
ENDBRANCH  13  16
ENDBRANCH  12  13
ENDBRANCH   1  12
TORSDOF 7
ENDMDL
