MODEL 1
REMARK VINA RESULT:      -9.0      0.000      0.000
REMARK  Name = 17754173
REMARK  7 active torsions:
REMARK  status: ('A' for Active; 'I' for Inactive)
REMARK    1  A    between atoms: N_1  and  S_12
REMARK    2  A    between atoms: C_2  and  C_8
REMARK    3  A    between atoms: C_3  and  N_23
REMARK    4  A    between atoms: N_7  and  O_10
REMARK    5  A    between atoms: S_12  and  C_15
REMARK    6  A    between atoms: C_20  and  O_21
REMARK    7  A    between atoms: N_23  and  O_25
REMARK                            x       y       z     vdW  Elec       q    Type
REMARK                         _______ _______ _______ _____ _____    ______ ____
ROOT
ATOM      1  N   UNL     1      34.563 -17.285 -22.888  0.00  0.00    -0.147 NA
ATOM      2  C   UNL     1      34.893 -16.225 -23.883  0.00  0.00    +0.159 C 
ATOM      3  C   UNL     1      33.571 -15.275 -22.122  0.00  0.00    +0.100 C 
ATOM      4  C   UNL     1      34.592 -14.898 -23.191  0.00  0.00    +0.047 C 
ATOM      5  C   UNL     1      34.094 -16.624 -21.636  0.00  0.00    +0.114 C 
ENDROOT
BRANCH   2   8
ATOM      6  O   UNL     1      33.837 -17.615 -25.496  0.00  0.00    -0.272 OA
ATOM      7  N   UNL     1      33.385 -15.348 -25.515  0.00  0.00    -0.196 N 
ATOM      8  C   UNL     1      33.993 -16.482 -25.045  0.00  0.00    +0.261 C 
ATOM      9  H   UNL     1      33.547 -14.463 -25.115  0.00  0.00    +0.182 HD
BRANCH   7  10
ATOM     10  O   UNL     1      32.516 -15.527 -26.601  0.00  0.00    -0.295 OA
ATOM     11  H   UNL     1      31.786 -16.109 -26.338  0.00  0.00    +0.241 HD
ENDBRANCH   7  10
ENDBRANCH   2   8
BRANCH   1  12
ATOM     12  S   UNL     1      35.639 -18.592 -22.728  0.00  0.00    +0.064 S 
ATOM     13  O   UNL     1      36.863 -18.136 -22.095  0.00  0.00    -0.153 OA
ATOM     14  O   UNL     1      35.686 -19.332 -23.975  0.00  0.00    -0.153 OA
BRANCH  12  15
ATOM     15  C   UNL     1      34.767 -19.581 -21.551  0.00  0.00    +0.122 C 
ATOM     16  C   UNL     1      33.374 -19.543 -21.504  0.00  0.00    +0.023 C 
ATOM     17  C   UNL     1      35.473 -20.401 -20.670  0.00  0.00    +0.023 C 
ATOM     18  C   UNL     1      32.686 -20.325 -20.576  0.00  0.00    +0.038 C 
ATOM     19  C   UNL     1      34.786 -21.183 -19.743  0.00  0.00    +0.038 C 
ATOM     20  C   UNL     1      33.392 -21.145 -19.695  0.00  0.00    +0.139 C 
BRANCH  20  21
ATOM     21  O   UNL     1      32.721 -21.908 -18.790  0.00  0.00    -0.471 OA
ATOM     22  C   UNL     1      33.491 -22.830 -18.019  0.00  0.00    +0.252 C 
ENDBRANCH  20  21
ENDBRANCH  12  15
ENDBRANCH   1  12
BRANCH   3  23
ATOM     23  N   UNL     1      33.467 -14.283 -21.065  0.00  0.00    -0.190 NA
ATOM     24  H   UNL     1      33.696 -14.696 -20.161  0.00  0.00    +0.155 HD
BRANCH  23  25
ATOM     25  O   UNL     1      32.075 -13.854 -21.095  0.00  0.00    -0.283 OA
ATOM     26  C   UNL     1      32.019 -12.619 -21.795  0.00  0.00    +0.200 C 
ENDBRANCH  23  25
ENDBRANCH   3  23
TORSDOF 7
ENDMDL
MODEL 2
REMARK VINA RESULT:      -8.8      6.940     10.608
REMARK  Name = 17754173
REMARK  7 active torsions:
REMARK  status: ('A' for Active; 'I' for Inactive)
REMARK    1  A    between atoms: N_1  and  S_12
REMARK    2  A    between atoms: C_2  and  C_8
REMARK    3  A    between atoms: C_3  and  N_23
REMARK    4  A    between atoms: N_7  and  O_10
REMARK    5  A    between atoms: S_12  and  C_15
REMARK    6  A    between atoms: C_20  and  O_21
REMARK    7  A    between atoms: N_23  and  O_25
REMARK                            x       y       z     vdW  Elec       q    Type
REMARK                         _______ _______ _______ _____ _____    ______ ____
ROOT
ATOM      1  N   UNL     1      33.223 -24.121 -15.008  0.00  0.00    -0.147 NA
ATOM      2  C   UNL     1      34.565 -23.631 -14.584  0.00  0.00    +0.159 C 
ATOM      3  C   UNL     1      34.333 -23.358 -16.955  0.00  0.00    +0.100 C 
ATOM      4  C   UNL     1      35.093 -22.805 -15.753  0.00  0.00    +0.047 C 
ATOM      5  C   UNL     1      32.942 -23.598 -16.376  0.00  0.00    +0.114 C 
ENDROOT
BRANCH   2   8
ATOM      6  O   UNL     1      35.700 -25.607 -15.262  0.00  0.00    -0.272 OA
ATOM      7  N   UNL     1      35.697 -25.039 -13.020  0.00  0.00    -0.196 N 
ATOM      8  C   UNL     1      35.374 -24.862 -14.340  0.00  0.00    +0.261 C 
ATOM      9  H   UNL     1      35.408 -24.409 -12.321  0.00  0.00    +0.182 HD
BRANCH   7  10
ATOM     10  O   UNL     1      36.467 -26.174 -12.729  0.00  0.00    -0.295 OA
ATOM     11  H   UNL     1      37.395 -25.914 -12.615  0.00  0.00    +0.241 HD
ENDBRANCH   7  10
ENDBRANCH   2   8
BRANCH   1  12
ATOM     12  S   UNL     1      31.957 -24.062 -13.873  0.00  0.00    +0.064 S 
ATOM     13  O   UNL     1      32.081 -22.860 -13.071  0.00  0.00    -0.153 OA
ATOM     14  O   UNL     1      31.819 -25.360 -13.238  0.00  0.00    -0.153 OA
BRANCH  12  15
ATOM     15  C   UNL     1      30.572 -23.845 -14.950  0.00  0.00    +0.122 C 
ATOM     16  C   UNL     1      30.092 -22.563 -15.218  0.00  0.00    +0.023 C 
ATOM     17  C   UNL     1      29.962 -24.955 -15.533  0.00  0.00    +0.023 C 
ATOM     18  C   UNL     1      29.000 -22.392 -16.068  0.00  0.00    +0.038 C 
ATOM     19  C   UNL     1      28.870 -24.784 -16.384  0.00  0.00    +0.038 C 
ATOM     20  C   UNL     1      28.389 -23.502 -16.651  0.00  0.00    +0.139 C 
BRANCH  20  21
ATOM     21  O   UNL     1      27.323 -23.335 -17.481  0.00  0.00    -0.471 OA
ATOM     22  C   UNL     1      26.786 -22.017 -17.592  0.00  0.00    +0.252 C 
ENDBRANCH  20  21
ENDBRANCH  12  15
ENDBRANCH   1  12
BRANCH   3  23
ATOM     23  N   UNL     1      34.336 -22.452 -18.091  0.00  0.00    -0.190 NA
ATOM     24  H   UNL     1      33.806 -22.847 -18.867  0.00  0.00    +0.155 HD
BRANCH  23  25
ATOM     25  O   UNL     1      35.742 -22.309 -18.449  0.00  0.00    -0.283 OA
ATOM     26  C   UNL     1      35.822 -21.380 -19.521  0.00  0.00    +0.200 C 
ENDBRANCH  23  25
ENDBRANCH   3  23
TORSDOF 7
ENDMDL
MODEL 3
REMARK VINA RESULT:      -8.8      7.013     11.100
REMARK  Name = 17754173
REMARK  7 active torsions:
REMARK  status: ('A' for Active; 'I' for Inactive)
REMARK    1  A    between atoms: N_1  and  S_12
REMARK    2  A    between atoms: C_2  and  C_8
REMARK    3  A    between atoms: C_3  and  N_23
REMARK    4  A    between atoms: N_7  and  O_10
REMARK    5  A    between atoms: S_12  and  C_15
REMARK    6  A    between atoms: C_20  and  O_21
REMARK    7  A    between atoms: N_23  and  O_25
REMARK                            x       y       z     vdW  Elec       q    Type
REMARK                         _______ _______ _______ _____ _____    ______ ____
ROOT
ATOM      1  N   UNL     1      36.490 -23.860 -14.446  0.00  0.00    -0.147 NA
ATOM      2  C   UNL     1      37.422 -24.969 -14.091  0.00  0.00    +0.159 C 
ATOM      3  C   UNL     1      37.493 -23.293 -12.377  0.00  0.00    +0.100 C 
ATOM      4  C   UNL     1      37.748 -24.778 -12.613  0.00  0.00    +0.047 C 
ATOM      5  C   UNL     1      36.250 -23.039 -13.225  0.00  0.00    +0.114 C 
ENDROOT
BRANCH   2   8
ATOM      6  O   UNL     1      38.911 -23.671 -15.414  0.00  0.00    -0.272 OA
ATOM      7  N   UNL     1      39.303 -25.939 -15.199  0.00  0.00    -0.196 N 
ATOM      8  C   UNL     1      38.613 -24.778 -14.970  0.00  0.00    +0.261 C 
ATOM      9  H   UNL     1      39.017 -26.801 -14.818  0.00  0.00    +0.182 HD
BRANCH   7  10
ATOM     10  O   UNL     1      40.440 -25.822 -16.010  0.00  0.00    -0.295 OA
ATOM     11  H   UNL     1      40.275 -25.167 -16.706  0.00  0.00    +0.241 HD
ENDBRANCH   7  10
ENDBRANCH   2   8
BRANCH   1  12
ATOM     12  S   UNL     1      35.144 -24.229 -15.418  0.00  0.00    +0.064 S 
ATOM     13  O   UNL     1      33.928 -23.829 -14.735  0.00  0.00    -0.153 OA
ATOM     14  O   UNL     1      35.285 -25.575 -15.943  0.00  0.00    -0.153 OA
BRANCH  12  15
ATOM     15  C   UNL     1      35.398 -23.104 -16.757  0.00  0.00    +0.122 C 
ATOM     16  C   UNL     1      34.428 -22.971 -17.750  0.00  0.00    +0.023 C 
ATOM     17  C   UNL     1      36.569 -22.347 -16.819  0.00  0.00    +0.023 C 
ATOM     18  C   UNL     1      34.628 -22.082 -18.806  0.00  0.00    +0.038 C 
ATOM     19  C   UNL     1      36.769 -21.457 -17.874  0.00  0.00    +0.038 C 
ATOM     20  C   UNL     1      35.799 -21.325 -18.868  0.00  0.00    +0.139 C 
BRANCH  20  21
ATOM     21  O   UNL     1      35.994 -20.458 -19.898  0.00  0.00    -0.471 OA
ATOM     22  C   UNL     1      34.854 -20.116 -20.685  0.00  0.00    +0.252 C 
ENDBRANCH  20  21
ENDBRANCH  12  15
ENDBRANCH   1  12
BRANCH   3  23
ATOM     23  N   UNL     1      37.310 -22.966 -10.974  0.00  0.00    -0.190 NA
ATOM     24  H   UNL     1      38.193 -22.672 -10.555  0.00  0.00    +0.155 HD
BRANCH  23  25
ATOM     25  O   UNL     1      36.839 -24.202 -10.363  0.00  0.00    -0.283 OA
ATOM     26  C   UNL     1      35.432 -24.094 -10.199  0.00  0.00    +0.200 C 
ENDBRANCH  23  25
ENDBRANCH   3  23
TORSDOF 7
ENDMDL
MODEL 4
REMARK VINA RESULT:      -8.7      9.363     12.055
REMARK  Name = 17754173
REMARK  7 active torsions:
REMARK  status: ('A' for Active; 'I' for Inactive)
REMARK    1  A    between atoms: N_1  and  S_12
REMARK    2  A    between atoms: C_2  and  C_8
REMARK    3  A    between atoms: C_3  and  N_23
REMARK    4  A    between atoms: N_7  and  O_10
REMARK    5  A    between atoms: S_12  and  C_15
REMARK    6  A    between atoms: C_20  and  O_21
REMARK    7  A    between atoms: N_23  and  O_25
REMARK                            x       y       z     vdW  Elec       q    Type
REMARK                         _______ _______ _______ _____ _____    ______ ____
ROOT
ATOM      1  N   UNL     1      35.795 -24.366 -14.331  0.00  0.00    -0.147 NA
ATOM      2  C   UNL     1      36.752 -23.840 -13.316  0.00  0.00    +0.159 C 
ATOM      3  C   UNL     1      37.356 -26.090 -13.884  0.00  0.00    +0.100 C 
ATOM      4  C   UNL     1      37.943 -24.793 -13.337  0.00  0.00    +0.047 C 
ATOM      5  C   UNL     1      36.392 -25.583 -14.953  0.00  0.00    +0.114 C 
ENDROOT
BRANCH   2   8
ATOM      6  O   UNL     1      34.784 -23.806 -11.984  0.00  0.00    -0.272 OA
ATOM      7  N   UNL     1      36.835 -24.001 -10.934  0.00  0.00    -0.196 N 
ATOM      8  C   UNL     1      36.010 -23.876 -12.022  0.00  0.00    +0.261 C 
ATOM      9  H   UNL     1      37.814 -24.052 -11.023  0.00  0.00    +0.182 HD
BRANCH   7  10
ATOM     10  O   UNL     1      36.195 -24.052  -9.688  0.00  0.00    -0.295 OA
ATOM     11  H   UNL     1      36.854 -23.957  -8.983  0.00  0.00    +0.241 HD
ENDBRANCH   7  10
ENDBRANCH   2   8
BRANCH   1  12
ATOM     12  S   UNL     1      35.037 -23.250 -15.367  0.00  0.00    +0.064 S 
ATOM     13  O   UNL     1      35.398 -23.542 -16.742  0.00  0.00    -0.153 OA
ATOM     14  O   UNL     1      35.198 -21.911 -14.832  0.00  0.00    -0.153 OA
BRANCH  12  15
ATOM     15  C   UNL     1      33.344 -23.712 -15.151  0.00  0.00    +0.122 C 
ATOM     16  C   UNL     1      32.364 -23.181 -15.987  0.00  0.00    +0.023 C 
ATOM     17  C   UNL     1      32.990 -24.611 -14.143  0.00  0.00    +0.023 C 
ATOM     18  C   UNL     1      31.029 -23.546 -15.817  0.00  0.00    +0.038 C 
ATOM     19  C   UNL     1      31.655 -24.976 -13.973  0.00  0.00    +0.038 C 
ATOM     20  C   UNL     1      30.675 -24.445 -14.810  0.00  0.00    +0.139 C 
BRANCH  20  21
ATOM     21  O   UNL     1      29.372 -24.801 -14.644  0.00  0.00    -0.471 OA
ATOM     22  C   UNL     1      28.456 -24.414 -15.668  0.00  0.00    +0.252 C 
ENDBRANCH  20  21
ENDBRANCH  12  15
ENDBRANCH   1  12
BRANCH   3  23
ATOM     23  N   UNL     1      38.368 -26.994 -14.403  0.00  0.00    -0.190 NA
ATOM     24  H   UNL     1      38.834 -27.487 -13.642  0.00  0.00    +0.155 HD
BRANCH  23  25
ATOM     25  O   UNL     1      39.309 -26.133 -15.108  0.00  0.00    -0.283 OA
ATOM     26  C   UNL     1      40.596 -26.350 -14.547  0.00  0.00    +0.200 C 
ENDBRANCH  23  25
ENDBRANCH   3  23
TORSDOF 7
ENDMDL
MODEL 5
REMARK VINA RESULT:      -8.4      6.974     11.291
REMARK  Name = 17754173
REMARK  7 active torsions:
REMARK  status: ('A' for Active; 'I' for Inactive)
REMARK    1  A    between atoms: N_1  and  S_12
REMARK    2  A    between atoms: C_2  and  C_8
REMARK    3  A    between atoms: C_3  and  N_23
REMARK    4  A    between atoms: N_7  and  O_10
REMARK    5  A    between atoms: S_12  and  C_15
REMARK    6  A    between atoms: C_20  and  O_21
REMARK    7  A    between atoms: N_23  and  O_25
REMARK                            x       y       z     vdW  Elec       q    Type
REMARK                         _______ _______ _______ _____ _____    ______ ____
ROOT
ATOM      1  N   UNL     1      36.226 -24.378 -14.359  0.00  0.00    -0.147 NA
ATOM      2  C   UNL     1      36.429 -25.733 -13.772  0.00  0.00    +0.159 C 
ATOM      3  C   UNL     1      38.029 -24.214 -12.833  0.00  0.00    +0.100 C 
ATOM      4  C   UNL     1      37.306 -25.524 -12.541  0.00  0.00    +0.047 C 
ATOM      5  C   UNL     1      36.939 -23.384 -13.506  0.00  0.00    +0.114 C 
ENDROOT
BRANCH   2   8
ATOM      6  O   UNL     1      38.324 -26.739 -14.795  0.00  0.00    -0.272 OA
ATOM      7  N   UNL     1      36.261 -26.963 -15.814  0.00  0.00    -0.196 N 
ATOM      8  C   UNL     1      37.115 -26.523 -14.837  0.00  0.00    +0.261 C 
ATOM      9  H   UNL     1      35.297 -26.759 -15.797  0.00  0.00    +0.182 HD
BRANCH   7  10
ATOM     10  O   UNL     1      36.845 -27.722 -16.837  0.00  0.00    -0.295 OA
ATOM     11  H   UNL     1      37.739 -27.987 -16.572  0.00  0.00    +0.241 HD
ENDBRANCH   7  10
ENDBRANCH   2   8
BRANCH   1  12
ATOM     12  S   UNL     1      34.666 -23.968 -14.899  0.00  0.00    +0.064 S 
ATOM     13  O   UNL     1      34.076 -23.004 -13.989  0.00  0.00    -0.153 OA
ATOM     14  O   UNL     1      33.947 -25.177 -15.257  0.00  0.00    -0.153 OA
BRANCH  12  15
ATOM     15  C   UNL     1      35.059 -23.117 -16.397  0.00  0.00    +0.122 C 
ATOM     16  C   UNL     1      36.300 -22.499 -16.543  0.00  0.00    +0.023 C 
ATOM     17  C   UNL     1      34.127 -23.064 -17.434  0.00  0.00    +0.023 C 
ATOM     18  C   UNL     1      36.611 -21.828 -17.725  0.00  0.00    +0.038 C 
ATOM     19  C   UNL     1      34.437 -22.394 -18.617  0.00  0.00    +0.038 C 
ATOM     20  C   UNL     1      35.679 -21.776 -18.763  0.00  0.00    +0.139 C 
BRANCH  20  21
ATOM     21  O   UNL     1      35.982 -21.121 -19.916  0.00  0.00    -0.471 OA
ATOM     22  C   UNL     1      34.982 -20.256 -20.454  0.00  0.00    +0.252 C 
ENDBRANCH  20  21
ENDBRANCH  12  15
ENDBRANCH   1  12
BRANCH   3  23
ATOM     23  N   UNL     1      38.574 -23.590 -11.640  0.00  0.00    -0.190 NA
ATOM     24  H   UNL     1      38.750 -24.288 -10.917  0.00  0.00    +0.155 HD
BRANCH  23  25
ATOM     25  O   UNL     1      37.545 -22.652 -11.208  0.00  0.00    -0.283 OA
ATOM     26  C   UNL     1      36.662 -23.350 -10.340  0.00  0.00    +0.200 C 
ENDBRANCH  23  25
ENDBRANCH   3  23
TORSDOF 7
ENDMDL
MODEL 6
REMARK VINA RESULT:      -8.3      1.571      2.156
REMARK  Name = 17754173
REMARK  7 active torsions:
REMARK  status: ('A' for Active; 'I' for Inactive)
REMARK    1  A    between atoms: N_1  and  S_12
REMARK    2  A    between atoms: C_2  and  C_8
REMARK    3  A    between atoms: C_3  and  N_23
REMARK    4  A    between atoms: N_7  and  O_10
REMARK    5  A    between atoms: S_12  and  C_15
REMARK    6  A    between atoms: C_20  and  O_21
REMARK    7  A    between atoms: N_23  and  O_25
REMARK                            x       y       z     vdW  Elec       q    Type
REMARK                         _______ _______ _______ _____ _____    ______ ____
ROOT
ATOM      1  N   UNL     1      34.546 -17.056 -22.660  0.00  0.00    -0.147 NA
ATOM      2  C   UNL     1      35.050 -16.895 -24.053  0.00  0.00    +0.159 C 
ATOM      3  C   UNL     1      33.219 -15.389 -23.694  0.00  0.00    +0.100 C 
ATOM      4  C   UNL     1      34.460 -15.581 -24.558  0.00  0.00    +0.047 C 
ATOM      5  C   UNL     1      33.697 -15.876 -22.328  0.00  0.00    +0.114 C 
ENDROOT
BRANCH   2   8
ATOM      6  O   UNL     1      33.661 -17.965 -25.658  0.00  0.00    -0.272 OA
ATOM      7  N   UNL     1      35.129 -19.255 -24.422  0.00  0.00    -0.196 N 
ATOM      8  C   UNL     1      34.531 -18.080 -24.798  0.00  0.00    +0.261 C 
ATOM      9  H   UNL     1      35.822 -19.289 -23.723  0.00  0.00    +0.182 HD
BRANCH   7  10
ATOM     10  O   UNL     1      34.691 -20.404 -25.094  0.00  0.00    -0.295 OA
ATOM     11  H   UNL     1      33.874 -20.727 -24.683  0.00  0.00    +0.241 HD
ENDBRANCH   7  10
ENDBRANCH   2   8
BRANCH   1  12
ATOM     12  S   UNL     1      35.640 -17.590 -21.472  0.00  0.00    +0.064 S 
ATOM     13  O   UNL     1      35.688 -16.626 -20.388  0.00  0.00    -0.153 OA
ATOM     14  O   UNL     1      36.864 -18.038 -22.112  0.00  0.00    -0.153 OA
BRANCH  12  15
ATOM     15  C   UNL     1      34.793 -19.021 -20.877  0.00  0.00    +0.122 C 
ATOM     16  C   UNL     1      33.402 -19.089 -20.949  0.00  0.00    +0.023 C 
ATOM     17  C   UNL     1      35.516 -20.085 -20.335  0.00  0.00    +0.023 C 
ATOM     18  C   UNL     1      32.733 -20.219 -20.480  0.00  0.00    +0.038 C 
ATOM     19  C   UNL     1      34.847 -21.215 -19.866  0.00  0.00    +0.038 C 
ATOM     20  C   UNL     1      33.456 -21.283 -19.938  0.00  0.00    +0.139 C 
BRANCH  20  21
ATOM     21  O   UNL     1      32.804 -22.385 -19.480  0.00  0.00    -0.471 OA
ATOM     22  C   UNL     1      33.138 -22.841 -18.170  0.00  0.00    +0.252 C 
ENDBRANCH  20  21
ENDBRANCH  12  15
ENDBRANCH   1  12
BRANCH   3  23
ATOM     23  N   UNL     1      32.745 -14.016 -23.682  0.00  0.00    -0.190 NA
ATOM     24  H   UNL     1      31.896 -13.924 -24.241  0.00  0.00    +0.155 HD
BRANCH  23  25
ATOM     25  O   UNL     1      33.831 -13.243 -24.270  0.00  0.00    -0.283 OA
ATOM     26  C   UNL     1      33.635 -11.882 -23.913  0.00  0.00    +0.200 C 
ENDBRANCH  23  25
ENDBRANCH   3  23
TORSDOF 7
ENDMDL
MODEL 7
REMARK VINA RESULT:      -8.2      1.235      2.083
REMARK  Name = 17754173
REMARK  7 active torsions:
REMARK  status: ('A' for Active; 'I' for Inactive)
REMARK    1  A    between atoms: N_1  and  S_12
REMARK    2  A    between atoms: C_2  and  C_8
REMARK    3  A    between atoms: C_3  and  N_23
REMARK    4  A    between atoms: N_7  and  O_10
REMARK    5  A    between atoms: S_12  and  C_15
REMARK    6  A    between atoms: C_20  and  O_21
REMARK    7  A    between atoms: N_23  and  O_25
REMARK                            x       y       z     vdW  Elec       q    Type
REMARK                         _______ _______ _______ _____ _____    ______ ____
ROOT
ATOM      1  N   UNL     1      34.459 -16.974 -22.523  0.00  0.00    -0.147 NA
ATOM      2  C   UNL     1      34.933 -16.649 -23.899  0.00  0.00    +0.159 C 
ATOM      3  C   UNL     1      33.027 -15.291 -23.375  0.00  0.00    +0.100 C 
ATOM      4  C   UNL     1      34.264 -15.327 -24.266  0.00  0.00    +0.047 C 
ATOM      5  C   UNL     1      33.551 -15.881 -22.069  0.00  0.00    +0.114 C 
ENDROOT
BRANCH   2   8
ATOM      6  O   UNL     1      33.749 -17.595 -25.731  0.00  0.00    -0.272 OA
ATOM      7  N   UNL     1      34.933 -19.000 -24.327  0.00  0.00    -0.196 N 
ATOM      8  C   UNL     1      34.468 -17.783 -24.752  0.00  0.00    +0.261 C 
ATOM      9  H   UNL     1      35.507 -19.092 -23.532  0.00  0.00    +0.182 HD
BRANCH   7  10
ATOM     10  O   UNL     1      34.540 -20.104 -25.095  0.00  0.00    -0.295 OA
ATOM     11  H   UNL     1      33.818 -19.844 -25.689  0.00  0.00    +0.241 HD
ENDBRANCH   7  10
ENDBRANCH   2   8
BRANCH   1  12
ATOM     12  S   UNL     1      35.599 -17.559 -21.405  0.00  0.00    +0.064 S 
ATOM     13  O   UNL     1      35.703 -16.636 -20.290  0.00  0.00    -0.153 OA
ATOM     14  O   UNL     1      36.788 -17.995 -22.113  0.00  0.00    -0.153 OA
BRANCH  12  15
ATOM     15  C   UNL     1      34.763 -19.004 -20.824  0.00  0.00    +0.122 C 
ATOM     16  C   UNL     1      35.495 -20.075 -20.312  0.00  0.00    +0.023 C 
ATOM     17  C   UNL     1      33.371 -19.073 -20.877  0.00  0.00    +0.023 C 
ATOM     18  C   UNL     1      34.836 -21.215 -19.853  0.00  0.00    +0.038 C 
ATOM     19  C   UNL     1      32.711 -20.213 -20.418  0.00  0.00    +0.038 C 
ATOM     20  C   UNL     1      33.443 -21.283 -19.906  0.00  0.00    +0.139 C 
BRANCH  20  21
ATOM     21  O   UNL     1      32.800 -22.396 -19.458  0.00  0.00    -0.471 OA
ATOM     22  C   UNL     1      33.196 -22.909 -18.186  0.00  0.00    +0.252 C 
ENDBRANCH  20  21
ENDBRANCH  12  15
ENDBRANCH   1  12
BRANCH   3  23
ATOM     23  N   UNL     1      32.479 -13.954 -23.223  0.00  0.00    -0.190 NA
ATOM     24  H   UNL     1      33.062 -13.269 -23.704  0.00  0.00    +0.155 HD
BRANCH  23  25
ATOM     25  O   UNL     1      32.482 -13.711 -21.786  0.00  0.00    -0.283 OA
ATOM     26  C   UNL     1      31.857 -12.455 -21.559  0.00  0.00    +0.200 C 
ENDBRANCH  23  25
ENDBRANCH   3  23
TORSDOF 7
ENDMDL
MODEL 8
REMARK VINA RESULT:      -8.2      7.288     11.919
REMARK  Name = 17754173
REMARK  7 active torsions:
REMARK  status: ('A' for Active; 'I' for Inactive)
REMARK    1  A    between atoms: N_1  and  S_12
REMARK    2  A    between atoms: C_2  and  C_8
REMARK    3  A    between atoms: C_3  and  N_23
REMARK    4  A    between atoms: N_7  and  O_10
REMARK    5  A    between atoms: S_12  and  C_15
REMARK    6  A    between atoms: C_20  and  O_21
REMARK    7  A    between atoms: N_23  and  O_25
REMARK                            x       y       z     vdW  Elec       q    Type
REMARK                         _______ _______ _______ _____ _____    ______ ____
ROOT
ATOM      1  N   UNL     1      35.852 -24.857 -14.199  0.00  0.00    -0.147 NA
ATOM      2  C   UNL     1      36.769 -24.271 -13.181  0.00  0.00    +0.159 C 
ATOM      3  C   UNL     1      38.008 -25.745 -14.609  0.00  0.00    +0.100 C 
ATOM      4  C   UNL     1      38.182 -24.539 -13.692  0.00  0.00    +0.047 C 
ATOM      5  C   UNL     1      36.678 -25.443 -15.293  0.00  0.00    +0.114 C 
ENDROOT
BRANCH   2   8
ATOM      6  O   UNL     1      36.935 -26.118 -11.695  0.00  0.00    -0.272 OA
ATOM      7  N   UNL     1      35.656 -24.297 -11.067  0.00  0.00    -0.196 N 
ATOM      8  C   UNL     1      36.470 -25.002 -11.915  0.00  0.00    +0.261 C 
ATOM      9  H   UNL     1      35.311 -23.404 -11.296  0.00  0.00    +0.182 HD
BRANCH   7  10
ATOM     10  O   UNL     1      35.348 -24.927  -9.854  0.00  0.00    -0.295 OA
ATOM     11  H   UNL     1      34.407 -25.162  -9.842  0.00  0.00    +0.241 HD
ENDBRANCH   7  10
ENDBRANCH   2   8
BRANCH   1  12
ATOM     12  S   UNL     1      34.482 -23.957 -14.651  0.00  0.00    +0.064 S 
ATOM     13  O   UNL     1      34.205 -22.954 -13.639  0.00  0.00    -0.153 OA
ATOM     14  O   UNL     1      33.437 -24.861 -15.096  0.00  0.00    -0.153 OA
BRANCH  12  15
ATOM     15  C   UNL     1      35.105 -23.118 -16.076  0.00  0.00    +0.122 C 
ATOM     16  C   UNL     1      34.357 -23.090 -17.252  0.00  0.00    +0.023 C 
ATOM     17  C   UNL     1      36.346 -22.481 -16.023  0.00  0.00    +0.023 C 
ATOM     18  C   UNL     1      34.849 -22.428 -18.376  0.00  0.00    +0.038 C 
ATOM     19  C   UNL     1      36.838 -21.818 -17.147  0.00  0.00    +0.038 C 
ATOM     20  C   UNL     1      36.090 -21.791 -18.323  0.00  0.00    +0.139 C 
BRANCH  20  21
ATOM     21  O   UNL     1      36.570 -21.145 -19.420  0.00  0.00    -0.471 OA
ATOM     22  C   UNL     1      35.614 -20.524 -20.279  0.00  0.00    +0.252 C 
ENDBRANCH  20  21
ENDBRANCH  12  15
ENDBRANCH   1  12
BRANCH   3  23
ATOM     23  N   UNL     1      39.111 -25.910 -15.541  0.00  0.00    -0.190 NA
ATOM     24  H   UNL     1      39.205 -26.887 -15.818  0.00  0.00    +0.155 HD
BRANCH  23  25
ATOM     25  O   UNL     1      40.289 -25.470 -14.805  0.00  0.00    -0.283 OA
ATOM     26  C   UNL     1      40.823 -26.600 -14.129  0.00  0.00    +0.200 C 
ENDBRANCH  23  25
ENDBRANCH   3  23
TORSDOF 7
ENDMDL
MODEL 9
REMARK VINA RESULT:      -8.0      6.693     10.118
REMARK  Name = 17754173
REMARK  7 active torsions:
REMARK  status: ('A' for Active; 'I' for Inactive)
REMARK    1  A    between atoms: N_1  and  S_12
REMARK    2  A    between atoms: C_2  and  C_8
REMARK    3  A    between atoms: C_3  and  N_23
REMARK    4  A    between atoms: N_7  and  O_10
REMARK    5  A    between atoms: S_12  and  C_15
REMARK    6  A    between atoms: C_20  and  O_21
REMARK    7  A    between atoms: N_23  and  O_25
REMARK                            x       y       z     vdW  Elec       q    Type
REMARK                         _______ _______ _______ _____ _____    ______ ____
ROOT
ATOM      1  N   UNL     1      33.827 -23.328 -14.960  0.00  0.00    -0.147 NA
ATOM      2  C   UNL     1      32.923 -23.801 -16.047  0.00  0.00    +0.159 C 
ATOM      3  C   UNL     1      34.659 -22.443 -16.993  0.00  0.00    +0.100 C 
ATOM      4  C   UNL     1      33.680 -23.556 -17.350  0.00  0.00    +0.047 C 
ATOM      5  C   UNL     1      35.088 -22.830 -15.580  0.00  0.00    +0.114 C 
ENDROOT
BRANCH   2   8
ATOM      6  O   UNL     1      31.369 -22.448 -14.862  0.00  0.00    -0.272 OA
ATOM      7  N   UNL     1      31.016 -22.837 -17.114  0.00  0.00    -0.196 N 
ATOM      8  C   UNL     1      31.695 -22.962 -15.930  0.00  0.00    +0.261 C 
ATOM      9  H   UNL     1      31.323 -23.273 -17.942  0.00  0.00    +0.182 HD
BRANCH   7  10
ATOM     10  O   UNL     1      29.857 -22.049 -17.071  0.00  0.00    -0.295 OA
ATOM     11  H   UNL     1      30.105 -21.113 -17.008  0.00  0.00    +0.241 HD
ENDBRANCH   7  10
ENDBRANCH   2   8
BRANCH   1  12
ATOM     12  S   UNL     1      33.969 -24.290 -13.565  0.00  0.00    +0.064 S 
ATOM     13  O   UNL     1      32.980 -25.351 -13.605  0.00  0.00    -0.153 OA
ATOM     14  O   UNL     1      34.081 -23.433 -12.399  0.00  0.00    -0.153 OA
BRANCH  12  15
ATOM     15  C   UNL     1      35.552 -25.025 -13.842  0.00  0.00    +0.122 C 
ATOM     16  C   UNL     1      36.575 -24.849 -12.912  0.00  0.00    +0.023 C 
ATOM     17  C   UNL     1      35.777 -25.782 -14.993  0.00  0.00    +0.023 C 
ATOM     18  C   UNL     1      37.824 -25.430 -13.131  0.00  0.00    +0.038 C 
ATOM     19  C   UNL     1      37.026 -26.362 -15.212  0.00  0.00    +0.038 C 
ATOM     20  C   UNL     1      38.049 -26.187 -14.281  0.00  0.00    +0.139 C 
BRANCH  20  21
ATOM     21  O   UNL     1      39.268 -26.754 -14.495  0.00  0.00    -0.471 OA
ATOM     22  C   UNL     1      40.369 -25.869 -14.697  0.00  0.00    +0.252 C 
ENDBRANCH  20  21
ENDBRANCH  12  15
ENDBRANCH   1  12
BRANCH   3  23
ATOM     23  N   UNL     1      35.768 -22.345 -17.926  0.00  0.00    -0.190 NA
ATOM     24  H   UNL     1      36.251 -21.453 -17.818  0.00  0.00    +0.155 HD
BRANCH  23  25
ATOM     25  O   UNL     1      35.155 -22.440 -19.244  0.00  0.00    -0.283 OA
ATOM     26  C   UNL     1      35.531 -21.285 -19.980  0.00  0.00    +0.200 C 
ENDBRANCH  23  25
ENDBRANCH   3  23
TORSDOF 7
ENDMDL
