MODEL 1
REMARK VINA RESULT:      -7.8      0.000      0.000
REMARK  Name = 5362065
REMARK  10 active torsions:
REMARK  status: ('A' for Active; 'I' for Inactive)
REMARK    1  A    between atoms: N_2  and  C_9
REMARK    2  A    between atoms: C_3  and  C_21
REMARK    3  A    between atoms: C_11  and  C_15
REMARK    4  A    between atoms: C_13  and  C_18
REMARK    5  A    between atoms: C_15  and  O_16
REMARK    6  A    between atoms: N_20  and  O_30
REMARK    7  A    between atoms: C_21  and  C_25
REMARK    8  A    between atoms: O_30  and  C_31
REMARK    9  A    between atoms: C_31  and  C_33
REMARK   10  A    between atoms: C_33  and  O_34
REMARK                            x       y       z     vdW  Elec       q    Type
REMARK                         _______ _______ _______ _____ _____    ______ ____
ROOT
ATOM      1  O   UNK A   0      33.834 -24.655 -17.567  0.00  0.00    -0.268 OA
ATOM      2  N   UNK A   1      33.497 -22.427 -18.223  0.00  0.00    -0.291 N 
ATOM      3  C   UNK A   0      33.398 -23.529 -17.391  0.00  0.00    +0.269 C 
ATOM      4  H   UNK A   1      33.086 -21.580 -17.934  0.00  0.00    +0.150 HD
ENDROOT
BRANCH   2   9
ATOM      5  S   UNK A   1      32.639 -20.141 -20.080  0.00  0.00    -0.114 S 
ATOM      6  O   UNK A   1      36.665 -22.166 -18.936  0.00  0.00    -0.273 OA
ATOM      7  N   UNK A   1      35.199 -20.827 -20.211  0.00  0.00    -0.242 N 
ATOM      8  C   UNK A   1      33.889 -21.358 -20.544  0.00  0.00    +0.155 C 
ATOM      9  C   UNK A   1      34.183 -22.469 -19.513  0.00  0.00    +0.179 C 
ATOM     10  C   UNK A   1      35.620 -21.876 -19.471  0.00  0.00    +0.251 C 
ATOM     11  C   UNK A   1      35.655 -19.618 -20.636  0.00  0.00    +0.128 C 
ATOM     12  C   UNK A   1      33.296 -18.871 -21.216  0.00  0.00    +0.087 C 
ATOM     13  C   UNK A   1      34.811 -18.691 -21.150  0.00  0.00    +0.009 C 
BRANCH  11  15
ATOM     14  O   UNK A   1      37.859 -19.114 -21.371  0.00  0.00    -0.244 OA
ATOM     15  C   UNK A   1      37.096 -19.364 -20.462  0.00  0.00    +0.352 C 
BRANCH  15  16
ATOM     16  O   UNK A   1      37.408 -19.453 -19.155  0.00  0.00    -0.476 OA
ATOM     17  H   UNK A   1      37.808 -18.726 -18.718  0.00  0.00    +0.295 HD
ENDBRANCH  15  16
ENDBRANCH  11  15
BRANCH  13  18
ATOM     18  C   UNK A   1      35.228 -17.409 -21.684  0.00  0.00    -0.002 C 
ATOM     19  C   UNK A   1      34.628 -16.266 -21.374  0.00  0.00    -0.000 C 
ENDBRANCH  13  18
ENDBRANCH   2   9
BRANCH   3  21
ATOM     20  N   UNK A   0      33.273 -22.804 -15.071  0.00  0.00    -0.075 NA
ATOM     21  C   UNK A   0      32.643 -23.242 -16.119  0.00  0.00    +0.198 C 
BRANCH  21  25
ATOM     22  S   UNK A   0      28.901 -24.294 -15.345  0.00  0.00    -0.060 S 
ATOM     23  N   UNK A   0      30.334 -22.762 -16.856  0.00  0.00    -0.383 NA
ATOM     24  N   UNK A   0      28.001 -22.633 -17.217  0.00  0.00    -0.328 N 
ATOM     25  C   UNK A   0      31.195 -23.455 -16.028  0.00  0.00    +0.148 C 
ATOM     26  C   UNK A   0      30.603 -24.331 -15.141  0.00  0.00    +0.127 C 
ATOM     27  C   UNK A   0      29.100 -23.124 -16.585  0.00  0.00    +0.204 C 
ATOM     28  H   UNK A   0      27.105 -22.950 -16.963  0.00  0.00    +0.145 HD
ATOM     29  H   UNK A   0      28.103 -21.961 -17.930  0.00  0.00    +0.145 HD
ENDBRANCH  21  25
BRANCH  20  30
ATOM     30  O   UNK A   0      34.646 -22.659 -15.312  0.00  0.00    -0.365 OA
BRANCH  30  31
ATOM     31  C   UNK A   0      35.345 -23.473 -14.383  0.00  0.00    +0.346 C 
BRANCH  31  33
ATOM     32  O   UNK A   0      37.739 -23.649 -14.004  0.00  0.00    -0.246 OA
ATOM     33  C   UNK A   0      36.793 -23.564 -14.775  0.00  0.00    +0.362 C 
BRANCH  33  34
ATOM     34  O   UNK A   0      36.916 -23.543 -16.126  0.00  0.00    -0.478 OA
ATOM     35  H   UNK A   0      37.631 -23.986 -16.538  0.00  0.00    +0.295 HD
ENDBRANCH  33  34
ENDBRANCH  31  33
ENDBRANCH  30  31
ENDBRANCH  20  30
ENDBRANCH   3  21
TORSDOF 10
ENDMDL
MODEL 2
REMARK VINA RESULT:      -7.6      4.008      7.747
REMARK  Name = 5362065
REMARK  10 active torsions:
REMARK  status: ('A' for Active; 'I' for Inactive)
REMARK    1  A    between atoms: N_2  and  C_9
REMARK    2  A    between atoms: C_3  and  C_21
REMARK    3  A    between atoms: C_11  and  C_15
REMARK    4  A    between atoms: C_13  and  C_18
REMARK    5  A    between atoms: C_15  and  O_16
REMARK    6  A    between atoms: N_20  and  O_30
REMARK    7  A    between atoms: C_21  and  C_25
REMARK    8  A    between atoms: O_30  and  C_31
REMARK    9  A    between atoms: C_31  and  C_33
REMARK   10  A    between atoms: C_33  and  O_34
REMARK                            x       y       z     vdW  Elec       q    Type
REMARK                         _______ _______ _______ _____ _____    ______ ____
ROOT
ATOM      1  O   UNK A   0      31.068 -24.908 -15.686  0.00  0.00    -0.268 OA
ATOM      2  N   UNK A   1      32.980 -23.743 -14.986  0.00  0.00    -0.291 N 
ATOM      3  C   UNK A   0      31.847 -23.971 -15.748  0.00  0.00    +0.269 C 
ATOM      4  H   UNK A   1      33.509 -22.930 -15.160  0.00  0.00    +0.150 HD
ENDROOT
BRANCH   2   9
ATOM      5  S   UNK A   1      35.685 -25.038 -15.627  0.00  0.00    -0.114 S 
ATOM      6  O   UNK A   1      33.700 -23.172 -11.860  0.00  0.00    -0.273 OA
ATOM      7  N   UNK A   1      35.276 -24.440 -13.074  0.00  0.00    -0.242 N 
ATOM      8  C   UNK A   1      34.791 -25.356 -14.091  0.00  0.00    +0.155 C 
ATOM      9  C   UNK A   1      33.424 -24.656 -13.934  0.00  0.00    +0.179 C 
ATOM     10  C   UNK A   1      34.074 -23.936 -12.720  0.00  0.00    +0.251 C 
ATOM     11  C   UNK A   1      36.587 -24.307 -12.740  0.00  0.00    +0.128 C 
ATOM     12  C   UNK A   1      37.308 -25.447 -14.895  0.00  0.00    +0.087 C 
ATOM     13  C   UNK A   1      37.568 -24.797 -13.537  0.00  0.00    +0.009 C 
BRANCH  11  15
ATOM     14  O   UNK A   1      37.370 -22.457 -11.468  0.00  0.00    -0.244 OA
ATOM     15  C   UNK A   1      36.876 -23.565 -11.500  0.00  0.00    +0.352 C 
BRANCH  15  16
ATOM     16  O   UNK A   1      36.506 -24.309 -10.441  0.00  0.00    -0.476 OA
ATOM     17  H   UNK A   1      35.667 -24.175 -10.044  0.00  0.00    +0.295 HD
ENDBRANCH  15  16
ENDBRANCH  11  15
BRANCH  13  18
ATOM     18  C   UNK A   1      38.982 -24.753 -13.220  0.00  0.00    -0.002 C 
ATOM     19  C   UNK A   1      39.906 -25.370 -13.945  0.00  0.00    -0.000 C 
ENDBRANCH  13  18
ENDBRANCH   2   9
BRANCH   3  21
ATOM     20  N   UNK A   0      30.468 -22.247 -16.772  0.00  0.00    -0.075 NA
ATOM     21  C   UNK A   0      31.596 -22.892 -16.768  0.00  0.00    +0.198 C 
BRANCH  21  25
ATOM     22  S   UNK A   0      34.714 -22.486 -19.180  0.00  0.00    -0.060 S 
ATOM     23  N   UNK A   0      32.342 -21.568 -18.715  0.00  0.00    -0.383 NA
ATOM     24  N   UNK A   0      33.468 -20.568 -20.538  0.00  0.00    -0.328 N 
ATOM     25  C   UNK A   0      32.600 -22.551 -17.781  0.00  0.00    +0.148 C 
ATOM     26  C   UNK A   0      33.834 -23.162 -17.874  0.00  0.00    +0.127 C 
ATOM     27  C   UNK A   0      33.386 -21.447 -19.505  0.00  0.00    +0.204 C 
ATOM     28  H   UNK A   0      34.282 -20.531 -21.090  0.00  0.00    +0.145 HD
ATOM     29  H   UNK A   0      32.712 -19.968 -20.735  0.00  0.00    +0.145 HD
ENDBRANCH  21  25
BRANCH  20  30
ATOM     30  O   UNK A   0      29.613 -22.689 -15.754  0.00  0.00    -0.365 OA
BRANCH  30  31
ATOM     31  C   UNK A   0      28.284 -22.342 -16.112  0.00  0.00    +0.346 C 
BRANCH  31  33
ATOM     32  O   UNK A   0      27.069 -22.880 -18.146  0.00  0.00    -0.246 OA
ATOM     33  C   UNK A   0      27.814 -23.219 -17.239  0.00  0.00    +0.362 C 
BRANCH  33  34
ATOM     34  O   UNK A   0      28.342 -24.463 -17.116  0.00  0.00    -0.478 OA
ATOM     35  H   UNK A   0      27.911 -25.104 -16.585  0.00  0.00    +0.295 HD
ENDBRANCH  33  34
ENDBRANCH  31  33
ENDBRANCH  30  31
ENDBRANCH  20  30
ENDBRANCH   3  21
TORSDOF 10
ENDMDL
MODEL 3
REMARK VINA RESULT:      -7.5      8.089     12.550
REMARK  Name = 5362065
REMARK  10 active torsions:
REMARK  status: ('A' for Active; 'I' for Inactive)
REMARK    1  A    between atoms: N_2  and  C_9
REMARK    2  A    between atoms: C_3  and  C_21
REMARK    3  A    between atoms: C_11  and  C_15
REMARK    4  A    between atoms: C_13  and  C_18
REMARK    5  A    between atoms: C_15  and  O_16
REMARK    6  A    between atoms: N_20  and  O_30
REMARK    7  A    between atoms: C_21  and  C_25
REMARK    8  A    between atoms: O_30  and  C_31
REMARK    9  A    between atoms: C_31  and  C_33
REMARK   10  A    between atoms: C_33  and  O_34
REMARK                            x       y       z     vdW  Elec       q    Type
REMARK                         _______ _______ _______ _____ _____    ______ ____
ROOT
ATOM      1  O   UNK A   0      30.597 -10.778 -22.458  0.00  0.00    -0.268 OA
ATOM      2  N   UNK A   1      32.552 -12.073 -22.370  0.00  0.00    -0.291 N 
ATOM      3  C   UNK A   0      31.810 -10.907 -22.462  0.00  0.00    +0.269 C 
ATOM      4  H   UNK A   1      33.535 -12.008 -22.388  0.00  0.00    +0.150 HD
ENDROOT
BRANCH   2   9
ATOM      5  S   UNK A   1      33.460 -13.993 -24.583  0.00  0.00    -0.114 S 
ATOM      6  O   UNK A   1      32.773 -14.292 -19.994  0.00  0.00    -0.273 OA
ATOM      7  N   UNK A   1      33.100 -15.086 -22.192  0.00  0.00    -0.242 N 
ATOM      8  C   UNK A   1      32.328 -14.487 -23.266  0.00  0.00    +0.155 C 
ATOM      9  C   UNK A   1      31.938 -13.394 -22.249  0.00  0.00    +0.179 C 
ATOM     10  C   UNK A   1      32.629 -14.305 -21.195  0.00  0.00    +0.251 C 
ATOM     11  C   UNK A   1      33.967 -16.119 -22.368  0.00  0.00    +0.128 C 
ATOM     12  C   UNK A   1      34.040 -15.701 -24.874  0.00  0.00    +0.087 C 
ATOM     13  C   UNK A   1      34.400 -16.468 -23.604  0.00  0.00    +0.009 C 
BRANCH  11  15
ATOM     14  O   UNK A   1      35.288 -16.350 -20.405  0.00  0.00    -0.244 OA
ATOM     15  C   UNK A   1      34.437 -16.795 -21.146  0.00  0.00    +0.352 C 
BRANCH  15  16
ATOM     16  O   UNK A   1      33.777 -17.960 -21.001  0.00  0.00    -0.476 OA
ATOM     17  H   UNK A   1      34.255 -18.755 -20.860  0.00  0.00    +0.295 HD
ENDBRANCH  15  16
ENDBRANCH  11  15
BRANCH  13  18
ATOM     18  C   UNK A   1      35.270 -17.595 -23.880  0.00  0.00    -0.002 C 
ATOM     19  C   UNK A   1      34.826 -18.755 -24.347  0.00  0.00    -0.000 C 
ENDBRANCH  13  18
ENDBRANCH   2   9
BRANCH   3  21
ATOM     20  N   UNK A   0      33.675  -9.656 -23.398  0.00  0.00    -0.075 NA
ATOM     21  C   UNK A   0      32.664  -9.673 -22.582  0.00  0.00    +0.198 C 
BRANCH  21  25
ATOM     22  S   UNK A   0      32.209  -6.814 -19.876  0.00  0.00    -0.060 S 
ATOM     23  N   UNK A   0      31.803  -7.368 -22.368  0.00  0.00    -0.383 NA
ATOM     24  N   UNK A   0      31.117  -5.208 -21.692  0.00  0.00    -0.328 N 
ATOM     25  C   UNK A   0      32.389  -8.473 -21.784  0.00  0.00    +0.148 C 
ATOM     26  C   UNK A   0      32.682  -8.362 -20.441  0.00  0.00    +0.127 C 
ATOM     27  C   UNK A   0      31.660  -6.431 -21.456  0.00  0.00    +0.204 C 
ATOM     28  H   UNK A   0      31.040  -4.554 -20.961  0.00  0.00    +0.145 HD
ATOM     29  H   UNK A   0      30.799  -4.977 -22.596  0.00  0.00    +0.145 HD
ENDBRANCH  21  25
BRANCH  20  30
ATOM     30  O   UNK A   0      33.812 -10.872 -24.081  0.00  0.00    -0.365 OA
BRANCH  30  31
ATOM     31  C   UNK A   0      33.937 -10.589 -25.467  0.00  0.00    +0.346 C 
BRANCH  31  33
ATOM     32  O   UNK A   0      35.867 -10.572 -26.943  0.00  0.00    -0.246 OA
ATOM     33  C   UNK A   0      35.388 -10.434 -25.827  0.00  0.00    +0.362 C 
BRANCH  33  34
ATOM     34  O   UNK A   0      36.112 -10.110 -24.726  0.00  0.00    -0.478 OA
ATOM     35  H   UNK A   0      37.037 -10.263 -24.711  0.00  0.00    +0.295 HD
ENDBRANCH  33  34
ENDBRANCH  31  33
ENDBRANCH  30  31
ENDBRANCH  20  30
ENDBRANCH   3  21
TORSDOF 10
ENDMDL
MODEL 4
REMARK VINA RESULT:      -7.4      3.172      7.724
REMARK  Name = 5362065
REMARK  10 active torsions:
REMARK  status: ('A' for Active; 'I' for Inactive)
REMARK    1  A    between atoms: N_2  and  C_9
REMARK    2  A    between atoms: C_3  and  C_21
REMARK    3  A    between atoms: C_11  and  C_15
REMARK    4  A    between atoms: C_13  and  C_18
REMARK    5  A    between atoms: C_15  and  O_16
REMARK    6  A    between atoms: N_20  and  O_30
REMARK    7  A    between atoms: C_21  and  C_25
REMARK    8  A    between atoms: O_30  and  C_31
REMARK    9  A    between atoms: C_31  and  C_33
REMARK   10  A    between atoms: C_33  and  O_34
REMARK                            x       y       z     vdW  Elec       q    Type
REMARK                         _______ _______ _______ _____ _____    ______ ____
ROOT
ATOM      1  O   UNK A   0      33.753 -24.269 -18.667  0.00  0.00    -0.268 OA
ATOM      2  N   UNK A   1      33.458 -23.516 -16.465  0.00  0.00    -0.291 N 
ATOM      3  C   UNK A   0      33.380 -23.448 -17.846  0.00  0.00    +0.269 C 
ATOM      4  H   UNK A   1      33.109 -22.762 -15.936  0.00  0.00    +0.150 HD
ENDROOT
BRANCH   2   9
ATOM      5  S   UNK A   1      36.416 -23.089 -15.774  0.00  0.00    -0.114 S 
ATOM      6  O   UNK A   1      32.701 -24.815 -13.574  0.00  0.00    -0.273 OA
ATOM      7  N   UNK A   1      34.992 -24.403 -13.961  0.00  0.00    -0.242 N 
ATOM      8  C   UNK A   1      35.509 -24.579 -15.306  0.00  0.00    +0.155 C 
ATOM      9  C   UNK A   1      34.036 -24.658 -15.760  0.00  0.00    +0.179 C 
ATOM     10  C   UNK A   1      33.701 -24.686 -14.242  0.00  0.00    +0.251 C 
ATOM     11  C   UNK A   1      35.762 -24.064 -12.892  0.00  0.00    +0.128 C 
ATOM     12  C   UNK A   1      37.631 -23.272 -14.422  0.00  0.00    +0.087 C 
ATOM     13  C   UNK A   1      37.013 -23.573 -13.058  0.00  0.00    +0.009 C 
BRANCH  11  15
ATOM     14  O   UNK A   1      35.415 -25.105 -10.783  0.00  0.00    -0.244 OA
ATOM     15  C   UNK A   1      35.143 -24.217 -11.564  0.00  0.00    +0.352 C 
BRANCH  15  16
ATOM     16  O   UNK A   1      34.249 -23.229 -11.373  0.00  0.00    -0.476 OA
ATOM     17  H   UNK A   1      34.244 -22.751 -10.566  0.00  0.00    +0.295 HD
ENDBRANCH  15  16
ENDBRANCH  11  15
BRANCH  13  18
ATOM     18  C   UNK A   1      37.919 -23.250 -11.972  0.00  0.00    -0.002 C 
ATOM     19  C   UNK A   1      39.195 -23.613 -11.961  0.00  0.00    -0.000 C 
ENDBRANCH  13  18
ENDBRANCH   2   9
BRANCH   3  21
ATOM     20  N   UNK A   0      31.552 -21.845 -17.950  0.00  0.00    -0.075 NA
ATOM     21  C   UNK A   0      32.748 -22.173 -18.338  0.00  0.00    +0.198 C 
BRANCH  21  25
ATOM     22  S   UNK A   0      33.980 -19.592 -21.081  0.00  0.00    -0.060 S 
ATOM     23  N   UNK A   0      34.830 -21.206 -19.250  0.00  0.00    -0.383 NA
ATOM     24  N   UNK A   0      36.518 -20.031 -20.417  0.00  0.00    -0.328 N 
ATOM     25  C   UNK A   0      33.451 -21.281 -19.266  0.00  0.00    +0.148 C 
ATOM     26  C   UNK A   0      32.815 -20.479 -20.190  0.00  0.00    +0.127 C 
ATOM     27  C   UNK A   0      35.220 -20.346 -20.165  0.00  0.00    +0.204 C 
ATOM     28  H   UNK A   0      36.738 -19.378 -21.119  0.00  0.00    +0.145 HD
ATOM     29  H   UNK A   0      37.238 -20.458 -19.897  0.00  0.00    +0.145 HD
ENDBRANCH  21  25
BRANCH  20  30
ATOM     30  O   UNK A   0      31.010 -22.797 -17.075  0.00  0.00    -0.365 OA
BRANCH  30  31
ATOM     31  C   UNK A   0      29.706 -22.370 -16.712  0.00  0.00    +0.346 C 
BRANCH  31  33
ATOM     32  O   UNK A   0      27.773 -23.581 -17.548  0.00  0.00    -0.246 OA
ATOM     33  C   UNK A   0      28.746 -23.522 -16.811  0.00  0.00    +0.362 C 
BRANCH  33  34
ATOM     34  O   UNK A   0      29.112 -24.512 -15.958  0.00  0.00    -0.478 OA
ATOM     35  H   UNK A   0      29.971 -24.514 -15.583  0.00  0.00    +0.295 HD
ENDBRANCH  33  34
ENDBRANCH  31  33
ENDBRANCH  30  31
ENDBRANCH  20  30
ENDBRANCH   3  21
TORSDOF 10
ENDMDL
MODEL 5
REMARK VINA RESULT:      -7.3      2.262      4.256
REMARK  Name = 5362065
REMARK  10 active torsions:
REMARK  status: ('A' for Active; 'I' for Inactive)
REMARK    1  A    between atoms: N_2  and  C_9
REMARK    2  A    between atoms: C_3  and  C_21
REMARK    3  A    between atoms: C_11  and  C_15
REMARK    4  A    between atoms: C_13  and  C_18
REMARK    5  A    between atoms: C_15  and  O_16
REMARK    6  A    between atoms: N_20  and  O_30
REMARK    7  A    between atoms: C_21  and  C_25
REMARK    8  A    between atoms: O_30  and  C_31
REMARK    9  A    between atoms: C_31  and  C_33
REMARK   10  A    between atoms: C_33  and  O_34
REMARK                            x       y       z     vdW  Elec       q    Type
REMARK                         _______ _______ _______ _____ _____    ______ ____
ROOT
ATOM      1  O   UNK A   0      33.081 -24.601 -18.044  0.00  0.00    -0.268 OA
ATOM      2  N   UNK A   1      34.127 -22.501 -18.046  0.00  0.00    -0.291 N 
ATOM      3  C   UNK A   0      33.407 -23.554 -17.509  0.00  0.00    +0.269 C 
ATOM      4  H   UNK A   1      34.310 -21.717 -17.478  0.00  0.00    +0.150 HD
ENDROOT
BRANCH   2   9
ATOM      5  S   UNK A   1      32.655 -20.486 -19.830  0.00  0.00    -0.114 S 
ATOM      6  O   UNK A   1      37.080 -21.776 -19.219  0.00  0.00    -0.273 OA
ATOM      7  N   UNK A   1      35.250 -20.760 -20.309  0.00  0.00    -0.242 N 
ATOM      8  C   UNK A   1      34.014 -21.511 -20.432  0.00  0.00    +0.155 C 
ATOM      9  C   UNK A   1      34.627 -22.502 -19.420  0.00  0.00    +0.179 C 
ATOM     10  C   UNK A   1      35.937 -21.686 -19.605  0.00  0.00    +0.251 C 
ATOM     11  C   UNK A   1      35.437 -19.519 -20.833  0.00  0.00    +0.128 C 
ATOM     12  C   UNK A   1      32.929 -19.191 -21.089  0.00  0.00    +0.087 C 
ATOM     13  C   UNK A   1      34.388 -18.769 -21.249  0.00  0.00    +0.009 C 
BRANCH  11  15
ATOM     14  O   UNK A   1      37.389 -18.666 -21.889  0.00  0.00    -0.244 OA
ATOM     15  C   UNK A   1      36.825 -19.028 -20.878  0.00  0.00    +0.352 C 
BRANCH  15  16
ATOM     16  O   UNK A   1      37.345 -19.052 -19.636  0.00  0.00    -0.476 OA
ATOM     17  H   UNK A   1      38.254 -19.246 -19.512  0.00  0.00    +0.295 HD
ENDBRANCH  15  16
ENDBRANCH  11  15
BRANCH  13  18
ATOM     18  C   UNK A   1      34.508 -17.467 -21.878  0.00  0.00    -0.002 C 
ATOM     19  C   UNK A   1      34.490 -16.329 -21.195  0.00  0.00    -0.000 C 
ENDBRANCH  13  18
ENDBRANCH   2   9
BRANCH   3  21
ATOM     20  N   UNK A   0      31.795 -22.917 -15.801  0.00  0.00    -0.075 NA
ATOM     21  C   UNK A   0      32.999 -23.320 -16.078  0.00  0.00    +0.198 C 
BRANCH  21  25
ATOM     22  S   UNK A   0      34.970 -24.189 -12.752  0.00  0.00    -0.060 S 
ATOM     23  N   UNK A   0      35.249 -23.107 -15.083  0.00  0.00    -0.383 NA
ATOM     24  N   UNK A   0      37.198 -23.128 -13.744  0.00  0.00    -0.328 N 
ATOM     25  C   UNK A   0      33.939 -23.528 -14.972  0.00  0.00    +0.148 C 
ATOM     26  C   UNK A   0      33.600 -24.136 -13.782  0.00  0.00    +0.127 C 
ATOM     27  C   UNK A   0      35.886 -23.403 -13.972  0.00  0.00    +0.204 C 
ATOM     28  H   UNK A   0      37.611 -23.379 -12.887  0.00  0.00    +0.145 HD
ATOM     29  H   UNK A   0      37.734 -22.678 -14.437  0.00  0.00    +0.145 HD
ENDBRANCH  21  25
BRANCH  20  30
ATOM     30  O   UNK A   0      31.021 -22.757 -16.959  0.00  0.00    -0.365 OA
BRANCH  30  31
ATOM     31  C   UNK A   0      29.693 -22.447 -16.562  0.00  0.00    +0.346 C 
BRANCH  31  33
ATOM     32  O   UNK A   0      27.953 -23.658 -17.748  0.00  0.00    -0.246 OA
ATOM     33  C   UNK A   0      28.788 -23.609 -16.857  0.00  0.00    +0.362 C 
BRANCH  33  34
ATOM     34  O   UNK A   0      29.027 -24.622 -15.987  0.00  0.00    -0.478 OA
ATOM     35  H   UNK A   0      28.380 -25.286 -15.850  0.00  0.00    +0.295 HD
ENDBRANCH  33  34
ENDBRANCH  31  33
ENDBRANCH  30  31
ENDBRANCH  20  30
ENDBRANCH   3  21
TORSDOF 10
ENDMDL
MODEL 6
REMARK VINA RESULT:      -7.0      2.097      3.266
REMARK  Name = 5362065
REMARK  10 active torsions:
REMARK  status: ('A' for Active; 'I' for Inactive)
REMARK    1  A    between atoms: N_2  and  C_9
REMARK    2  A    between atoms: C_3  and  C_21
REMARK    3  A    between atoms: C_11  and  C_15
REMARK    4  A    between atoms: C_13  and  C_18
REMARK    5  A    between atoms: C_15  and  O_16
REMARK    6  A    between atoms: N_20  and  O_30
REMARK    7  A    between atoms: C_21  and  C_25
REMARK    8  A    between atoms: O_30  and  C_31
REMARK    9  A    between atoms: C_31  and  C_33
REMARK   10  A    between atoms: C_33  and  O_34
REMARK                            x       y       z     vdW  Elec       q    Type
REMARK                         _______ _______ _______ _____ _____    ______ ____
ROOT
ATOM      1  O   UNK A   0      30.631 -24.738 -16.330  0.00  0.00    -0.268 OA
ATOM      2  N   UNK A   1      31.982 -22.871 -16.772  0.00  0.00    -0.291 N 
ATOM      3  C   UNK A   0      30.892 -23.549 -16.252  0.00  0.00    +0.269 C 
ATOM      4  H   UNK A   1      32.049 -21.900 -16.621  0.00  0.00    +0.150 HD
ENDROOT
BRANCH   2   9
ATOM      5  S   UNK A   1      32.758 -21.314 -19.298  0.00  0.00    -0.114 S 
ATOM      6  O   UNK A   1      35.055 -23.579 -15.950  0.00  0.00    -0.273 OA
ATOM      7  N   UNK A   1      34.754 -22.530 -18.042  0.00  0.00    -0.242 N 
ATOM      8  C   UNK A   1      33.567 -22.853 -18.814  0.00  0.00    +0.155 C 
ATOM      9  C   UNK A   1      33.037 -23.536 -17.535  0.00  0.00    +0.179 C 
ATOM     10  C   UNK A   1      34.463 -23.292 -16.965  0.00  0.00    +0.251 C 
ATOM     11  C   UNK A   1      35.735 -21.695 -18.476  0.00  0.00    +0.128 C 
ATOM     12  C   UNK A   1      34.199 -20.730 -20.257  0.00  0.00    +0.087 C 
ATOM     13  C   UNK A   1      35.535 -20.868 -19.532  0.00  0.00    +0.009 C 
BRANCH  11  15
ATOM     14  O   UNK A   1      37.693 -22.689 -17.565  0.00  0.00    -0.244 OA
ATOM     15  C   UNK A   1      36.994 -21.708 -17.711  0.00  0.00    +0.352 C 
BRANCH  15  16
ATOM     16  O   UNK A   1      37.227 -20.478 -17.217  0.00  0.00    -0.476 OA
ATOM     17  H   UNK A   1      36.562 -19.819 -17.267  0.00  0.00    +0.295 HD
ENDBRANCH  15  16
ENDBRANCH  11  15
BRANCH  13  18
ATOM     18  C   UNK A   1      36.549 -19.998 -20.096  0.00  0.00    -0.002 C 
ATOM     19  C   UNK A   1      36.280 -19.061 -20.996  0.00  0.00    -0.000 C 
ENDBRANCH  13  18
ENDBRANCH   2   9
BRANCH   3  21
ATOM     20  N   UNK A   0      30.304 -22.095 -14.391  0.00  0.00    -0.075 NA
ATOM     21  C   UNK A   0      29.940 -22.650 -15.508  0.00  0.00    +0.198 C 
BRANCH  21  25
ATOM     22  S   UNK A   0      26.102 -21.911 -16.163  0.00  0.00    -0.060 S 
ATOM     23  N   UNK A   0      28.348 -22.334 -17.370  0.00  0.00    -0.383 NA
ATOM     24  N   UNK A   0      26.494 -21.970 -18.793  0.00  0.00    -0.328 N 
ATOM     25  C   UNK A   0      28.587 -22.388 -16.012  0.00  0.00    +0.148 C 
ATOM     26  C   UNK A   0      27.492 -22.183 -15.198  0.00  0.00    +0.127 C 
ATOM     27  C   UNK A   0      27.071 -22.089 -17.568  0.00  0.00    +0.204 C 
ATOM     28  H   UNK A   0      25.531 -21.786 -18.867  0.00  0.00    +0.145 HD
ATOM     29  H   UNK A   0      27.041 -22.070 -19.606  0.00  0.00    +0.145 HD
ENDBRANCH  21  25
BRANCH  20  30
ATOM     30  O   UNK A   0      31.615 -22.446 -14.040  0.00  0.00    -0.365 OA
BRANCH  30  31
ATOM     31  C   UNK A   0      31.549 -23.505 -13.096  0.00  0.00    +0.346 C 
BRANCH  31  33
ATOM     32  O   UNK A   0      33.857 -24.231 -12.875  0.00  0.00    -0.246 OA
ATOM     33  C   UNK A   0      32.722 -24.426 -13.283  0.00  0.00    +0.362 C 
BRANCH  33  34
ATOM     34  O   UNK A   0      32.345 -25.529 -13.978  0.00  0.00    -0.478 OA
ATOM     35  H   UNK A   0      32.570 -26.382 -13.661  0.00  0.00    +0.295 HD
ENDBRANCH  33  34
ENDBRANCH  31  33
ENDBRANCH  30  31
ENDBRANCH  20  30
ENDBRANCH   3  21
TORSDOF 10
ENDMDL
MODEL 7
REMARK VINA RESULT:      -6.9      8.158     12.621
REMARK  Name = 5362065
REMARK  10 active torsions:
REMARK  status: ('A' for Active; 'I' for Inactive)
REMARK    1  A    between atoms: N_2  and  C_9
REMARK    2  A    between atoms: C_3  and  C_21
REMARK    3  A    between atoms: C_11  and  C_15
REMARK    4  A    between atoms: C_13  and  C_18
REMARK    5  A    between atoms: C_15  and  O_16
REMARK    6  A    between atoms: N_20  and  O_30
REMARK    7  A    between atoms: C_21  and  C_25
REMARK    8  A    between atoms: O_30  and  C_31
REMARK    9  A    between atoms: C_31  and  C_33
REMARK   10  A    between atoms: C_33  and  O_34
REMARK                            x       y       z     vdW  Elec       q    Type
REMARK                         _______ _______ _______ _____ _____    ______ ____
ROOT
ATOM      1  O   UNK A   0      30.645 -10.842 -22.537  0.00  0.00    -0.268 OA
ATOM      2  N   UNK A   1      32.574 -12.126 -22.165  0.00  0.00    -0.291 N 
ATOM      3  C   UNK A   0      31.845 -10.964 -22.353  0.00  0.00    +0.269 C 
ATOM      4  H   UNK A   1      33.547 -12.055 -22.029  0.00  0.00    +0.150 HD
ENDROOT
BRANCH   2   9
ATOM      5  S   UNK A   1      33.613 -13.901 -24.441  0.00  0.00    -0.114 S 
ATOM      6  O   UNK A   1      32.673 -14.490 -19.925  0.00  0.00    -0.273 OA
ATOM      7  N   UNK A   1      33.125 -15.143 -22.147  0.00  0.00    -0.242 N 
ATOM      8  C   UNK A   1      32.412 -14.479 -23.223  0.00  0.00    +0.155 C 
ATOM      9  C   UNK A   1      31.961 -13.453 -22.162  0.00  0.00    +0.179 C 
ATOM     10  C   UNK A   1      32.596 -14.428 -21.131  0.00  0.00    +0.251 C 
ATOM     11  C   UNK A   1      34.006 -16.162 -22.339  0.00  0.00    +0.128 C 
ATOM     12  C   UNK A   1      34.217 -15.587 -24.805  0.00  0.00    +0.087 C 
ATOM     13  C   UNK A   1      34.508 -16.432 -23.568  0.00  0.00    +0.009 C 
BRANCH  11  15
ATOM     14  O   UNK A   1      35.315 -16.585 -20.400  0.00  0.00    -0.244 OA
ATOM     15  C   UNK A   1      34.410 -16.914 -21.138  0.00  0.00    +0.352 C 
BRANCH  15  16
ATOM     16  O   UNK A   1      33.624 -17.999 -21.006  0.00  0.00    -0.476 OA
ATOM     17  H   UNK A   1      32.887 -17.976 -20.425  0.00  0.00    +0.295 HD
ENDBRANCH  15  16
ENDBRANCH  11  15
BRANCH  13  18
ATOM     18  C   UNK A   1      35.398 -17.538 -23.866  0.00  0.00    -0.002 C 
ATOM     19  C   UNK A   1      34.967 -18.722 -24.282  0.00  0.00    -0.000 C 
ENDBRANCH  13  18
ENDBRANCH   2   9
BRANCH   3  21
ATOM     20  N   UNK A   0      32.665  -8.936 -21.285  0.00  0.00    -0.075 NA
ATOM     21  C   UNK A   0      32.697  -9.722 -22.320  0.00  0.00    +0.198 C 
BRANCH  21  25
ATOM     22  S   UNK A   0      34.895  -8.065 -25.170  0.00  0.00    -0.060 S 
ATOM     23  N   UNK A   0      34.171 -10.349 -24.200  0.00  0.00    -0.383 NA
ATOM     24  N   UNK A   0      35.624 -10.462 -26.062  0.00  0.00    -0.328 N 
ATOM     25  C   UNK A   0      33.568  -9.363 -23.443  0.00  0.00    +0.148 C 
ATOM     26  C   UNK A   0      33.842  -8.064 -23.818  0.00  0.00    +0.127 C 
ATOM     27  C   UNK A   0      34.895  -9.781 -25.139  0.00  0.00    +0.204 C 
ATOM     28  H   UNK A   0      36.143  -9.972 -26.738  0.00  0.00    +0.145 HD
ATOM     29  H   UNK A   0      35.631 -11.447 -26.054  0.00  0.00    +0.145 HD
ENDBRANCH  21  25
BRANCH  20  30
ATOM     30  O   UNK A   0      31.783  -9.408 -20.302  0.00  0.00    -0.365 OA
BRANCH  30  31
ATOM     31  C   UNK A   0      31.486  -8.332 -19.424  0.00  0.00    +0.346 C 
BRANCH  31  33
ATOM     32  O   UNK A   0      31.595  -6.265 -20.696  0.00  0.00    -0.246 OA
ATOM     33  C   UNK A   0      32.117  -7.067 -19.936  0.00  0.00    +0.362 C 
BRANCH  33  34
ATOM     34  O   UNK A   0      33.368  -6.930 -19.431  0.00  0.00    -0.478 OA
ATOM     35  H   UNK A   0      34.094  -6.788 -20.007  0.00  0.00    +0.295 HD
ENDBRANCH  33  34
ENDBRANCH  31  33
ENDBRANCH  30  31
ENDBRANCH  20  30
ENDBRANCH   3  21
TORSDOF 10
ENDMDL
MODEL 8
REMARK VINA RESULT:      -6.7      3.448      6.801
REMARK  Name = 5362065
REMARK  10 active torsions:
REMARK  status: ('A' for Active; 'I' for Inactive)
REMARK    1  A    between atoms: N_2  and  C_9
REMARK    2  A    between atoms: C_3  and  C_21
REMARK    3  A    between atoms: C_11  and  C_15
REMARK    4  A    between atoms: C_13  and  C_18
REMARK    5  A    between atoms: C_15  and  O_16
REMARK    6  A    between atoms: N_20  and  O_30
REMARK    7  A    between atoms: C_21  and  C_25
REMARK    8  A    between atoms: O_30  and  C_31
REMARK    9  A    between atoms: C_31  and  C_33
REMARK   10  A    between atoms: C_33  and  O_34
REMARK                            x       y       z     vdW  Elec       q    Type
REMARK                         _______ _______ _______ _____ _____    ______ ____
ROOT
ATOM      1  O   UNK A   0      31.509 -25.465 -14.750  0.00  0.00    -0.268 OA
ATOM      2  N   UNK A   1      33.329 -24.047 -14.323  0.00  0.00    -0.291 N 
ATOM      3  C   UNK A   0      32.147 -24.441 -14.927  0.00  0.00    +0.269 C 
ATOM      4  H   UNK A   1      33.723 -23.181 -14.578  0.00  0.00    +0.150 HD
ENDROOT
BRANCH   2   9
ATOM      5  S   UNK A   1      35.795 -25.467 -15.466  0.00  0.00    -0.114 S 
ATOM      6  O   UNK A   1      34.791 -23.187 -11.541  0.00  0.00    -0.273 OA
ATOM      7  N   UNK A   1      36.022 -24.609 -12.966  0.00  0.00    -0.242 N 
ATOM      8  C   UNK A   1      35.303 -25.609 -13.735  0.00  0.00    +0.155 C 
ATOM      9  C   UNK A   1      34.016 -24.863 -13.323  0.00  0.00    +0.179 C 
ATOM     10  C   UNK A   1      34.943 -24.042 -12.383  0.00  0.00    +0.251 C 
ATOM     11  C   UNK A   1      37.375 -24.476 -12.976  0.00  0.00    +0.128 C 
ATOM     12  C   UNK A   1      37.548 -25.842 -15.112  0.00  0.00    +0.087 C 
ATOM     13  C   UNK A   1      38.131 -25.067 -13.932  0.00  0.00    +0.009 C 
BRANCH  11  15
ATOM     14  O   UNK A   1      38.499 -24.044 -10.925  0.00  0.00    -0.244 OA
ATOM     15  C   UNK A   1      37.958 -23.622 -11.926  0.00  0.00    +0.352 C 
BRANCH  15  16
ATOM     16  O   UNK A   1      37.789 -22.328 -12.260  0.00  0.00    -0.476 OA
ATOM     17  H   UNK A   1      38.292 -21.955 -12.957  0.00  0.00    +0.295 HD
ENDBRANCH  15  16
ENDBRANCH  11  15
BRANCH  13  18
ATOM     18  C   UNK A   1      39.580 -25.027 -13.975  0.00  0.00    -0.002 C 
ATOM     19  C   UNK A   1      40.283 -25.366 -15.048  0.00  0.00    -0.000 C 
ENDBRANCH  13  18
ENDBRANCH   2   9
BRANCH   3  21
ATOM     20  N   UNK A   0      32.443 -22.896 -16.784  0.00  0.00    -0.075 NA
ATOM     21  C   UNK A   0      31.632 -23.436 -15.924  0.00  0.00    +0.198 C 
BRANCH  21  25
ATOM     22  S   UNK A   0      27.907 -22.255 -15.267  0.00  0.00    -0.060 S 
ATOM     23  N   UNK A   0      29.512 -23.048 -17.132  0.00  0.00    -0.383 NA
ATOM     24  N   UNK A   0      27.314 -22.547 -17.843  0.00  0.00    -0.328 N 
ATOM     25  C   UNK A   0      30.221 -23.037 -15.947  0.00  0.00    +0.148 C 
ATOM     26  C   UNK A   0      29.519 -22.636 -14.829  0.00  0.00    +0.127 C 
ATOM     27  C   UNK A   0      28.280 -22.654 -16.894  0.00  0.00    +0.204 C 
ATOM     28  H   UNK A   0      26.411 -22.246 -17.594  0.00  0.00    +0.145 HD
ATOM     29  H   UNK A   0      27.517 -22.773 -18.781  0.00  0.00    +0.145 HD
ENDBRANCH  21  25
BRANCH  20  30
ATOM     30  O   UNK A   0      33.753 -23.371 -16.633  0.00  0.00    -0.365 OA
BRANCH  30  31
ATOM     31  C   UNK A   0      34.587 -22.658 -17.533  0.00  0.00    +0.346 C 
BRANCH  31  33
ATOM     32  O   UNK A   0      34.024 -23.681 -19.663  0.00  0.00    -0.246 OA
ATOM     33  C   UNK A   0      34.007 -22.712 -18.918  0.00  0.00    +0.362 C 
BRANCH  33  34
ATOM     34  O   UNK A   0      33.445 -21.519 -19.239  0.00  0.00    -0.478 OA
ATOM     35  H   UNK A   0      33.886 -20.936 -19.826  0.00  0.00    +0.295 HD
ENDBRANCH  33  34
ENDBRANCH  31  33
ENDBRANCH  30  31
ENDBRANCH  20  30
ENDBRANCH   3  21
TORSDOF 10
ENDMDL
MODEL 9
REMARK VINA RESULT:      -6.6      9.726     14.128
REMARK  Name = 5362065
REMARK  10 active torsions:
REMARK  status: ('A' for Active; 'I' for Inactive)
REMARK    1  A    between atoms: N_2  and  C_9
REMARK    2  A    between atoms: C_3  and  C_21
REMARK    3  A    between atoms: C_11  and  C_15
REMARK    4  A    between atoms: C_13  and  C_18
REMARK    5  A    between atoms: C_15  and  O_16
REMARK    6  A    between atoms: N_20  and  O_30
REMARK    7  A    between atoms: C_21  and  C_25
REMARK    8  A    between atoms: O_30  and  C_31
REMARK    9  A    between atoms: C_31  and  C_33
REMARK   10  A    between atoms: C_33  and  O_34
REMARK                            x       y       z     vdW  Elec       q    Type
REMARK                         _______ _______ _______ _____ _____    ______ ____
ROOT
ATOM      1  O   UNK A   0      30.838  -8.919 -23.301  0.00  0.00    -0.268 OA
ATOM      2  N   UNK A   1      32.481 -10.326 -22.391  0.00  0.00    -0.291 N 
ATOM      3  C   UNK A   0      31.943  -9.127 -22.829  0.00  0.00    +0.269 C 
ATOM      4  H   UNK A   1      33.398 -10.328 -22.033  0.00  0.00    +0.150 HD
ENDROOT
BRANCH   2   9
ATOM      5  S   UNK A   1      33.701 -12.318 -24.379  0.00  0.00    -0.114 S 
ATOM      6  O   UNK A   1      31.963 -12.556 -20.073  0.00  0.00    -0.273 OA
ATOM      7  N   UNK A   1      32.713 -13.375 -22.155  0.00  0.00    -0.242 N 
ATOM      8  C   UNK A   1      32.261 -12.711 -23.364  0.00  0.00    +0.155 C 
ATOM      9  C   UNK A   1      31.745 -11.588 -22.439  0.00  0.00    +0.179 C 
ATOM     10  C   UNK A   1      32.096 -12.556 -21.275  0.00  0.00    +0.251 C 
ATOM     11  C   UNK A   1      33.505 -14.481 -22.150  0.00  0.00    +0.128 C 
ATOM     12  C   UNK A   1      34.184 -14.070 -24.565  0.00  0.00    +0.087 C 
ATOM     13  C   UNK A   1      34.177 -14.867 -23.262  0.00  0.00    +0.009 C 
BRANCH  11  15
ATOM     14  O   UNK A   1      34.639 -15.242 -20.204  0.00  0.00    -0.244 OA
ATOM     15  C   UNK A   1      33.624 -15.197 -20.868  0.00  0.00    +0.352 C 
BRANCH  15  16
ATOM     16  O   UNK A   1      32.446 -15.775 -20.570  0.00  0.00    -0.476 OA
ATOM     17  H   UNK A   1      31.811 -15.310 -20.060  0.00  0.00    +0.295 HD
ENDBRANCH  15  16
ENDBRANCH  11  15
BRANCH  13  18
ATOM     18  C   UNK A   1      34.987 -16.066 -23.357  0.00  0.00    -0.002 C 
ATOM     19  C   UNK A   1      34.664 -17.099 -24.125  0.00  0.00    -0.000 C 
ENDBRANCH  13  18
ENDBRANCH   2   9
BRANCH   3  21
ATOM     20  N   UNK A   0      33.380  -7.666 -21.516  0.00  0.00    -0.075 NA
ATOM     21  C   UNK A   0      32.893  -7.967 -22.682  0.00  0.00    +0.198 C 
BRANCH  21  25
ATOM     22  S   UNK A   0      34.568  -6.133 -25.770  0.00  0.00    -0.060 S 
ATOM     23  N   UNK A   0      32.416  -6.200 -24.341  0.00  0.00    -0.383 NA
ATOM     24  N   UNK A   0      32.409  -4.615 -26.095  0.00  0.00    -0.328 N 
ATOM     25  C   UNK A   0      33.282  -7.149 -23.835  0.00  0.00    +0.148 C 
ATOM     26  C   UNK A   0      34.497  -7.258 -24.479  0.00  0.00    +0.127 C 
ATOM     27  C   UNK A   0      32.988  -5.603 -25.363  0.00  0.00    +0.204 C 
ATOM     28  H   UNK A   0      32.897  -4.211 -26.848  0.00  0.00    +0.145 HD
ATOM     29  H   UNK A   0      31.502  -4.302 -25.871  0.00  0.00    +0.145 HD
ENDBRANCH  21  25
BRANCH  20  30
ATOM     30  O   UNK A   0      32.911  -8.532 -20.518  0.00  0.00    -0.365 OA
BRANCH  30  31
ATOM     31  C   UNK A   0      31.856  -7.878 -19.828  0.00  0.00    +0.346 C 
BRANCH  31  33
ATOM     32  O   UNK A   0      31.067  -5.862 -20.931  0.00  0.00    -0.246 OA
ATOM     33  C   UNK A   0      31.851  -6.415 -20.173  0.00  0.00    +0.362 C 
BRANCH  33  34
ATOM     34  O   UNK A   0      32.850  -5.775 -19.517  0.00  0.00    -0.478 OA
ATOM     35  H   UNK A   0      33.168  -6.112 -18.702  0.00  0.00    +0.295 HD
ENDBRANCH  33  34
ENDBRANCH  31  33
ENDBRANCH  30  31
ENDBRANCH  20  30
ENDBRANCH   3  21
TORSDOF 10
ENDMDL
