MODEL 1
REMARK VINA RESULT:      -8.3      0.000      0.000
REMARK  Name = 9824131
REMARK  7 active torsions:
REMARK  status: ('A' for Active; 'I' for Inactive)
REMARK    1  A    between atoms: CA_5  and  C_30
REMARK    2  A    between atoms: CA_9  and  N_18
REMARK    3  A    between atoms: C_19  and  C_21
REMARK    4  A    between atoms: C_21  and  C_22
REMARK    5  A    between atoms: C_21  and  S_25
REMARK    6  A    between atoms: S_25  and  C_27
REMARK    7  A    between atoms: C_30  and  O_31
REMARK                            x       y       z     vdW  Elec       q    Type
REMARK                         _______ _______ _______ _____ _____    ______ ____
ROOT
ATOM      1  O   UNL     1      33.789 -24.202 -12.342  0.00  0.00    -0.273 OA
ATOM      2  N   UNL     1      35.749 -24.873 -13.402  0.00  0.00    -0.268 N 
ATOM      3  C   UNL     1      36.456 -25.171 -14.671  0.00  0.00    +0.098 C 
ATOM      4  C   UNL     1      37.478 -26.314 -14.493  0.00  0.00    +0.024 C 
ATOM      5  CA  UNL     1      36.506 -24.875 -12.142  0.00  0.00    +0.175 C 
ATOM      6  C   UNL     1      38.379 -26.148 -13.278  0.00  0.00    +0.004 C 
ATOM      7  C   UNL     1      37.534 -25.993 -12.023  0.00  0.00    +0.031 C 
ATOM      8  C   UNL     1      36.900 -23.888 -15.366  0.00  0.00    -0.008 C 
ATOM      9  CA  UNL     1      33.828 -24.112 -14.750  0.00  0.00    +0.153 C 
ATOM     10  C   UNL     1      34.420 -24.417 -13.379  0.00  0.00    +0.244 C 
ATOM     11  C   UNL     1      34.485 -22.871 -15.357  0.00  0.00    +0.055 C 
ATOM     12  C   UNL     1      35.969 -22.868 -15.686  0.00  0.00    -0.022 C 
ATOM     13  C   UNL     1      38.245 -23.699 -15.743  0.00  0.00    -0.003 C 
ATOM     14  C   UNL     1      36.429 -21.705 -16.344  0.00  0.00    -0.004 C 
ATOM     15  C   UNL     1      38.673 -22.543 -16.395  0.00  0.00    -0.000 C 
ATOM     16  C   UNL     1      37.765 -21.542 -16.696  0.00  0.00    -0.000 C 
ENDROOT
BRANCH   9  18
ATOM     17  O   UNL     1      31.903 -23.522 -16.798  0.00  0.00    -0.274 OA
ATOM     18  N   UNL     1      32.411 -23.892 -14.565  0.00  0.00    -0.297 N 
ATOM     19  C   UNL     1      31.558 -23.611 -15.621  0.00  0.00    +0.233 C 
ATOM     20  H   UNL     1      32.038 -23.943 -13.654  0.00  0.00    +0.150 HD
BRANCH  19  21
ATOM     21  C   UNL     1      30.116 -23.387 -15.168  0.00  0.00    +0.131 C 
BRANCH  21  22
ATOM     22  C   UNL     1      29.582 -24.578 -14.335  0.00  0.00    +0.019 C 
ATOM     23  C   UNL     1      30.348 -24.778 -13.019  0.00  0.00    +0.001 C 
ATOM     24  C   UNL     1      29.665 -25.881 -15.144  0.00  0.00    +0.001 C 
ENDBRANCH  21  22
BRANCH  21  25
ATOM     25  S   UNL     1      29.155 -23.108 -16.705  0.00  0.00    -0.069 S 
BRANCH  25  27
ATOM     26  O   UNL     1      27.759 -21.775 -14.892  0.00  0.00    -0.284 OA
ATOM     27  C   UNL     1      27.811 -22.187 -16.044  0.00  0.00    +0.200 C 
ATOM     28  C   UNL     1      26.715 -21.955 -17.047  0.00  0.00    +0.085 C 
ENDBRANCH  25  27
ENDBRANCH  21  25
ENDBRANCH  19  21
ENDBRANCH   9  18
BRANCH   5  30
ATOM     29  OXT UNL     1      38.305 -23.308 -11.739  0.00  0.00    -0.248 OA
ATOM     30  C   UNL     1      37.134 -23.517 -12.015  0.00  0.00    +0.332 C 
BRANCH  30  31
ATOM     31  O   UNL     1      36.220 -22.543 -12.248  0.00  0.00    -0.479 OA
ATOM     32  H   UNL     1      35.771 -22.140 -11.529  0.00  0.00    +0.295 HD
ENDBRANCH  30  31
ENDBRANCH   5  30
TORSDOF 7
ENDMDL
MODEL 2
REMARK VINA RESULT:      -6.9     14.384     16.872
REMARK  Name = 9824131
REMARK  7 active torsions:
REMARK  status: ('A' for Active; 'I' for Inactive)
REMARK    1  A    between atoms: CA_5  and  C_30
REMARK    2  A    between atoms: CA_9  and  N_18
REMARK    3  A    between atoms: C_19  and  C_21
REMARK    4  A    between atoms: C_21  and  C_22
REMARK    5  A    between atoms: C_21  and  S_25
REMARK    6  A    between atoms: S_25  and  C_27
REMARK    7  A    between atoms: C_30  and  O_31
REMARK                            x       y       z     vdW  Elec       q    Type
REMARK                         _______ _______ _______ _____ _____    ______ ____
ROOT
ATOM      1  O   UNL     1      34.021 -10.710 -24.377  0.00  0.00    -0.273 OA
ATOM      2  N   UNL     1      32.748  -8.786 -24.065  0.00  0.00    -0.268 N 
ATOM      3  C   UNL     1      31.553  -8.151 -23.459  0.00  0.00    +0.098 C 
ATOM      4  C   UNL     1      30.984  -7.039 -24.365  0.00  0.00    +0.024 C 
ATOM      5  CA  UNL     1      33.735  -7.944 -24.756  0.00  0.00    +0.175 C 
ATOM      6  C   UNL     1      32.036  -6.069 -24.882  0.00  0.00    +0.004 C 
ATOM      7  C   UNL     1      33.134  -6.832 -25.606  0.00  0.00    +0.031 C 
ATOM      8  C   UNL     1      31.782  -7.851 -21.981  0.00  0.00    -0.008 C 
ATOM      9  CA  UNL     1      32.169 -10.847 -22.840  0.00  0.00    +0.153 C 
ATOM     10  C   UNL     1      33.061 -10.139 -23.853  0.00  0.00    +0.244 C 
ATOM     11  C   UNL     1      32.439 -10.326 -21.427  0.00  0.00    +0.055 C 
ATOM     12  C   UNL     1      32.163  -8.873 -21.077  0.00  0.00    -0.022 C 
ATOM     13  C   UNL     1      31.583  -6.553 -21.469  0.00  0.00    -0.003 C 
ATOM     14  C   UNL     1      32.347  -8.546 -19.713  0.00  0.00    -0.004 C 
ATOM     15  C   UNL     1      31.768  -6.256 -20.118  0.00  0.00    -0.000 C 
ATOM     16  C   UNL     1      32.152  -7.254 -19.238  0.00  0.00    -0.000 C 
ENDROOT
BRANCH   9  18
ATOM     17  O   UNL     1      31.961 -12.767 -20.714  0.00  0.00    -0.274 OA
ATOM     18  N   UNL     1      32.467 -12.260 -22.921  0.00  0.00    -0.297 N 
ATOM     19  C   UNL     1      32.336 -13.111 -21.835  0.00  0.00    +0.233 C 
ATOM     20  H   UNL     1      32.775 -12.631 -23.780  0.00  0.00    +0.150 HD
BRANCH  19  21
ATOM     21  C   UNL     1      32.740 -14.547 -22.162  0.00  0.00    +0.131 C 
BRANCH  21  22
ATOM     22  C   UNL     1      33.038 -15.368 -20.883  0.00  0.00    +0.019 C 
ATOM     23  C   UNL     1      34.410 -16.056 -20.921  0.00  0.00    +0.001 C 
ATOM     24  C   UNL     1      31.964 -16.447 -20.674  0.00  0.00    +0.001 C 
ENDBRANCH  21  22
BRANCH  21  25
ATOM     25  S   UNL     1      34.194 -14.409 -23.272  0.00  0.00    -0.069 S 
BRANCH  25  27
ATOM     26  O   UNL     1      32.625 -14.319 -25.403  0.00  0.00    -0.284 OA
ATOM     27  C   UNL     1      33.464 -14.953 -24.776  0.00  0.00    +0.200 C 
ATOM     28  C   UNL     1      33.977 -16.294 -25.221  0.00  0.00    +0.085 C 
ENDBRANCH  25  27
ENDBRANCH  21  25
ENDBRANCH  19  21
ENDBRANCH   9  18
BRANCH   5  30
ATOM     29  OXT UNL     1      34.727  -7.821 -22.553  0.00  0.00    -0.248 OA
ATOM     30  C   UNL     1      34.658  -7.408 -23.700  0.00  0.00    +0.332 C 
BRANCH  30  31
ATOM     31  O   UNL     1      35.412  -6.394 -24.193  0.00  0.00    -0.479 OA
ATOM     32  H   UNL     1      35.280  -6.097 -25.072  0.00  0.00    +0.295 HD
ENDBRANCH  30  31
ENDBRANCH   5  30
TORSDOF 7
ENDMDL
MODEL 3
REMARK VINA RESULT:      -5.5      3.557      5.228
REMARK  Name = 9824131
REMARK  7 active torsions:
REMARK  status: ('A' for Active; 'I' for Inactive)
REMARK    1  A    between atoms: CA_5  and  C_30
REMARK    2  A    between atoms: CA_9  and  N_18
REMARK    3  A    between atoms: C_19  and  C_21
REMARK    4  A    between atoms: C_21  and  C_22
REMARK    5  A    between atoms: C_21  and  S_25
REMARK    6  A    between atoms: S_25  and  C_27
REMARK    7  A    between atoms: C_30  and  O_31
REMARK                            x       y       z     vdW  Elec       q    Type
REMARK                         _______ _______ _______ _____ _____    ______ ____
ROOT
ATOM      1  O   UNL     1      35.802 -21.611 -14.588  0.00  0.00    -0.273 OA
ATOM      2  N   UNL     1      36.363 -23.679 -13.678  0.00  0.00    -0.268 N 
ATOM      3  C   UNL     1      36.764 -25.088 -13.907  0.00  0.00    +0.098 C 
ATOM      4  C   UNL     1      36.172 -26.025 -12.832  0.00  0.00    +0.024 C 
ATOM      5  CA  UNL     1      36.336 -23.154 -12.306  0.00  0.00    +0.175 C 
ATOM      6  C   UNL     1      36.364 -25.523 -11.408  0.00  0.00    +0.004 C 
ATOM      7  C   UNL     1      35.784 -24.124 -11.269  0.00  0.00    +0.031 C 
ATOM      8  C   UNL     1      38.250 -25.189 -14.234  0.00  0.00    -0.008 C 
ATOM      9  CA  UNL     1      36.566 -23.316 -16.110  0.00  0.00    +0.153 C 
ATOM     10  C   UNL     1      36.177 -22.776 -14.739  0.00  0.00    +0.244 C 
ATOM     11  C   UNL     1      38.083 -23.482 -16.214  0.00  0.00    +0.055 C 
ATOM     12  C   UNL     1      38.815 -24.460 -15.309  0.00  0.00    -0.022 C 
ATOM     13  C   UNL     1      39.095 -26.042 -13.496  0.00  0.00    -0.003 C 
ATOM     14  C   UNL     1      40.195 -24.601 -15.582  0.00  0.00    -0.004 C 
ATOM     15  C   UNL     1      40.454 -26.167 -13.786  0.00  0.00    -0.000 C 
ATOM     16  C   UNL     1      41.007 -25.444 -14.830  0.00  0.00    -0.000 C 
ENDROOT
BRANCH   9  18
ATOM     17  O   UNL     1      34.315 -23.641 -17.865  0.00  0.00    -0.274 OA
ATOM     18  N   UNL     1      36.095 -22.367 -17.094  0.00  0.00    -0.297 N 
ATOM     19  C   UNL     1      34.994 -22.615 -17.899  0.00  0.00    +0.233 C 
ATOM     20  H   UNL     1      36.574 -21.513 -17.197  0.00  0.00    +0.150 HD
BRANCH  19  21
ATOM     21  C   UNL     1      34.714 -21.477 -18.879  0.00  0.00    +0.131 C 
BRANCH  21  22
ATOM     22  C   UNL     1      33.287 -21.565 -19.474  0.00  0.00    +0.019 C 
ATOM     23  C   UNL     1      32.877 -20.295 -20.232  0.00  0.00    +0.001 C 
ATOM     24  C   UNL     1      32.256 -21.817 -18.363  0.00  0.00    +0.001 C 
ENDBRANCH  21  22
BRANCH  21  25
ATOM     25  S   UNL     1      36.025 -21.594 -20.157  0.00  0.00    -0.069 S 
BRANCH  25  27
ATOM     26  O   UNL     1      37.435 -19.565 -19.205  0.00  0.00    -0.284 OA
ATOM     27  C   UNL     1      36.663 -19.958 -20.070  0.00  0.00    +0.200 C 
ATOM     28  C   UNL     1      36.157 -19.076 -21.177  0.00  0.00    +0.085 C 
ENDBRANCH  25  27
ENDBRANCH  21  25
ENDBRANCH  19  21
ENDBRANCH   9  18
BRANCH   5  30
ATOM     29  OXT UNL     1      38.587 -23.427 -11.462  0.00  0.00    -0.248 OA
ATOM     30  C   UNL     1      37.737 -22.721 -11.983  0.00  0.00    +0.332 C 
BRANCH  30  31
ATOM     31  O   UNL     1      37.935 -21.431 -12.347  0.00  0.00    -0.479 OA
ATOM     32  H   UNL     1      37.343 -21.016 -12.945  0.00  0.00    +0.295 HD
ENDBRANCH  30  31
ENDBRANCH   5  30
TORSDOF 7
ENDMDL
MODEL 4
REMARK VINA RESULT:      -5.4     13.964     16.647
REMARK  Name = 9824131
REMARK  7 active torsions:
REMARK  status: ('A' for Active; 'I' for Inactive)
REMARK    1  A    between atoms: CA_5  and  C_30
REMARK    2  A    between atoms: CA_9  and  N_18
REMARK    3  A    between atoms: C_19  and  C_21
REMARK    4  A    between atoms: C_21  and  C_22
REMARK    5  A    between atoms: C_21  and  S_25
REMARK    6  A    between atoms: S_25  and  C_27
REMARK    7  A    between atoms: C_30  and  O_31
REMARK                            x       y       z     vdW  Elec       q    Type
REMARK                         _______ _______ _______ _____ _____    ______ ____
ROOT
ATOM      1  O   UNL     1      34.584 -10.203 -24.786  0.00  0.00    -0.273 OA
ATOM      2  N   UNL     1      32.819  -9.016 -23.840  0.00  0.00    -0.268 N 
ATOM      3  C   UNL     1      31.499  -9.047 -23.165  0.00  0.00    +0.098 C 
ATOM      4  C   UNL     1      30.627  -7.841 -23.575  0.00  0.00    +0.024 C 
ATOM      5  CA  UNL     1      33.518  -7.732 -23.990  0.00  0.00    +0.175 C 
ATOM      6  C   UNL     1      31.355  -6.506 -23.506  0.00  0.00    +0.004 C 
ATOM      7  C   UNL     1      32.617  -6.559 -24.353  0.00  0.00    +0.031 C 
ATOM      8  C   UNL     1      31.648  -9.378 -21.684  0.00  0.00    -0.008 C 
ATOM      9  CA  UNL     1      32.864 -11.477 -23.679  0.00  0.00    +0.153 C 
ATOM     10  C   UNL     1      33.507 -10.192 -24.186  0.00  0.00    +0.244 C 
ATOM     11  C   UNL     1      32.988 -11.578 -22.157  0.00  0.00    +0.055 C 
ATOM     12  C   UNL     1      32.314 -10.554 -21.259  0.00  0.00    -0.022 C 
ATOM     13  C   UNL     1      31.093  -8.538 -20.697  0.00  0.00    -0.003 C 
ATOM     14  C   UNL     1      32.411 -10.824 -19.875  0.00  0.00    -0.004 C 
ATOM     15  C   UNL     1      31.200  -8.827 -19.336  0.00  0.00    -0.000 C 
ATOM     16  C   UNL     1      31.861  -9.972 -18.923  0.00  0.00    -0.000 C 
ENDROOT
BRANCH   9  18
ATOM     17  O   UNL     1      32.030 -14.225 -23.715  0.00  0.00    -0.274 OA
ATOM     18  N   UNL     1      33.551 -12.579 -24.315  0.00  0.00    -0.297 N 
ATOM     19  C   UNL     1      33.068 -13.878 -24.277  0.00  0.00    +0.233 C 
ATOM     20  H   UNL     1      34.394 -12.400 -24.792  0.00  0.00    +0.150 HD
BRANCH  19  21
ATOM     21  C   UNL     1      33.986 -14.867 -24.993  0.00  0.00    +0.131 C 
BRANCH  21  22
ATOM     22  C   UNL     1      33.544 -15.110 -26.456  0.00  0.00    +0.019 C 
ATOM     23  C   UNL     1      32.952 -13.857 -27.117  0.00  0.00    +0.001 C 
ATOM     24  C   UNL     1      32.495 -16.231 -26.522  0.00  0.00    +0.001 C 
ENDBRANCH  21  22
BRANCH  21  25
ATOM     25  S   UNL     1      33.950 -16.395 -23.977  0.00  0.00    -0.069 S 
BRANCH  25  27
ATOM     26  O   UNL     1      35.022 -14.618 -22.332  0.00  0.00    -0.284 OA
ATOM     27  C   UNL     1      34.713 -15.789 -22.513  0.00  0.00    +0.200 C 
ATOM     28  C   UNL     1      34.953 -16.866 -21.493  0.00  0.00    +0.085 C 
ENDBRANCH  25  27
ENDBRANCH  21  25
ENDBRANCH  19  21
ENDBRANCH   9  18
BRANCH   5  30
ATOM     29  OXT UNL     1      33.743  -7.210 -21.638  0.00  0.00    -0.248 OA
ATOM     30  C   UNL     1      34.261  -7.494 -22.707  0.00  0.00    +0.332 C 
BRANCH  30  31
ATOM     31  O   UNL     1      35.597  -7.637 -22.893  0.00  0.00    -0.479 OA
ATOM     32  H   UNL     1      35.921  -8.303 -23.468  0.00  0.00    +0.295 HD
ENDBRANCH  30  31
ENDBRANCH   5  30
TORSDOF 7
ENDMDL
