MODEL 1
REMARK VINA RESULT:      -6.1      0.000      0.000
REMARK  Name = 31236
REMARK  4 active torsions:
REMARK  status: ('A' for Active; 'I' for Inactive)
REMARK    1  A    between atoms: C_1  and  O_7
REMARK    2  A    between atoms: O_7  and  C_8
REMARK    3  A    between atoms: C_8  and  C_9
REMARK    4  A    between atoms: C_9  and  O_10
REMARK                            x       y       z     vdW  Elec       q    Type
REMARK                         _______ _______ _______ _____ _____    ______ ____
ROOT
ATOM      1  C   UNL     1      33.613 -21.524 -19.473  0.00  0.00    +0.139 C 
ATOM      2  C   UNL     1      34.991 -21.730 -19.401  0.00  0.00    +0.037 C 
ATOM      3  C   UNL     1      33.105 -20.464 -20.226  0.00  0.00    +0.037 C 
ATOM      4  C   UNL     1      35.861 -20.879 -20.082  0.00  0.00    +0.003 C 
ATOM      5  C   UNL     1      33.975 -19.612 -20.906  0.00  0.00    +0.003 C 
ATOM      6  C   UNL     1      35.353 -19.819 -20.835  0.00  0.00    +0.000 C 
ENDROOT
BRANCH   1   7
ATOM      7  O   UNL     1      32.764 -22.355 -18.810  0.00  0.00    -0.473 OA
BRANCH   7   8
ATOM      8  C   UNL     1      33.285 -23.044 -17.674  0.00  0.00    +0.237 C 
BRANCH   8   9
ATOM      9  C   UNL     1      32.178 -23.224 -16.654  0.00  0.00    +0.185 C 
BRANCH   9  10
ATOM     10  O   UNL     1      31.019 -22.531 -17.100  0.00  0.00    -0.378 OA
ATOM     11  H   UNL     1      30.580 -22.113 -16.341  0.00  0.00    +0.211 HD
ENDBRANCH   9  10
ENDBRANCH   8   9
ENDBRANCH   7   8
ENDBRANCH   1   7
TORSDOF 4
ENDMDL
MODEL 2
REMARK VINA RESULT:      -6.0      3.461      5.454
REMARK  Name = 31236
REMARK  4 active torsions:
REMARK  status: ('A' for Active; 'I' for Inactive)
REMARK    1  A    between atoms: C_1  and  O_7
REMARK    2  A    between atoms: O_7  and  C_8
REMARK    3  A    between atoms: C_8  and  C_9
REMARK    4  A    between atoms: C_9  and  O_10
REMARK                            x       y       z     vdW  Elec       q    Type
REMARK                         _______ _______ _______ _____ _____    ______ ____
ROOT
ATOM      1  C   UNL     1      35.168 -19.739 -20.869  0.00  0.00    +0.139 C 
ATOM      2  C   UNL     1      35.839 -20.727 -20.148  0.00  0.00    +0.037 C 
ATOM      3  C   UNL     1      33.774 -19.691 -20.853  0.00  0.00    +0.037 C 
ATOM      4  C   UNL     1      35.117 -21.666 -19.411  0.00  0.00    +0.003 C 
ATOM      5  C   UNL     1      33.052 -20.630 -20.116  0.00  0.00    +0.003 C 
ATOM      6  C   UNL     1      33.723 -21.617 -19.394  0.00  0.00    +0.000 C 
ENDROOT
BRANCH   1   7
ATOM      7  O   UNL     1      35.872 -18.824 -21.588  0.00  0.00    -0.473 OA
BRANCH   7   8
ATOM      8  C   UNL     1      35.225 -18.253 -22.725  0.00  0.00    +0.237 C 
BRANCH   8   9
ATOM      9  C   UNL     1      35.150 -16.749 -22.547  0.00  0.00    +0.185 C 
BRANCH   9  10
ATOM     10  O   UNL     1      35.698 -16.118 -23.698  0.00  0.00    -0.378 OA
ATOM     11  H   UNL     1      36.638 -15.929 -23.547  0.00  0.00    +0.211 HD
ENDBRANCH   9  10
ENDBRANCH   8   9
ENDBRANCH   7   8
ENDBRANCH   1   7
TORSDOF 4
ENDMDL
MODEL 3
REMARK VINA RESULT:      -5.9      3.466      5.667
REMARK  Name = 31236
REMARK  4 active torsions:
REMARK  status: ('A' for Active; 'I' for Inactive)
REMARK    1  A    between atoms: C_1  and  O_7
REMARK    2  A    between atoms: O_7  and  C_8
REMARK    3  A    between atoms: C_8  and  C_9
REMARK    4  A    between atoms: C_9  and  O_10
REMARK                            x       y       z     vdW  Elec       q    Type
REMARK                         _______ _______ _______ _____ _____    ______ ____
ROOT
ATOM      1  C   UNL     1      35.135 -19.744 -20.947  0.00  0.00    +0.139 C 
ATOM      2  C   UNL     1      33.742 -19.718 -20.882  0.00  0.00    +0.037 C 
ATOM      3  C   UNL     1      35.849 -20.695 -20.219  0.00  0.00    +0.037 C 
ATOM      4  C   UNL     1      33.063 -20.644 -20.090  0.00  0.00    +0.003 C 
ATOM      5  C   UNL     1      35.170 -21.620 -19.425  0.00  0.00    +0.003 C 
ATOM      6  C   UNL     1      33.777 -21.595 -19.361  0.00  0.00    +0.000 C 
ENDROOT
BRANCH   1   7
ATOM      7  O   UNL     1      35.798 -18.842 -21.721  0.00  0.00    -0.473 OA
BRANCH   7   8
ATOM      8  C   UNL     1      35.269 -17.517 -21.771  0.00  0.00    +0.237 C 
BRANCH   8   9
ATOM      9  C   UNL     1      34.931 -17.174 -23.209  0.00  0.00    +0.185 C 
BRANCH   9  10
ATOM     10  O   UNL     1      35.697 -16.044 -23.609  0.00  0.00    -0.378 OA
ATOM     11  H   UNL     1      36.500 -16.343 -24.065  0.00  0.00    +0.211 HD
ENDBRANCH   9  10
ENDBRANCH   8   9
ENDBRANCH   7   8
ENDBRANCH   1   7
TORSDOF 4
ENDMDL
MODEL 4
REMARK VINA RESULT:      -5.8      1.529      1.941
REMARK  Name = 31236
REMARK  4 active torsions:
REMARK  status: ('A' for Active; 'I' for Inactive)
REMARK    1  A    between atoms: C_1  and  O_7
REMARK    2  A    between atoms: O_7  and  C_8
REMARK    3  A    between atoms: C_8  and  C_9
REMARK    4  A    between atoms: C_9  and  O_10
REMARK                            x       y       z     vdW  Elec       q    Type
REMARK                         _______ _______ _______ _____ _____    ______ ____
ROOT
ATOM      1  C   UNL     1      34.484 -21.786 -19.317  0.00  0.00    +0.139 C 
ATOM      2  C   UNL     1      35.603 -21.174 -19.881  0.00  0.00    +0.037 C 
ATOM      3  C   UNL     1      33.208 -21.290 -19.587  0.00  0.00    +0.037 C 
ATOM      4  C   UNL     1      35.448 -20.067 -20.715  0.00  0.00    +0.003 C 
ATOM      5  C   UNL     1      33.053 -20.182 -20.421  0.00  0.00    +0.003 C 
ATOM      6  C   UNL     1      34.173 -19.570 -20.985  0.00  0.00    +0.000 C 
ENDROOT
BRANCH   1   7
ATOM      7  O   UNL     1      34.635 -22.866 -18.504  0.00  0.00    -0.473 OA
BRANCH   7   8
ATOM      8  C   UNL     1      33.583 -23.135 -17.578  0.00  0.00    +0.237 C 
BRANCH   8   9
ATOM      9  C   UNL     1      34.186 -23.435 -16.219  0.00  0.00    +0.185 C 
BRANCH   9  10
ATOM     10  O   UNL     1      35.603 -23.457 -16.334  0.00  0.00    -0.378 OA
ATOM     11  H   UNL     1      35.869 -22.988 -17.141  0.00  0.00    +0.211 HD
ENDBRANCH   9  10
ENDBRANCH   8   9
ENDBRANCH   7   8
ENDBRANCH   1   7
TORSDOF 4
ENDMDL
MODEL 5
REMARK VINA RESULT:      -5.8      1.553      2.273
REMARK  Name = 31236
REMARK  4 active torsions:
REMARK  status: ('A' for Active; 'I' for Inactive)
REMARK    1  A    between atoms: C_1  and  O_7
REMARK    2  A    between atoms: O_7  and  C_8
REMARK    3  A    between atoms: C_8  and  C_9
REMARK    4  A    between atoms: C_9  and  O_10
REMARK                            x       y       z     vdW  Elec       q    Type
REMARK                         _______ _______ _______ _____ _____    ______ ____
ROOT
ATOM      1  C   UNL     1      34.552 -21.762 -19.271  0.00  0.00    +0.139 C 
ATOM      2  C   UNL     1      33.274 -21.293 -19.577  0.00  0.00    +0.037 C 
ATOM      3  C   UNL     1      35.672 -21.149 -19.833  0.00  0.00    +0.037 C 
ATOM      4  C   UNL     1      33.116 -20.212 -20.444  0.00  0.00    +0.003 C 
ATOM      5  C   UNL     1      35.514 -20.069 -20.701  0.00  0.00    +0.003 C 
ATOM      6  C   UNL     1      34.236 -19.599 -21.006  0.00  0.00    +0.000 C 
ENDROOT
BRANCH   1   7
ATOM      7  O   UNL     1      34.706 -22.816 -18.425  0.00  0.00    -0.473 OA
BRANCH   7   8
ATOM      8  C   UNL     1      33.574 -23.190 -17.640  0.00  0.00    +0.237 C 
BRANCH   8   9
ATOM      9  C   UNL     1      34.003 -23.331 -16.192  0.00  0.00    +0.185 C 
BRANCH   9  10
ATOM     10  O   UNL     1      35.083 -24.254 -16.116  0.00  0.00    -0.378 OA
ATOM     11  H   UNL     1      35.918 -23.767 -16.029  0.00  0.00    +0.211 HD
ENDBRANCH   9  10
ENDBRANCH   8   9
ENDBRANCH   7   8
ENDBRANCH   1   7
TORSDOF 4
ENDMDL
MODEL 6
REMARK VINA RESULT:      -5.8      6.844      8.932
REMARK  Name = 31236
REMARK  4 active torsions:
REMARK  status: ('A' for Active; 'I' for Inactive)
REMARK    1  A    between atoms: C_1  and  O_7
REMARK    2  A    between atoms: O_7  and  C_8
REMARK    3  A    between atoms: C_8  and  C_9
REMARK    4  A    between atoms: C_9  and  O_10
REMARK                            x       y       z     vdW  Elec       q    Type
REMARK                         _______ _______ _______ _____ _____    ______ ____
ROOT
ATOM      1  C   UNL     1      34.482 -16.668 -25.087  0.00  0.00    +0.139 C 
ATOM      2  C   UNL     1      34.434 -18.061 -25.161  0.00  0.00    +0.037 C 
ATOM      3  C   UNL     1      34.854 -16.046 -23.895  0.00  0.00    +0.037 C 
ATOM      4  C   UNL     1      34.758 -18.830 -24.043  0.00  0.00    +0.003 C 
ATOM      5  C   UNL     1      35.177 -16.816 -22.778  0.00  0.00    +0.003 C 
ATOM      6  C   UNL     1      35.130 -18.208 -22.852  0.00  0.00    +0.000 C 
ENDROOT
BRANCH   1   7
ATOM      7  O   UNL     1      34.167 -15.918 -26.177  0.00  0.00    -0.473 OA
BRANCH   7   8
ATOM      8  C   UNL     1      32.934 -15.201 -26.138  0.00  0.00    +0.237 C 
BRANCH   8   9
ATOM      9  C   UNL     1      33.193 -13.751 -26.496  0.00  0.00    +0.185 C 
BRANCH   9  10
ATOM     10  O   UNL     1      33.826 -13.692 -27.768  0.00  0.00    -0.378 OA
ATOM     11  H   UNL     1      33.785 -12.784 -28.108  0.00  0.00    +0.211 HD
ENDBRANCH   9  10
ENDBRANCH   8   9
ENDBRANCH   7   8
ENDBRANCH   1   7
TORSDOF 4
ENDMDL
MODEL 7
REMARK VINA RESULT:      -5.6      4.782      6.561
REMARK  Name = 31236
REMARK  4 active torsions:
REMARK  status: ('A' for Active; 'I' for Inactive)
REMARK    1  A    between atoms: C_1  and  O_7
REMARK    2  A    between atoms: O_7  and  C_8
REMARK    3  A    between atoms: C_8  and  C_9
REMARK    4  A    between atoms: C_9  and  O_10
REMARK                            x       y       z     vdW  Elec       q    Type
REMARK                         _______ _______ _______ _____ _____    ______ ____
ROOT
ATOM      1  C   UNL     1      29.361 -22.717 -16.415  0.00  0.00    +0.139 C 
ATOM      2  C   UNL     1      30.738 -22.576 -16.592  0.00  0.00    +0.037 C 
ATOM      3  C   UNL     1      28.869 -23.625 -15.478  0.00  0.00    +0.037 C 
ATOM      4  C   UNL     1      31.622 -23.341 -15.831  0.00  0.00    +0.003 C 
ATOM      5  C   UNL     1      29.752 -24.391 -14.718  0.00  0.00    +0.003 C 
ATOM      6  C   UNL     1      31.129 -24.249 -14.894  0.00  0.00    +0.000 C 
ENDROOT
BRANCH   1   7
ATOM      7  O   UNL     1      28.499 -21.970 -17.157  0.00  0.00    -0.473 OA
BRANCH   7   8
ATOM      8  C   UNL     1      27.112 -22.072 -16.839  0.00  0.00    +0.237 C 
BRANCH   8   9
ATOM      9  C   UNL     1      26.298 -21.552 -18.008  0.00  0.00    +0.185 C 
BRANCH   9  10
ATOM     10  O   UNL     1      26.082 -20.156 -17.839  0.00  0.00    -0.378 OA
ATOM     11  H   UNL     1      26.400 -19.683 -18.624  0.00  0.00    +0.211 HD
ENDBRANCH   9  10
ENDBRANCH   8   9
ENDBRANCH   7   8
ENDBRANCH   1   7
TORSDOF 4
ENDMDL
MODEL 8
REMARK VINA RESULT:      -5.5      4.942      6.142
REMARK  Name = 31236
REMARK  4 active torsions:
REMARK  status: ('A' for Active; 'I' for Inactive)
REMARK    1  A    between atoms: C_1  and  O_7
REMARK    2  A    between atoms: O_7  and  C_8
REMARK    3  A    between atoms: C_8  and  C_9
REMARK    4  A    between atoms: C_9  and  O_10
REMARK                            x       y       z     vdW  Elec       q    Type
REMARK                         _______ _______ _______ _____ _____    ______ ____
ROOT
ATOM      1  C   UNL     1      34.987 -17.134 -21.499  0.00  0.00    +0.139 C 
ATOM      2  C   UNL     1      34.756 -18.468 -21.165  0.00  0.00    +0.037 C 
ATOM      3  C   UNL     1      35.164 -16.770 -22.834  0.00  0.00    +0.037 C 
ATOM      4  C   UNL     1      34.701 -19.439 -22.165  0.00  0.00    +0.003 C 
ATOM      5  C   UNL     1      35.110 -17.741 -23.834  0.00  0.00    +0.003 C 
ATOM      6  C   UNL     1      34.878 -19.076 -23.500  0.00  0.00    +0.000 C 
ENDROOT
BRANCH   1   7
ATOM      7  O   UNL     1      35.039 -16.187 -20.524  0.00  0.00    -0.473 OA
BRANCH   7   8
ATOM      8  C   UNL     1      34.415 -14.934 -20.800  0.00  0.00    +0.237 C 
BRANCH   8   9
ATOM      9  C   UNL     1      32.937 -15.035 -20.474  0.00  0.00    +0.185 C 
BRANCH   9  10
ATOM     10  O   UNL     1      32.191 -14.985 -21.684  0.00  0.00    -0.378 OA
ATOM     11  H   UNL     1      32.744 -15.295 -22.419  0.00  0.00    +0.211 HD
ENDBRANCH   9  10
ENDBRANCH   8   9
ENDBRANCH   7   8
ENDBRANCH   1   7
TORSDOF 4
ENDMDL
MODEL 9
REMARK VINA RESULT:      -5.5      6.232      7.615
REMARK  Name = 31236
REMARK  4 active torsions:
REMARK  status: ('A' for Active; 'I' for Inactive)
REMARK    1  A    between atoms: C_1  and  O_7
REMARK    2  A    between atoms: O_7  and  C_8
REMARK    3  A    between atoms: C_8  and  C_9
REMARK    4  A    between atoms: C_9  and  O_10
REMARK                            x       y       z     vdW  Elec       q    Type
REMARK                         _______ _______ _______ _____ _____    ______ ____
ROOT
ATOM      1  C   UNL     1      34.931 -16.378 -23.515  0.00  0.00    +0.139 C 
ATOM      2  C   UNL     1      35.298 -17.331 -22.564  0.00  0.00    +0.037 C 
ATOM      3  C   UNL     1      34.505 -16.784 -24.780  0.00  0.00    +0.037 C 
ATOM      4  C   UNL     1      35.240 -18.689 -22.878  0.00  0.00    +0.003 C 
ATOM      5  C   UNL     1      34.448 -18.142 -25.094  0.00  0.00    +0.003 C 
ATOM      6  C   UNL     1      34.814 -19.095 -24.143  0.00  0.00    +0.000 C 
ENDROOT
BRANCH   1   7
ATOM      7  O   UNL     1      34.987 -15.054 -23.209  0.00  0.00    -0.473 OA
BRANCH   7   8
ATOM      8  C   UNL     1      33.882 -14.246 -23.611  0.00  0.00    +0.237 C 
BRANCH   8   9
ATOM      9  C   UNL     1      32.833 -14.263 -22.516  0.00  0.00    +0.185 C 
BRANCH   9  10
ATOM     10  O   UNL     1      31.883 -13.235 -22.767  0.00  0.00    -0.378 OA
ATOM     11  H   UNL     1      31.007 -13.630 -22.907  0.00  0.00    +0.211 HD
ENDBRANCH   9  10
ENDBRANCH   8   9
ENDBRANCH   7   8
ENDBRANCH   1   7
TORSDOF 4
ENDMDL
