MODEL 1
REMARK VINA RESULT:      -8.7      0.000      0.000
REMARK  Name = 60490
REMARK  3 active torsions:
REMARK  status: ('A' for Active; 'I' for Inactive)
REMARK    1  A    between atoms: C_1  and  C_4
REMARK    2  A    between atoms: C_1  and  N_13
REMARK    3  A    between atoms: N_13  and  O_18
REMARK                            x       y       z     vdW  Elec       q    Type
REMARK                         _______ _______ _______ _____ _____    ______ ____
ROOT
ATOM      1  C   UNL     1      35.093 -16.743 -22.631  0.00  0.00    +0.133 C 
ATOM      2  C   UNL     1      34.907 -16.967 -24.148  0.00  0.00    +0.030 C 
ENDROOT
BRANCH   1   4
ATOM      3  S   UNL     1      36.335 -18.819 -21.317  0.00  0.00    -0.090 S 
ATOM      4  C   UNL     1      34.945 -17.983 -21.840  0.00  0.00    +0.028 C 
ATOM      5  C   UNL     1      34.030 -19.800 -20.678  0.00  0.00    +0.006 C 
ATOM      6  C   UNL     1      33.788 -18.606 -21.437  0.00  0.00    +0.004 C 
ATOM      7  C   UNL     1      35.400 -20.038 -20.535  0.00  0.00    +0.029 C 
ATOM      8  C   UNL     1      33.126 -20.716 -20.090  0.00  0.00    +0.001 C 
ATOM      9  C   UNL     1      35.883 -21.157 -19.827  0.00  0.00    +0.006 C 
ATOM     10  C   UNL     1      33.601 -21.825 -19.385  0.00  0.00    +0.000 C 
ATOM     11  C   UNL     1      34.965 -22.042 -19.257  0.00  0.00    +0.001 C 
ENDBRANCH   1   4
BRANCH   1  13
ATOM     12  O   UNL     1      34.951 -15.398 -20.069  0.00  0.00    -0.251 OA
ATOM     13  N   UNL     1      34.163 -15.676 -22.203  0.00  0.00    -0.154 N 
ATOM     14  N   UNL     1      33.200 -14.137 -20.812  0.00  0.00    -0.312 N 
ATOM     15  C   UNL     1      34.172 -15.103 -20.977  0.00  0.00    +0.323 C 
ATOM     16  H   UNL     1      33.121 -13.660 -19.954  0.00  0.00    +0.147 HD
ATOM     17  H   UNL     1      32.585 -13.927 -21.551  0.00  0.00    +0.147 HD
BRANCH  13  18
ATOM     18  O   UNL     1      33.278 -15.334 -23.218  0.00  0.00    -0.290 OA
ATOM     19  H   UNL     1      32.897 -16.141 -23.600  0.00  0.00    +0.242 HD
ENDBRANCH  13  18
ENDBRANCH   1  13
TORSDOF 3
ENDMDL
MODEL 2
REMARK VINA RESULT:      -8.2      7.281      9.338
REMARK  Name = 60490
REMARK  3 active torsions:
REMARK  status: ('A' for Active; 'I' for Inactive)
REMARK    1  A    between atoms: C_1  and  C_4
REMARK    2  A    between atoms: C_1  and  N_13
REMARK    3  A    between atoms: N_13  and  O_18
REMARK                            x       y       z     vdW  Elec       q    Type
REMARK                         _______ _______ _______ _____ _____    ______ ____
ROOT
ATOM      1  C   UNL     1      36.673 -23.644 -14.320  0.00  0.00    +0.133 C 
ATOM      2  C   UNL     1      35.528 -24.041 -13.362  0.00  0.00    +0.030 C 
ENDROOT
BRANCH   1   4
ATOM      3  S   UNL     1      34.569 -23.379 -16.076  0.00  0.00    -0.090 S 
ATOM      4  C   UNL     1      36.188 -23.117 -15.614  0.00  0.00    +0.028 C 
ATOM      5  C   UNL     1      36.085 -22.056 -17.700  0.00  0.00    +0.006 C 
ATOM      6  C   UNL     1      36.886 -22.404 -16.560  0.00  0.00    +0.004 C 
ATOM      7  C   UNL     1      34.778 -22.533 -17.564  0.00  0.00    +0.029 C 
ATOM      8  C   UNL     1      36.418 -21.338 -18.873  0.00  0.00    +0.001 C 
ATOM      9  C   UNL     1      33.807 -22.314 -18.561  0.00  0.00    +0.006 C 
ATOM     10  C   UNL     1      35.457 -21.117 -19.863  0.00  0.00    +0.000 C 
ATOM     11  C   UNL     1      34.166 -21.601 -19.707  0.00  0.00    +0.001 C 
ENDBRANCH   1   4
BRANCH   1  13
ATOM     12  O   UNL     1      39.054 -24.301 -12.805  0.00  0.00    -0.251 OA
ATOM     13  N   UNL     1      37.571 -24.809 -14.477  0.00  0.00    -0.154 N 
ATOM     14  N   UNL     1      39.351 -26.184 -14.061  0.00  0.00    -0.312 N 
ATOM     15  C   UNL     1      38.667 -25.034 -13.717  0.00  0.00    +0.323 C 
ATOM     16  H   UNL     1      40.165 -26.438 -13.569  0.00  0.00    +0.147 HD
ATOM     17  H   UNL     1      39.025 -26.748 -14.798  0.00  0.00    +0.147 HD
BRANCH  13  18
ATOM     18  O   UNL     1      37.147 -25.645 -15.502  0.00  0.00    -0.290 OA
ATOM     19  H   UNL     1      36.292 -26.039 -15.266  0.00  0.00    +0.242 HD
ENDBRANCH  13  18
ENDBRANCH   1  13
TORSDOF 3
ENDMDL
MODEL 3
REMARK VINA RESULT:      -7.9      3.412      5.776
REMARK  Name = 60490
REMARK  3 active torsions:
REMARK  status: ('A' for Active; 'I' for Inactive)
REMARK    1  A    between atoms: C_1  and  C_4
REMARK    2  A    between atoms: C_1  and  N_13
REMARK    3  A    between atoms: N_13  and  O_18
REMARK                            x       y       z     vdW  Elec       q    Type
REMARK                         _______ _______ _______ _____ _____    ______ ____
ROOT
ATOM      1  C   UNL     1      35.331 -20.488 -20.867  0.00  0.00    +0.133 C 
ATOM      2  C   UNL     1      36.467 -20.231 -19.853  0.00  0.00    +0.030 C 
ENDROOT
BRANCH   1   4
ATOM      3  S   UNL     1      35.194 -17.756 -21.183  0.00  0.00    -0.090 S 
ATOM      4  C   UNL     1      35.104 -19.349 -21.783  0.00  0.00    +0.028 C 
ATOM      5  C   UNL     1      34.658 -18.069 -23.693  0.00  0.00    +0.006 C 
ATOM      6  C   UNL     1      34.814 -19.378 -23.126  0.00  0.00    +0.004 C 
ATOM      7  C   UNL     1      34.843 -17.075 -22.727  0.00  0.00    +0.029 C 
ATOM      8  C   UNL     1      34.362 -17.669 -25.018  0.00  0.00    +0.001 C 
ATOM      9  C   UNL     1      34.737 -15.707 -23.049  0.00  0.00    +0.006 C 
ATOM     10  C   UNL     1      34.258 -16.313 -25.341  0.00  0.00    +0.000 C 
ATOM     11  C   UNL     1      34.444 -15.345 -24.365  0.00  0.00    +0.001 C 
ENDBRANCH   1   4
BRANCH   1  13
ATOM     12  O   UNL     1      34.879 -22.850 -19.250  0.00  0.00    -0.251 OA
ATOM     13  N   UNL     1      34.115 -20.869 -20.115  0.00  0.00    -0.154 N 
ATOM     14  N   UNL     1      32.761 -22.140 -18.781  0.00  0.00    -0.312 N 
ATOM     15  C   UNL     1      33.996 -22.000 -19.382  0.00  0.00    +0.323 C 
ATOM     16  H   UNL     1      32.571 -22.930 -18.225  0.00  0.00    +0.147 HD
ATOM     17  H   UNL     1      32.071 -21.450 -18.908  0.00  0.00    +0.147 HD
BRANCH  13  18
ATOM     18  O   UNL     1      33.111 -19.920 -20.256  0.00  0.00    -0.290 OA
ATOM     19  H   UNL     1      32.248 -20.337 -20.108  0.00  0.00    +0.242 HD
ENDBRANCH  13  18
ENDBRANCH   1  13
TORSDOF 3
ENDMDL
MODEL 4
REMARK VINA RESULT:      -7.9      8.730      9.836
REMARK  Name = 60490
REMARK  3 active torsions:
REMARK  status: ('A' for Active; 'I' for Inactive)
REMARK    1  A    between atoms: C_1  and  C_4
REMARK    2  A    between atoms: C_1  and  N_13
REMARK    3  A    between atoms: N_13  and  O_18
REMARK                            x       y       z     vdW  Elec       q    Type
REMARK                         _______ _______ _______ _____ _____    ______ ____
ROOT
ATOM      1  C   UNL     1      36.430 -23.886 -15.688  0.00  0.00    +0.133 C 
ATOM      2  C   UNL     1      37.218 -22.573 -15.492  0.00  0.00    +0.030 C 
ENDROOT
BRANCH   1   4
ATOM      3  S   UNL     1      34.274 -23.945 -13.977  0.00  0.00    -0.090 S 
ATOM      4  C   UNL     1      34.971 -23.717 -15.515  0.00  0.00    +0.028 C 
ATOM      5  C   UNL     1      32.701 -23.310 -15.928  0.00  0.00    +0.006 C 
ATOM      6  C   UNL     1      34.032 -23.384 -16.462  0.00  0.00    +0.004 C 
ATOM      7  C   UNL     1      32.689 -23.598 -14.560  0.00  0.00    +0.029 C 
ATOM      8  C   UNL     1      31.472 -23.003 -16.559  0.00  0.00    +0.001 C 
ATOM      9  C   UNL     1      31.492 -23.588 -13.817  0.00  0.00    +0.006 C 
ATOM     10  C   UNL     1      30.284 -22.991 -15.825  0.00  0.00    +0.000 C 
ATOM     11  C   UNL     1      30.296 -23.281 -14.468  0.00  0.00    +0.001 C 
ENDBRANCH   1   4
BRANCH   1  13
ATOM     12  O   UNL     1      36.319 -26.771 -15.932  0.00  0.00    -0.251 OA
ATOM     13  N   UNL     1      36.999 -24.908 -14.783  0.00  0.00    -0.154 N 
ATOM     14  N   UNL     1      37.501 -26.994 -13.993  0.00  0.00    -0.312 N 
ATOM     15  C   UNL     1      36.897 -26.243 -14.981  0.00  0.00    +0.323 C 
ATOM     16  H   UNL     1      37.482 -27.978 -14.041  0.00  0.00    +0.147 HD
ATOM     17  H   UNL     1      37.949 -26.548 -13.239  0.00  0.00    +0.147 HD
BRANCH  13  18
ATOM     18  O   UNL     1      37.653 -24.326 -13.705  0.00  0.00    -0.290 OA
ATOM     19  H   UNL     1      37.229 -24.608 -12.879  0.00  0.00    +0.242 HD
ENDBRANCH  13  18
ENDBRANCH   1  13
TORSDOF 3
ENDMDL
MODEL 5
REMARK VINA RESULT:      -7.7      8.716     10.541
REMARK  Name = 60490
REMARK  3 active torsions:
REMARK  status: ('A' for Active; 'I' for Inactive)
REMARK    1  A    between atoms: C_1  and  C_4
REMARK    2  A    between atoms: C_1  and  N_13
REMARK    3  A    between atoms: N_13  and  O_18
REMARK                            x       y       z     vdW  Elec       q    Type
REMARK                         _______ _______ _______ _____ _____    ______ ____
ROOT
ATOM      1  C   UNL     1      36.574 -24.158 -12.849  0.00  0.00    +0.133 C 
ATOM      2  C   UNL     1      36.204 -24.280 -11.354  0.00  0.00    +0.030 C 
ENDROOT
BRANCH   1   4
ATOM      3  S   UNL     1      35.634 -23.523 -15.358  0.00  0.00    -0.090 S 
ATOM      4  C   UNL     1      35.400 -23.925 -13.718  0.00  0.00    +0.028 C 
ATOM      5  C   UNL     1      33.202 -23.698 -14.496  0.00  0.00    +0.006 C 
ATOM      6  C   UNL     1      34.067 -23.986 -13.387  0.00  0.00    +0.004 C 
ATOM      7  C   UNL     1      33.938 -23.424 -15.653  0.00  0.00    +0.029 C 
ATOM      8  C   UNL     1      31.790 -23.658 -14.575  0.00  0.00    +0.001 C 
ATOM      9  C   UNL     1      33.304 -23.112 -16.872  0.00  0.00    +0.006 C 
ATOM     10  C   UNL     1      31.158 -23.350 -15.783  0.00  0.00    +0.000 C 
ATOM     11  C   UNL     1      31.908 -23.080 -16.917  0.00  0.00    +0.001 C 
ENDBRANCH   1   4
BRANCH   1  13
ATOM     12  O   UNL     1      39.014 -24.311 -14.403  0.00  0.00    -0.251 OA
ATOM     13  N   UNL     1      37.344 -25.360 -13.236  0.00  0.00    -0.154 N 
ATOM     14  N   UNL     1      39.011 -26.585 -14.209  0.00  0.00    -0.312 N 
ATOM     15  C   UNL     1      38.481 -25.333 -13.968  0.00  0.00    +0.323 C 
ATOM     16  H   UNL     1      39.839 -26.676 -14.735  0.00  0.00    +0.147 HD
ATOM     17  H   UNL     1      38.561 -27.386 -13.857  0.00  0.00    +0.147 HD
BRANCH  13  18
ATOM     18  O   UNL     1      36.753 -26.520 -12.752  0.00  0.00    -0.290 OA
ATOM     19  H   UNL     1      35.913 -26.673 -13.214  0.00  0.00    +0.242 HD
ENDBRANCH  13  18
ENDBRANCH   1  13
TORSDOF 3
ENDMDL
MODEL 6
REMARK VINA RESULT:      -7.6      3.367      4.746
REMARK  Name = 60490
REMARK  3 active torsions:
REMARK  status: ('A' for Active; 'I' for Inactive)
REMARK    1  A    between atoms: C_1  and  C_4
REMARK    2  A    between atoms: C_1  and  N_13
REMARK    3  A    between atoms: N_13  and  O_18
REMARK                            x       y       z     vdW  Elec       q    Type
REMARK                         _______ _______ _______ _____ _____    ______ ____
ROOT
ATOM      1  C   UNL     1      33.703 -12.854 -23.507  0.00  0.00    +0.133 C 
ATOM      2  C   UNL     1      33.640 -12.203 -24.906  0.00  0.00    +0.030 C 
ENDROOT
BRANCH   1   4
ATOM      3  S   UNL     1      33.716 -15.189 -24.966  0.00  0.00    -0.090 S 
ATOM      4  C   UNL     1      34.042 -14.293 -23.554  0.00  0.00    +0.028 C 
ATOM      5  C   UNL     1      34.796 -16.433 -22.974  0.00  0.00    +0.006 C 
ATOM      6  C   UNL     1      34.613 -15.067 -22.572  0.00  0.00    +0.004 C 
ATOM      7  C   UNL     1      34.342 -16.642 -24.280  0.00  0.00    +0.029 C 
ATOM      8  C   UNL     1      35.341 -17.534 -22.271  0.00  0.00    +0.001 C 
ATOM      9  C   UNL     1      34.417 -17.908 -24.893  0.00  0.00    +0.006 C 
ATOM     10  C   UNL     1      35.418 -18.791 -22.876  0.00  0.00    +0.000 C 
ATOM     11  C   UNL     1      34.960 -18.974 -24.173  0.00  0.00    +0.001 C 
ENDBRANCH   1   4
BRANCH   1  13
ATOM     12  O   UNL     1      32.594 -10.307 -22.682  0.00  0.00    -0.251 OA
ATOM     13  N   UNL     1      32.423 -12.589 -22.814  0.00  0.00    -0.154 N 
ATOM     14  N   UNL     1      30.766 -11.366 -21.820  0.00  0.00    -0.312 N 
ATOM     15  C   UNL     1      31.985 -11.357 -22.467  0.00  0.00    +0.323 C 
ATOM     16  H   UNL     1      30.359 -10.520 -21.524  0.00  0.00    +0.147 HD
ATOM     17  H   UNL     1      30.304 -12.219 -21.654  0.00  0.00    +0.147 HD
BRANCH  13  18
ATOM     18  O   UNL     1      31.726 -13.764 -22.565  0.00  0.00    -0.290 OA
ATOM     19  H   UNL     1      30.844 -13.551 -22.220  0.00  0.00    +0.242 HD
ENDBRANCH  13  18
ENDBRANCH   1  13
TORSDOF 3
ENDMDL
MODEL 7
REMARK VINA RESULT:      -7.6      8.655     10.280
REMARK  Name = 60490
REMARK  3 active torsions:
REMARK  status: ('A' for Active; 'I' for Inactive)
REMARK    1  A    between atoms: C_1  and  C_4
REMARK    2  A    between atoms: C_1  and  N_13
REMARK    3  A    between atoms: N_13  and  O_18
REMARK                            x       y       z     vdW  Elec       q    Type
REMARK                         _______ _______ _______ _____ _____    ______ ____
ROOT
ATOM      1  C   UNL     1      35.977 -24.873 -13.713  0.00  0.00    +0.133 C 
ATOM      2  C   UNL     1      37.063 -25.006 -14.802  0.00  0.00    +0.030 C 
ENDROOT
BRANCH   1   4
ATOM      3  S   UNL     1      34.577 -23.876 -15.864  0.00  0.00    -0.090 S 
ATOM      4  C   UNL     1      34.685 -24.383 -14.241  0.00  0.00    +0.028 C 
ATOM      5  C   UNL     1      32.437 -23.749 -14.419  0.00  0.00    +0.006 C 
ATOM      6  C   UNL     1      33.484 -24.266 -13.583  0.00  0.00    +0.004 C 
ATOM      7  C   UNL     1      32.904 -23.489 -15.711  0.00  0.00    +0.029 C 
ATOM      8  C   UNL     1      31.077 -23.482 -14.132  0.00  0.00    +0.001 C 
ATOM      9  C   UNL     1      32.055 -22.973 -16.710  0.00  0.00    +0.006 C 
ATOM     10  C   UNL     1      30.232 -22.973 -15.121  0.00  0.00    +0.000 C 
ATOM     11  C   UNL     1      30.718 -22.721 -16.396  0.00  0.00    +0.001 C 
ENDBRANCH   1   4
BRANCH   1  13
ATOM     12  O   UNL     1      35.469 -25.052 -10.866  0.00  0.00    -0.251 OA
ATOM     13  N   UNL     1      36.512 -24.021 -12.628  0.00  0.00    -0.154 N 
ATOM     14  N   UNL     1      36.830 -23.258 -10.496  0.00  0.00    -0.312 N 
ATOM     15  C   UNL     1      36.216 -24.182 -11.317  0.00  0.00    +0.323 C 
ATOM     16  H   UNL     1      36.679 -23.287  -9.523  0.00  0.00    +0.147 HD
ATOM     17  H   UNL     1      37.416 -22.568 -10.882  0.00  0.00    +0.147 HD
BRANCH  13  18
ATOM     18  O   UNL     1      37.356 -23.036 -13.123  0.00  0.00    -0.290 OA
ATOM     19  H   UNL     1      37.862 -22.646 -12.392  0.00  0.00    +0.242 HD
ENDBRANCH  13  18
ENDBRANCH   1  13
TORSDOF 3
ENDMDL
MODEL 8
REMARK VINA RESULT:      -7.6      5.342      8.823
REMARK  Name = 60490
REMARK  3 active torsions:
REMARK  status: ('A' for Active; 'I' for Inactive)
REMARK    1  A    between atoms: C_1  and  C_4
REMARK    2  A    between atoms: C_1  and  N_13
REMARK    3  A    between atoms: N_13  and  O_18
REMARK                            x       y       z     vdW  Elec       q    Type
REMARK                         _______ _______ _______ _____ _____    ______ ____
ROOT
ATOM      1  C   UNL     1      32.862 -13.567 -23.515  0.00  0.00    +0.133 C 
ATOM      2  C   UNL     1      32.961 -14.164 -24.935  0.00  0.00    +0.030 C 
ENDROOT
BRANCH   1   4
ATOM      3  S   UNL     1      32.101 -11.098 -22.562  0.00  0.00    -0.090 S 
ATOM      4  C   UNL     1      33.119 -12.111 -23.480  0.00  0.00    +0.028 C 
ATOM      5  C   UNL     1      34.053  -9.995 -23.850  0.00  0.00    +0.006 C 
ATOM      6  C   UNL     1      34.113 -11.404 -24.114  0.00  0.00    +0.004 C 
ATOM      7  C   UNL     1      32.985  -9.684 -23.002  0.00  0.00    +0.029 C 
ATOM      8  C   UNL     1      34.878  -8.937 -24.302  0.00  0.00    +0.001 C 
ATOM      9  C   UNL     1      32.724  -8.359 -22.602  0.00  0.00    +0.006 C 
ATOM     10  C   UNL     1      34.623  -7.622 -23.906  0.00  0.00    +0.000 C 
ATOM     11  C   UNL     1      33.556  -7.338 -23.065  0.00  0.00    +0.001 C 
ENDBRANCH   1   4
BRANCH   1  13
ATOM     12  O   UNL     1      32.616 -14.037 -20.666  0.00  0.00    -0.251 OA
ATOM     13  N   UNL     1      33.766 -14.329 -22.627  0.00  0.00    -0.154 N 
ATOM     14  N   UNL     1      34.556 -15.239 -20.683  0.00  0.00    -0.312 N 
ATOM     15  C   UNL     1      33.568 -14.497 -21.299  0.00  0.00    +0.323 C 
ATOM     16  H   UNL     1      34.506 -15.418 -19.716  0.00  0.00    +0.147 HD
ATOM     17  H   UNL     1      35.310 -15.588 -21.210  0.00  0.00    +0.147 HD
BRANCH  13  18
ATOM     18  O   UNL     1      34.845 -14.853 -23.328  0.00  0.00    -0.290 OA
ATOM     19  H   UNL     1      34.827 -15.822 -23.274  0.00  0.00    +0.242 HD
ENDBRANCH  13  18
ENDBRANCH   1  13
TORSDOF 3
ENDMDL
MODEL 9
REMARK VINA RESULT:      -7.6      3.627      5.161
REMARK  Name = 60490
REMARK  3 active torsions:
REMARK  status: ('A' for Active; 'I' for Inactive)
REMARK    1  A    between atoms: C_1  and  C_4
REMARK    2  A    between atoms: C_1  and  N_13
REMARK    3  A    between atoms: N_13  and  O_18
REMARK                            x       y       z     vdW  Elec       q    Type
REMARK                         _______ _______ _______ _____ _____    ______ ____
ROOT
ATOM      1  C   UNL     1      32.913 -13.034 -23.919  0.00  0.00    +0.133 C 
ATOM      2  C   UNL     1      32.325 -12.423 -22.629  0.00  0.00    +0.030 C 
ENDROOT
BRANCH   1   4
ATOM      3  S   UNL     1      34.179 -14.741 -22.168  0.00  0.00    -0.090 S 
ATOM      4  C   UNL     1      33.540 -14.356 -23.700  0.00  0.00    +0.028 C 
ATOM      5  C   UNL     1      34.356 -16.527 -24.029  0.00  0.00    +0.006 C 
ATOM      6  C   UNL     1      33.697 -15.385 -24.597  0.00  0.00    +0.004 C 
ATOM      7  C   UNL     1      34.679 -16.307 -22.686  0.00  0.00    +0.029 C 
ATOM      8  C   UNL     1      34.703 -17.771 -24.606  0.00  0.00    +0.001 C 
ATOM      9  C   UNL     1      35.334 -17.289 -21.917  0.00  0.00    +0.006 C 
ATOM     10  C   UNL     1      35.351 -18.748 -23.845  0.00  0.00    +0.000 C 
ATOM     11  C   UNL     1      35.663 -18.507 -22.515  0.00  0.00    +0.001 C 
ENDBRANCH   1   4
BRANCH   1  13
ATOM     12  O   UNL     1      33.464 -12.542 -26.721  0.00  0.00    -0.251 OA
ATOM     13  N   UNL     1      33.844 -12.051 -24.515  0.00  0.00    -0.154 N 
ATOM     14  N   UNL     1      34.963 -10.917 -26.155  0.00  0.00    -0.312 N 
ATOM     15  C   UNL     1      34.036 -11.891 -25.844  0.00  0.00    +0.323 C 
ATOM     16  H   UNL     1      35.177 -10.723 -27.096  0.00  0.00    +0.147 HD
ATOM     17  H   UNL     1      35.412 -10.418 -25.436  0.00  0.00    +0.147 HD
BRANCH  13  18
ATOM     18  O   UNL     1      34.497 -11.311 -23.537  0.00  0.00    -0.290 OA
ATOM     19  H   UNL     1      34.159 -10.401 -23.540  0.00  0.00    +0.242 HD
ENDBRANCH  13  18
ENDBRANCH   1  13
TORSDOF 3
ENDMDL
