MODEL 1
REMARK VINA RESULT:      -8.0      0.000      0.000
REMARK  Name = 444765
REMARK  5 active torsions:
REMARK  status: ('A' for Active; 'I' for Inactive)
REMARK    1  A    between atoms: C_7  and  C_19
REMARK    2  A    between atoms: C_9  and  N_11
REMARK    3  A    between atoms: C_12  and  C_15
REMARK    4  A    between atoms: C_15  and  O_16
REMARK    5  A    between atoms: C_19  and  O_20
REMARK                            x       y       z     vdW  Elec       q    Type
REMARK                         _______ _______ _______ _____ _____    ______ ____
ROOT
ATOM      1  S   UNL     1      36.487 -23.704 -15.713  0.00  0.00    -0.074 S 
ATOM      2  O   UNL     1      32.524 -23.590 -15.233  0.00  0.00    -0.348 OA
ATOM      3  C   UNL     1      34.825 -24.207 -13.819  0.00  0.00    -0.007 A 
ATOM      4  C   UNL     1      33.510 -24.286 -13.118  0.00  0.00    +0.059 C 
ATOM      5  C   UNL     1      34.905 -23.686 -15.095  0.00  0.00    +0.034 A 
ATOM      6  C   UNL     1      32.495 -23.368 -13.813  0.00  0.00    +0.147 C 
ATOM      7  C   UNL     1      36.098 -24.637 -13.346  0.00  0.00    +0.091 A 
ATOM      8  C   UNL     1      33.743 -23.130 -15.848  0.00  0.00    +0.175 C 
ATOM      9  C   UNL     1      37.092 -24.420 -14.277  0.00  0.00    +0.087 A 
ENDROOT
BRANCH   9  11
ATOM     10  O   UNL     1      38.555 -26.993 -14.733  0.00  0.00    -0.263 OA
ATOM     11  N   UNL     1      38.435 -24.679 -14.241  0.00  0.00    -0.270 N 
ATOM     12  C   UNL     1      39.054 -25.912 -14.465  0.00  0.00    +0.326 C 
ATOM     13  H   UNL     1      39.027 -23.920 -14.036  0.00  0.00    +0.156 HD
BRANCH  12  15
ATOM     14  O   UNL     1      41.256 -26.784 -14.035  0.00  0.00    -0.240 OA
ATOM     15  C   UNL     1      40.564 -25.834 -14.343  0.00  0.00    +0.393 C 
BRANCH  15  16
ATOM     16  O   UNL     1      40.987 -24.592 -14.618  0.00  0.00    -0.474 OA
ATOM     17  H   UNL     1      41.532 -24.136 -14.007  0.00  0.00    +0.296 HD
ENDBRANCH  15  16
ENDBRANCH  12  15
ENDBRANCH   9  11
BRANCH   7  19
ATOM     18  O   UNL     1      36.176 -24.670 -10.972  0.00  0.00    -0.245 OA
ATOM     19  C   UNL     1      36.355 -25.231 -12.059  0.00  0.00    +0.339 C 
BRANCH  19  20
ATOM     20  O   UNL     1      36.831 -26.515 -12.105  0.00  0.00    -0.477 OA
ATOM     21  H   UNL     1      37.246 -26.888 -11.352  0.00  0.00    +0.295 HD
ENDBRANCH  19  20
ENDBRANCH   7  19
TORSDOF 5
ENDMDL
MODEL 2
REMARK VINA RESULT:      -7.9      4.000      7.942
REMARK  Name = 444765
REMARK  5 active torsions:
REMARK  status: ('A' for Active; 'I' for Inactive)
REMARK    1  A    between atoms: C_7  and  C_19
REMARK    2  A    between atoms: C_9  and  N_11
REMARK    3  A    between atoms: C_12  and  C_15
REMARK    4  A    between atoms: C_15  and  O_16
REMARK    5  A    between atoms: C_19  and  O_20
REMARK                            x       y       z     vdW  Elec       q    Type
REMARK                         _______ _______ _______ _____ _____    ______ ____
ROOT
ATOM      1  S   UNL     1      32.679 -22.957 -17.010  0.00  0.00    -0.074 S 
ATOM      2  O   UNL     1      35.808 -23.179 -14.537  0.00  0.00    -0.348 OA
ATOM      3  C   UNL     1      33.120 -23.843 -14.639  0.00  0.00    -0.007 A 
ATOM      4  C   UNL     1      33.905 -24.213 -13.424  0.00  0.00    +0.059 C 
ATOM      5  C   UNL     1      33.757 -23.325 -15.748  0.00  0.00    +0.034 A 
ATOM      6  C   UNL     1      35.393 -24.330 -13.783  0.00  0.00    +0.147 C 
ATOM      7  C   UNL     1      31.712 -23.931 -14.832  0.00  0.00    +0.091 A 
ATOM      8  C   UNL     1      35.232 -23.137 -15.858  0.00  0.00    +0.175 C 
ATOM      9  C   UNL     1      31.337 -23.482 -16.081  0.00  0.00    +0.087 A 
ENDROOT
BRANCH   9  11
ATOM     10  O   UNL     1      28.929 -21.904 -15.256  0.00  0.00    -0.263 OA
ATOM     11  N   UNL     1      30.107 -23.389 -16.676  0.00  0.00    -0.270 N 
ATOM     12  C   UNL     1      29.022 -22.629 -16.233  0.00  0.00    +0.326 C 
ATOM     13  H   UNL     1      29.974 -23.912 -17.499  0.00  0.00    +0.156 HD
BRANCH  12  15
ATOM     14  O   UNL     1      27.489 -23.809 -17.666  0.00  0.00    -0.240 OA
ATOM     15  C   UNL     1      27.812 -22.764 -17.138  0.00  0.00    +0.393 C 
BRANCH  15  16
ATOM     16  O   UNL     1      27.186 -21.583 -17.255  0.00  0.00    -0.474 OA
ATOM     17  H   UNL     1      27.125 -21.165 -18.091  0.00  0.00    +0.296 HD
ENDBRANCH  15  16
ENDBRANCH  12  15
ENDBRANCH   9  11
BRANCH   7  19
ATOM     18  O   UNL     1      30.609 -23.960 -12.729  0.00  0.00    -0.245 OA
ATOM     19  C   UNL     1      30.763 -24.422 -13.866  0.00  0.00    +0.339 C 
BRANCH  19  20
ATOM     20  O   UNL     1      30.001 -25.477 -14.294  0.00  0.00    -0.477 OA
ATOM     21  H   UNL     1      29.066 -25.414 -14.283  0.00  0.00    +0.295 HD
ENDBRANCH  19  20
ENDBRANCH   7  19
TORSDOF 5
ENDMDL
MODEL 3
REMARK VINA RESULT:      -7.9      3.782      8.036
REMARK  Name = 444765
REMARK  5 active torsions:
REMARK  status: ('A' for Active; 'I' for Inactive)
REMARK    1  A    between atoms: C_7  and  C_19
REMARK    2  A    between atoms: C_9  and  N_11
REMARK    3  A    between atoms: C_12  and  C_15
REMARK    4  A    between atoms: C_15  and  O_16
REMARK    5  A    between atoms: C_19  and  O_20
REMARK                            x       y       z     vdW  Elec       q    Type
REMARK                         _______ _______ _______ _____ _____    ______ ____
ROOT
ATOM      1  S   UNL     1      31.839 -23.429 -14.147  0.00  0.00    -0.074 S 
ATOM      2  O   UNL     1      35.585 -24.653 -13.498  0.00  0.00    -0.348 OA
ATOM      3  C   UNL     1      33.989 -23.662 -15.534  0.00  0.00    -0.007 A 
ATOM      4  C   UNL     1      35.430 -23.930 -15.817  0.00  0.00    +0.059 C 
ATOM      5  C   UNL     1      33.503 -23.757 -14.246  0.00  0.00    +0.034 A 
ATOM      6  C   UNL     1      36.236 -23.871 -14.513  0.00  0.00    +0.147 C 
ATOM      7  C   UNL     1      32.963 -23.320 -16.460  0.00  0.00    +0.091 A 
ATOM      8  C   UNL     1      34.342 -24.073 -13.054  0.00  0.00    +0.175 C 
ATOM      9  C   UNL     1      31.741 -23.163 -15.838  0.00  0.00    +0.087 A 
ENDROOT
BRANCH   9  11
ATOM     10  O   UNL     1      29.227 -24.788 -15.908  0.00  0.00    -0.263 OA
ATOM     11  N   UNL     1      30.508 -22.842 -16.337  0.00  0.00    -0.270 N 
ATOM     12  C   UNL     1      29.371 -23.654 -16.337  0.00  0.00    +0.326 C 
ATOM     13  H   UNL     1      30.412 -21.949 -16.738  0.00  0.00    +0.156 HD
BRANCH  12  15
ATOM     14  O   UNL     1      27.911 -21.801 -16.815  0.00  0.00    -0.240 OA
ATOM     15  C   UNL     1      28.174 -22.976 -16.976  0.00  0.00    +0.393 C 
BRANCH  15  16
ATOM     16  O   UNL     1      27.483 -23.856 -17.715  0.00  0.00    -0.474 OA
ATOM     17  H   UNL     1      26.562 -23.738 -17.846  0.00  0.00    +0.296 HD
ENDBRANCH  15  16
ENDBRANCH  12  15
ENDBRANCH   9  11
BRANCH   7  19
ATOM     18  O   UNL     1      33.820 -23.891 -18.601  0.00  0.00    -0.245 OA
ATOM     19  C   UNL     1      33.138 -23.152 -17.880  0.00  0.00    +0.339 C 
BRANCH  19  20
ATOM     20  O   UNL     1      32.477 -22.079 -18.417  0.00  0.00    -0.477 OA
ATOM     21  H   UNL     1      32.856 -21.223 -18.369  0.00  0.00    +0.295 HD
ENDBRANCH  19  20
ENDBRANCH   7  19
TORSDOF 5
ENDMDL
MODEL 4
REMARK VINA RESULT:      -7.8      2.661      4.277
REMARK  Name = 444765
REMARK  5 active torsions:
REMARK  status: ('A' for Active; 'I' for Inactive)
REMARK    1  A    between atoms: C_7  and  C_19
REMARK    2  A    between atoms: C_9  and  N_11
REMARK    3  A    between atoms: C_12  and  C_15
REMARK    4  A    between atoms: C_15  and  O_16
REMARK    5  A    between atoms: C_19  and  O_20
REMARK                            x       y       z     vdW  Elec       q    Type
REMARK                         _______ _______ _______ _____ _____    ______ ____
ROOT
ATOM      1  S   UNL     1      33.859 -23.443 -14.815  0.00  0.00    -0.074 S 
ATOM      2  O   UNL     1      32.700 -22.525 -18.525  0.00  0.00    -0.348 OA
ATOM      3  C   UNL     1      34.994 -22.641 -16.976  0.00  0.00    -0.007 A 
ATOM      4  C   UNL     1      35.118 -22.260 -18.414  0.00  0.00    +0.059 C 
ATOM      5  C   UNL     1      33.785 -23.078 -16.473  0.00  0.00    +0.034 A 
ATOM      6  C   UNL     1      33.931 -22.824 -19.205  0.00  0.00    +0.147 C 
ATOM      7  C   UNL     1      35.999 -22.599 -15.968  0.00  0.00    +0.091 A 
ATOM      8  C   UNL     1      32.550 -23.253 -17.290  0.00  0.00    +0.175 C 
ATOM      9  C   UNL     1      35.517 -23.011 -14.744  0.00  0.00    +0.087 A 
ENDROOT
BRANCH   9  11
ATOM     10  O   UNL     1      37.326 -25.158 -13.704  0.00  0.00    -0.263 OA
ATOM     11  N   UNL     1      36.127 -23.124 -13.524  0.00  0.00    -0.270 N 
ATOM     12  C   UNL     1      36.964 -24.160 -13.103  0.00  0.00    +0.326 C 
ATOM     13  H   UNL     1      35.959 -22.402 -12.877  0.00  0.00    +0.156 HD
BRANCH  12  15
ATOM     14  O   UNL     1      36.850 -24.332 -10.704  0.00  0.00    -0.240 OA
ATOM     15  C   UNL     1      37.465 -23.962 -11.684  0.00  0.00    +0.393 C 
BRANCH  15  16
ATOM     16  O   UNL     1      38.649 -23.332 -11.695  0.00  0.00    -0.474 OA
ATOM     17  H   UNL     1      38.703 -22.429 -11.449  0.00  0.00    +0.296 HD
ENDBRANCH  15  16
ENDBRANCH  12  15
ENDBRANCH   9  11
BRANCH   7  19
ATOM     18  O   UNL     1      38.358 -22.887 -15.950  0.00  0.00    -0.245 OA
ATOM     19  C   UNL     1      37.364 -22.181 -16.164  0.00  0.00    +0.339 C 
BRANCH  19  20
ATOM     20  O   UNL     1      37.513 -20.900 -16.624  0.00  0.00    -0.477 OA
ATOM     21  H   UNL     1      38.305 -20.645 -17.056  0.00  0.00    +0.295 HD
ENDBRANCH  19  20
ENDBRANCH   7  19
TORSDOF 5
ENDMDL
MODEL 5
REMARK VINA RESULT:      -7.8      2.522      3.904
REMARK  Name = 444765
REMARK  5 active torsions:
REMARK  status: ('A' for Active; 'I' for Inactive)
REMARK    1  A    between atoms: C_7  and  C_19
REMARK    2  A    between atoms: C_9  and  N_11
REMARK    3  A    between atoms: C_12  and  C_15
REMARK    4  A    between atoms: C_15  and  O_16
REMARK    5  A    between atoms: C_19  and  O_20
REMARK                            x       y       z     vdW  Elec       q    Type
REMARK                         _______ _______ _______ _____ _____    ______ ____
ROOT
ATOM      1  S   UNL     1      37.164 -22.101 -16.263  0.00  0.00    -0.074 S 
ATOM      2  O   UNL     1      35.144 -22.187 -19.707  0.00  0.00    -0.348 OA
ATOM      3  C   UNL     1      34.801 -22.766 -17.019  0.00  0.00    -0.007 A 
ATOM      4  C   UNL     1      33.641 -22.937 -17.944  0.00  0.00    +0.059 C 
ATOM      5  C   UNL     1      35.969 -22.183 -17.467  0.00  0.00    +0.034 A 
ATOM      6  C   UNL     1      33.819 -22.034 -19.172  0.00  0.00    +0.147 C 
ATOM      7  C   UNL     1      34.899 -23.161 -15.655  0.00  0.00    +0.091 A 
ATOM      8  C   UNL     1      36.163 -21.644 -18.844  0.00  0.00    +0.175 C 
ATOM      9  C   UNL     1      36.134 -22.857 -15.120  0.00  0.00    +0.087 A 
ENDROOT
BRANCH   9  11
ATOM     10  O   UNL     1      38.068 -24.931 -14.160  0.00  0.00    -0.263 OA
ATOM     11  N   UNL     1      36.650 -23.057 -13.868  0.00  0.00    -0.270 N 
ATOM     12  C   UNL     1      37.554 -24.052 -13.488  0.00  0.00    +0.326 C 
ATOM     13  H   UNL     1      36.354 -22.437 -13.163  0.00  0.00    +0.156 HD
BRANCH  12  15
ATOM     14  O   UNL     1      37.792 -24.917 -11.254  0.00  0.00    -0.240 OA
ATOM     15  C   UNL     1      37.913 -23.978 -12.016  0.00  0.00    +0.393 C 
BRANCH  15  16
ATOM     16  O   UNL     1      38.363 -22.752 -11.709  0.00  0.00    -0.474 OA
ATOM     17  H   UNL     1      37.930 -21.995 -12.050  0.00  0.00    +0.296 HD
ENDBRANCH  15  16
ENDBRANCH  12  15
ENDBRANCH   9  11
BRANCH   7  19
ATOM     18  O   UNL     1      32.722 -23.348 -14.723  0.00  0.00    -0.245 OA
ATOM     19  C   UNL     1      33.860 -23.803 -14.892  0.00  0.00    +0.339 C 
BRANCH  19  20
ATOM     20  O   UNL     1      34.214 -25.005 -14.337  0.00  0.00    -0.477 OA
ATOM     21  H   UNL     1      34.294 -25.086 -13.406  0.00  0.00    +0.295 HD
ENDBRANCH  19  20
ENDBRANCH   7  19
TORSDOF 5
ENDMDL
MODEL 6
REMARK VINA RESULT:      -7.8      2.391      3.934
REMARK  Name = 444765
REMARK  5 active torsions:
REMARK  status: ('A' for Active; 'I' for Inactive)
REMARK    1  A    between atoms: C_7  and  C_19
REMARK    2  A    between atoms: C_9  and  N_11
REMARK    3  A    between atoms: C_12  and  C_15
REMARK    4  A    between atoms: C_15  and  O_16
REMARK    5  A    between atoms: C_19  and  O_20
REMARK                            x       y       z     vdW  Elec       q    Type
REMARK                         _______ _______ _______ _____ _____    ______ ____
ROOT
ATOM      1  S   UNL     1      33.655 -24.272 -13.541  0.00  0.00    -0.074 S 
ATOM      2  O   UNL     1      30.046 -22.845 -14.484  0.00  0.00    -0.348 OA
ATOM      3  C   UNL     1      32.501 -23.371 -15.653  0.00  0.00    -0.007 A 
ATOM      4  C   UNL     1      31.394 -22.854 -16.511  0.00  0.00    +0.059 C 
ATOM      5  C   UNL     1      32.259 -23.727 -14.342  0.00  0.00    +0.034 A 
ATOM      6  C   UNL     1      30.041 -23.201 -15.877  0.00  0.00    +0.147 C 
ATOM      7  C   UNL     1      33.871 -23.544 -16.001  0.00  0.00    +0.091 A 
ATOM      8  C   UNL     1      30.916 -23.680 -13.695  0.00  0.00    +0.175 C 
ATOM      9  C   UNL     1      34.612 -24.030 -14.943  0.00  0.00    +0.087 A 
ENDROOT
BRANCH   9  11
ATOM     10  O   UNL     1      36.045 -26.572 -15.616  0.00  0.00    -0.263 OA
ATOM     11  N   UNL     1      35.941 -24.337 -14.837  0.00  0.00    -0.270 N 
ATOM     12  C   UNL     1      36.546 -25.552 -15.172  0.00  0.00    +0.326 C 
ATOM     13  H   UNL     1      36.532 -23.631 -14.490  0.00  0.00    +0.156 HD
BRANCH  12  15
ATOM     14  O   UNL     1      38.664 -26.522 -14.563  0.00  0.00    -0.240 OA
ATOM     15  C   UNL     1      38.043 -25.542 -14.924  0.00  0.00    +0.393 C 
BRANCH  15  16
ATOM     16  O   UNL     1      38.543 -24.320 -15.159  0.00  0.00    -0.474 OA
ATOM     17  H   UNL     1      38.103 -23.737 -15.746  0.00  0.00    +0.296 HD
ENDBRANCH  15  16
ENDBRANCH  12  15
ENDBRANCH   9  11
BRANCH   7  19
ATOM     18  O   UNL     1      33.946 -23.560 -18.375  0.00  0.00    -0.245 OA
ATOM     19  C   UNL     1      34.452 -23.257 -17.288  0.00  0.00    +0.339 C 
BRANCH  19  20
ATOM     20  O   UNL     1      35.651 -22.597 -17.242  0.00  0.00    -0.477 OA
ATOM     21  H   UNL     1      36.167 -22.615 -16.460  0.00  0.00    +0.295 HD
ENDBRANCH  19  20
ENDBRANCH   7  19
TORSDOF 5
ENDMDL
MODEL 7
REMARK VINA RESULT:      -7.6      1.099      1.225
REMARK  Name = 444765
REMARK  5 active torsions:
REMARK  status: ('A' for Active; 'I' for Inactive)
REMARK    1  A    between atoms: C_7  and  C_19
REMARK    2  A    between atoms: C_9  and  N_11
REMARK    3  A    between atoms: C_12  and  C_15
REMARK    4  A    between atoms: C_15  and  O_16
REMARK    5  A    between atoms: C_19  and  O_20
REMARK                            x       y       z     vdW  Elec       q    Type
REMARK                         _______ _______ _______ _____ _____    ______ ____
ROOT
ATOM      1  S   UNL     1      35.504 -23.547 -16.248  0.00  0.00    -0.074 S 
ATOM      2  O   UNL     1      31.553 -23.588 -15.664  0.00  0.00    -0.348 OA
ATOM      3  C   UNL     1      33.918 -23.930 -14.263  0.00  0.00    -0.007 A 
ATOM      4  C   UNL     1      32.626 -24.001 -13.518  0.00  0.00    +0.059 C 
ATOM      5  C   UNL     1      33.938 -23.545 -15.588  0.00  0.00    +0.034 A 
ATOM      6  C   UNL     1      31.546 -23.217 -14.275  0.00  0.00    +0.147 C 
ATOM      7  C   UNL     1      35.223 -24.240 -13.785  0.00  0.00    +0.091 A 
ATOM      8  C   UNL     1      32.730 -23.134 -16.360  0.00  0.00    +0.175 C 
ATOM      9  C   UNL     1      36.181 -24.074 -14.763  0.00  0.00    +0.087 A 
ENDROOT
BRANCH   9  11
ATOM     10  O   UNL     1      37.777 -26.580 -15.138  0.00  0.00    -0.263 OA
ATOM     11  N   UNL     1      37.537 -24.257 -14.740  0.00  0.00    -0.270 N 
ATOM     12  C   UNL     1      38.219 -25.463 -14.924  0.00  0.00    +0.326 C 
ATOM     13  H   UNL     1      38.089 -23.459 -14.577  0.00  0.00    +0.156 HD
BRANCH  12  15
ATOM     14  O   UNL     1      40.280 -24.778 -13.884  0.00  0.00    -0.240 OA
ATOM     15  C   UNL     1      39.724 -25.298 -14.832  0.00  0.00    +0.393 C 
BRANCH  15  16
ATOM     16  O   UNL     1      40.313 -25.799 -15.927  0.00  0.00    -0.474 OA
ATOM     17  H   UNL     1      40.279 -25.326 -16.736  0.00  0.00    +0.296 HD
ENDBRANCH  15  16
ENDBRANCH  12  15
ENDBRANCH   9  11
BRANCH   7  19
ATOM     18  O   UNL     1      35.202 -24.099 -11.413  0.00  0.00    -0.245 OA
ATOM     19  C   UNL     1      35.544 -24.679 -12.451  0.00  0.00    +0.339 C 
BRANCH  19  20
ATOM     20  O   UNL     1      36.283 -25.831 -12.388  0.00  0.00    -0.477 OA
ATOM     21  H   UNL     1      35.989 -26.601 -12.835  0.00  0.00    +0.295 HD
ENDBRANCH  19  20
ENDBRANCH   7  19
TORSDOF 5
ENDMDL
MODEL 8
REMARK VINA RESULT:      -7.6      9.958     12.129
REMARK  Name = 444765
REMARK  5 active torsions:
REMARK  status: ('A' for Active; 'I' for Inactive)
REMARK    1  A    between atoms: C_7  and  C_19
REMARK    2  A    between atoms: C_9  and  N_11
REMARK    3  A    between atoms: C_12  and  C_15
REMARK    4  A    between atoms: C_15  and  O_16
REMARK    5  A    between atoms: C_19  and  O_20
REMARK                            x       y       z     vdW  Elec       q    Type
REMARK                         _______ _______ _______ _____ _____    ______ ____
ROOT
ATOM      1  S   UNL     1      34.808 -17.537 -24.135  0.00  0.00    -0.074 S 
ATOM      2  O   UNL     1      32.748 -14.522 -25.752  0.00  0.00    -0.348 OA
ATOM      3  C   UNL     1      33.770 -15.336 -23.309  0.00  0.00    -0.007 A 
ATOM      4  C   UNL     1      33.078 -14.016 -23.393  0.00  0.00    +0.059 C 
ATOM      5  C   UNL     1      34.031 -16.060 -24.455  0.00  0.00    +0.034 A 
ATOM      6  C   UNL     1      33.139 -13.488 -24.833  0.00  0.00    +0.147 C 
ATOM      7  C   UNL     1      34.213 -16.020 -22.142  0.00  0.00    +0.091 A 
ATOM      8  C   UNL     1      33.708 -15.593 -25.834  0.00  0.00    +0.175 C 
ATOM      9  C   UNL     1      34.798 -17.232 -22.447  0.00  0.00    +0.087 A 
ENDROOT
BRANCH   9  11
ATOM     10  O   UNL     1      33.590 -19.759 -21.390  0.00  0.00    -0.263 OA
ATOM     11  N   UNL     1      35.350 -18.196 -21.648  0.00  0.00    -0.270 N 
ATOM     12  C   UNL     1      34.724 -19.358 -21.189  0.00  0.00    +0.326 C 
ATOM     13  H   UNL     1      36.283 -18.057 -21.367  0.00  0.00    +0.156 HD
BRANCH  12  15
ATOM     14  O   UNL     1      36.757 -19.859 -20.000  0.00  0.00    -0.240 OA
ATOM     15  C   UNL     1      35.636 -20.203 -20.319  0.00  0.00    +0.393 C 
BRANCH  15  16
ATOM     16  O   UNL     1      35.023 -21.346 -19.979  0.00  0.00    -0.474 OA
ATOM     17  H   UNL     1      34.310 -21.333 -19.370  0.00  0.00    +0.296 HD
ENDBRANCH  15  16
ENDBRANCH  12  15
ENDBRANCH   9  11
BRANCH   7  19
ATOM     18  O   UNL     1      35.028 -15.338 -20.017  0.00  0.00    -0.245 OA
ATOM     19  C   UNL     1      34.083 -15.541 -20.790  0.00  0.00    +0.339 C 
BRANCH  19  20
ATOM     20  O   UNL     1      32.796 -15.308 -20.384  0.00  0.00    -0.477 OA
ATOM     21  H   UNL     1      32.448 -15.763 -19.642  0.00  0.00    +0.295 HD
ENDBRANCH  19  20
ENDBRANCH   7  19
TORSDOF 5
ENDMDL
MODEL 9
REMARK VINA RESULT:      -7.5     11.536     14.189
REMARK  Name = 444765
REMARK  5 active torsions:
REMARK  status: ('A' for Active; 'I' for Inactive)
REMARK    1  A    between atoms: C_7  and  C_19
REMARK    2  A    between atoms: C_9  and  N_11
REMARK    3  A    between atoms: C_12  and  C_15
REMARK    4  A    between atoms: C_15  and  O_16
REMARK    5  A    between atoms: C_19  and  O_20
REMARK                            x       y       z     vdW  Elec       q    Type
REMARK                         _______ _______ _______ _____ _____    ______ ____
ROOT
ATOM      1  S   UNL     1      34.540 -15.887 -24.690  0.00  0.00    -0.074 S 
ATOM      2  O   UNL     1      35.048 -19.568 -23.226  0.00  0.00    -0.348 OA
ATOM      3  C   UNL     1      34.433 -17.003 -22.378  0.00  0.00    -0.007 A 
ATOM      4  C   UNL     1      34.448 -18.107 -21.373  0.00  0.00    +0.059 C 
ATOM      5  C   UNL     1      34.567 -17.284 -23.723  0.00  0.00    +0.034 A 
ATOM      6  C   UNL     1      34.199 -19.449 -22.072  0.00  0.00    +0.147 C 
ATOM      7  C   UNL     1      34.313 -15.604 -22.142  0.00  0.00    +0.091 A 
ATOM      8  C   UNL     1      34.685 -18.660 -24.285  0.00  0.00    +0.175 C 
ATOM      9  C   UNL     1      34.356 -14.879 -23.315  0.00  0.00    +0.087 A 
ENDROOT
BRANCH   9  11
ATOM     10  O   UNL     1      32.016 -13.027 -23.065  0.00  0.00    -0.263 OA
ATOM     11  N   UNL     1      34.279 -13.533 -23.548  0.00  0.00    -0.270 N 
ATOM     12  C   UNL     1      33.147 -12.726 -23.411  0.00  0.00    +0.326 C 
ATOM     13  H   UNL     1      35.105 -13.087 -23.843  0.00  0.00    +0.156 HD
BRANCH  12  15
ATOM     14  O   UNL     1      32.651 -10.372 -23.503  0.00  0.00    -0.240 OA
ATOM     15  C   UNL     1      33.424 -11.275 -23.756  0.00  0.00    +0.393 C 
BRANCH  15  16
ATOM     16  O   UNL     1      34.614 -11.162 -24.363  0.00  0.00    -0.474 OA
ATOM     17  H   UNL     1      35.402 -11.163 -23.855  0.00  0.00    +0.296 HD
ENDBRANCH  15  16
ENDBRANCH  12  15
ENDBRANCH   9  11
BRANCH   7  19
ATOM     18  O   UNL     1      35.053 -14.924 -19.989  0.00  0.00    -0.245 OA
ATOM     19  C   UNL     1      34.167 -14.982 -20.850  0.00  0.00    +0.339 C 
BRANCH  19  20
ATOM     20  O   UNL     1      32.936 -14.430 -20.615  0.00  0.00    -0.477 OA
ATOM     21  H   UNL     1      32.805 -13.878 -19.868  0.00  0.00    +0.295 HD
ENDBRANCH  19  20
ENDBRANCH   7  19
TORSDOF 5
ENDMDL
