MODEL 1
REMARK VINA RESULT:     -10.4      0.000      0.000
REMARK  Name = 73571
REMARK  4 active torsions:
REMARK  status: ('A' for Active; 'I' for Inactive)
REMARK    1  A    between atoms: C_3  and  C_12
REMARK    2  A    between atoms: C_8  and  O_20
REMARK    3  A    between atoms: C_10  and  O_22
REMARK    4  A    between atoms: C_17  and  O_18
REMARK                            x       y       z     vdW  Elec       q    Type
REMARK                         _______ _______ _______ _____ _____    ______ ____
ROOT
ATOM      1  O   UNL     1      34.439 -17.373 -21.695  0.00  0.00    -0.474 OA
ATOM      2  O   UNL     1      34.658 -18.124 -25.722  0.00  0.00    -0.291 OA
ATOM      3  C   UNL     1      34.210 -18.694 -22.208  0.00  0.00    +0.196 C 
ATOM      4  C   UNL     1      35.008 -18.929 -23.489  0.00  0.00    +0.117 C 
ATOM      5  C   UNL     1      34.193 -16.588 -23.990  0.00  0.00    +0.103 C 
ATOM      6  C   UNL     1      34.601 -17.906 -24.517  0.00  0.00    +0.183 C 
ATOM      7  C   UNL     1      34.157 -16.389 -22.607  0.00  0.00    +0.148 C 
ATOM      8  C   UNL     1      33.890 -15.539 -24.862  0.00  0.00    +0.142 C 
ATOM      9  C   UNL     1      33.849 -15.128 -22.095  0.00  0.00    +0.074 C 
ATOM     10  C   UNL     1      33.547 -14.079 -22.964  0.00  0.00    +0.145 C 
ATOM     11  C   UNL     1      33.563 -14.285 -24.343  0.00  0.00    +0.074 C 
ENDROOT
BRANCH   3  12
ATOM     12  C   UNL     1      34.588 -19.696 -21.138  0.00  0.00    +0.018 C 
ATOM     13  C   UNL     1      35.929 -19.888 -20.805  0.00  0.00    +0.002 C 
ATOM     14  C   UNL     1      33.596 -20.427 -20.487  0.00  0.00    +0.002 C 
ATOM     15  C   UNL     1      36.277 -20.813 -19.820  0.00  0.00    +0.036 C 
ATOM     16  C   UNL     1      33.944 -21.351 -19.501  0.00  0.00    +0.036 C 
ATOM     17  C   UNL     1      35.285 -21.544 -19.169  0.00  0.00    +0.134 C 
BRANCH  17  18
ATOM     18  O   UNL     1      35.626 -22.445 -18.207  0.00  0.00    -0.506 OA
ATOM     19  H   UNL     1      35.955 -23.288 -18.449  0.00  0.00    +0.292 HD
ENDBRANCH  17  18
ENDBRANCH   3  12
BRANCH   8  20
ATOM     20  O   UNL     1      33.906 -15.680 -26.217  0.00  0.00    -0.505 OA
ATOM     21  H   UNL     1      34.713 -15.603 -26.686  0.00  0.00    +0.292 HD
ENDBRANCH   8  20
BRANCH  10  22
ATOM     22  O   UNL     1      33.235 -12.851 -22.463  0.00  0.00    -0.471 OA
ATOM     23  C   UNL     1      31.973 -12.718 -21.812  0.00  0.00    +0.252 C 
ENDBRANCH  10  22
TORSDOF 4
ENDMDL
MODEL 2
REMARK VINA RESULT:     -10.1      1.985      7.395
REMARK  Name = 73571
REMARK  4 active torsions:
REMARK  status: ('A' for Active; 'I' for Inactive)
REMARK    1  A    between atoms: C_3  and  C_12
REMARK    2  A    between atoms: C_8  and  O_20
REMARK    3  A    between atoms: C_10  and  O_22
REMARK    4  A    between atoms: C_17  and  O_18
REMARK                            x       y       z     vdW  Elec       q    Type
REMARK                         _______ _______ _______ _____ _____    ______ ____
ROOT
ATOM      1  O   UNL     1      33.731 -14.229 -22.634  0.00  0.00    -0.474 OA
ATOM      2  O   UNL     1      33.569 -15.849 -26.399  0.00  0.00    -0.291 OA
ATOM      3  C   UNL     1      33.760 -13.387 -23.797  0.00  0.00    +0.196 C 
ATOM      4  C   UNL     1      32.992 -14.024 -24.953  0.00  0.00    +0.117 C 
ATOM      5  C   UNL     1      34.206 -16.088 -24.138  0.00  0.00    +0.103 C 
ATOM      6  C   UNL     1      33.608 -15.360 -25.276  0.00  0.00    +0.183 C 
ATOM      7  C   UNL     1      34.213 -15.489 -22.875  0.00  0.00    +0.148 C 
ATOM      8  C   UNL     1      34.718 -17.376 -24.311  0.00  0.00    +0.142 C 
ATOM      9  C   UNL     1      34.704 -16.195 -21.776  0.00  0.00    +0.074 C 
ATOM     10  C   UNL     1      35.214 -17.482 -21.946  0.00  0.00    +0.145 C 
ATOM     11  C   UNL     1      35.226 -18.069 -23.211  0.00  0.00    +0.074 C 
ENDROOT
BRANCH   3  12
ATOM     12  C   UNL     1      33.173 -12.040 -23.428  0.00  0.00    +0.018 C 
ATOM     13  C   UNL     1      33.665 -10.879 -24.024  0.00  0.00    +0.002 C 
ATOM     14  C   UNL     1      32.143 -11.962 -22.492  0.00  0.00    +0.002 C 
ATOM     15  C   UNL     1      33.126  -9.639 -23.683  0.00  0.00    +0.036 C 
ATOM     16  C   UNL     1      31.604 -10.722 -22.151  0.00  0.00    +0.036 C 
ATOM     17  C   UNL     1      32.096  -9.560 -22.747  0.00  0.00    +0.134 C 
BRANCH  17  18
ATOM     18  O   UNL     1      31.569  -8.349 -22.416  0.00  0.00    -0.506 OA
ATOM     19  H   UNL     1      31.838  -7.579 -22.877  0.00  0.00    +0.292 HD
ENDBRANCH  17  18
ENDBRANCH   3  12
BRANCH   8  20
ATOM     20  O   UNL     1      34.739 -18.004 -25.520  0.00  0.00    -0.505 OA
ATOM     21  H   UNL     1      34.459 -18.895 -25.590  0.00  0.00    +0.292 HD
ENDBRANCH   8  20
BRANCH  10  22
ATOM     22  O   UNL     1      35.704 -18.166 -20.875  0.00  0.00    -0.471 OA
ATOM     23  C   UNL     1      35.658 -19.590 -20.939  0.00  0.00    +0.252 C 
ENDBRANCH  10  22
TORSDOF 4
ENDMDL
MODEL 3
REMARK VINA RESULT:     -10.0      2.013      7.486
REMARK  Name = 73571
REMARK  4 active torsions:
REMARK  status: ('A' for Active; 'I' for Inactive)
REMARK    1  A    between atoms: C_3  and  C_12
REMARK    2  A    between atoms: C_8  and  O_20
REMARK    3  A    between atoms: C_10  and  O_22
REMARK    4  A    between atoms: C_17  and  O_18
REMARK                            x       y       z     vdW  Elec       q    Type
REMARK                         _______ _______ _______ _____ _____    ______ ____
ROOT
ATOM      1  O   UNL     1      33.724 -14.163 -22.631  0.00  0.00    -0.474 OA
ATOM      2  O   UNL     1      33.545 -15.800 -26.388  0.00  0.00    -0.291 OA
ATOM      3  C   UNL     1      33.745 -13.327 -23.798  0.00  0.00    +0.196 C 
ATOM      4  C   UNL     1      32.972 -13.970 -24.947  0.00  0.00    +0.117 C 
ATOM      5  C   UNL     1      34.194 -16.028 -24.130  0.00  0.00    +0.103 C 
ATOM      6  C   UNL     1      33.589 -15.306 -25.268  0.00  0.00    +0.183 C 
ATOM      7  C   UNL     1      34.207 -15.424 -22.870  0.00  0.00    +0.148 C 
ATOM      8  C   UNL     1      34.707 -17.316 -24.300  0.00  0.00    +0.142 C 
ATOM      9  C   UNL     1      34.704 -16.124 -21.769  0.00  0.00    +0.074 C 
ATOM     10  C   UNL     1      35.216 -17.411 -21.937  0.00  0.00    +0.145 C 
ATOM     11  C   UNL     1      35.222 -18.003 -23.199  0.00  0.00    +0.074 C 
ENDROOT
BRANCH   3  12
ATOM     12  C   UNL     1      33.158 -11.979 -23.432  0.00  0.00    +0.018 C 
ATOM     13  C   UNL     1      32.122 -11.900 -22.502  0.00  0.00    +0.002 C 
ATOM     14  C   UNL     1      33.654 -10.820 -24.026  0.00  0.00    +0.002 C 
ATOM     15  C   UNL     1      31.581 -10.659 -22.165  0.00  0.00    +0.036 C 
ATOM     16  C   UNL     1      33.112  -9.578 -23.690  0.00  0.00    +0.036 C 
ATOM     17  C   UNL     1      32.075  -9.499 -22.760  0.00  0.00    +0.134 C 
BRANCH  17  18
ATOM     18  O   UNL     1      31.547  -8.288 -22.430  0.00  0.00    -0.506 OA
ATOM     19  H   UNL     1      30.627  -8.137 -22.523  0.00  0.00    +0.292 HD
ENDBRANCH  17  18
ENDBRANCH   3  12
BRANCH   8  20
ATOM     20  O   UNL     1      34.723 -17.949 -25.506  0.00  0.00    -0.505 OA
ATOM     21  H   UNL     1      34.286 -18.772 -25.609  0.00  0.00    +0.292 HD
ENDBRANCH   8  20
BRANCH  10  22
ATOM     22  O   UNL     1      35.712 -18.089 -20.865  0.00  0.00    -0.471 OA
ATOM     23  C   UNL     1      35.777 -19.511 -20.971  0.00  0.00    +0.252 C 
ENDBRANCH  10  22
TORSDOF 4
ENDMDL
MODEL 4
REMARK VINA RESULT:      -9.8      1.942      7.114
REMARK  Name = 73571
REMARK  4 active torsions:
REMARK  status: ('A' for Active; 'I' for Inactive)
REMARK    1  A    between atoms: C_3  and  C_12
REMARK    2  A    between atoms: C_8  and  O_20
REMARK    3  A    between atoms: C_10  and  O_22
REMARK    4  A    between atoms: C_17  and  O_18
REMARK                            x       y       z     vdW  Elec       q    Type
REMARK                         _______ _______ _______ _____ _____    ______ ____
ROOT
ATOM      1  O   UNL     1      33.710 -18.369 -21.130  0.00  0.00    -0.474 OA
ATOM      2  O   UNL     1      37.712 -19.265 -21.224  0.00  0.00    -0.291 OA
ATOM      3  C   UNL     1      34.696 -17.325 -21.138  0.00  0.00    +0.196 C 
ATOM      4  C   UNL     1      35.956 -17.768 -21.878  0.00  0.00    +0.117 C 
ATOM      5  C   UNL     1      35.531 -19.894 -20.576  0.00  0.00    +0.103 C 
ATOM      6  C   UNL     1      36.518 -18.993 -21.205  0.00  0.00    +0.183 C 
ATOM      7  C   UNL     1      34.178 -19.541 -20.594  0.00  0.00    +0.148 C 
ATOM      8  C   UNL     1      35.937 -21.104 -20.009  0.00  0.00    +0.142 C 
ATOM      9  C   UNL     1      33.226 -20.418 -20.073  0.00  0.00    +0.074 C 
ATOM     10  C   UNL     1      33.629 -21.628 -19.508  0.00  0.00    +0.145 C 
ATOM     11  C   UNL     1      34.981 -21.968 -19.471  0.00  0.00    +0.074 C 
ENDROOT
BRANCH   3  12
ATOM     12  C   UNL     1      34.087 -16.096 -21.782  0.00  0.00    +0.018 C 
ATOM     13  C   UNL     1      32.985 -15.476 -21.195  0.00  0.00    +0.002 C 
ATOM     14  C   UNL     1      34.630 -15.588 -22.961  0.00  0.00    +0.002 C 
ATOM     15  C   UNL     1      32.424 -14.346 -21.789  0.00  0.00    +0.036 C 
ATOM     16  C   UNL     1      34.069 -14.457 -23.555  0.00  0.00    +0.036 C 
ATOM     17  C   UNL     1      32.965 -13.837 -22.968  0.00  0.00    +0.134 C 
BRANCH  17  18
ATOM     18  O   UNL     1      32.418 -12.732 -23.546  0.00  0.00    -0.506 OA
ATOM     19  H   UNL     1      31.532 -12.753 -23.851  0.00  0.00    +0.292 HD
ENDBRANCH  17  18
ENDBRANCH   3  12
BRANCH   8  20
ATOM     20  O   UNL     1      37.241 -21.494 -19.962  0.00  0.00    -0.505 OA
ATOM     21  H   UNL     1      37.678 -21.568 -19.136  0.00  0.00    +0.292 HD
ENDBRANCH   8  20
BRANCH  10  22
ATOM     22  O   UNL     1      32.699 -22.478 -18.989  0.00  0.00    -0.471 OA
ATOM     23  C   UNL     1      32.984 -23.049 -17.713  0.00  0.00    +0.252 C 
ENDBRANCH  10  22
TORSDOF 4
ENDMDL
MODEL 5
REMARK VINA RESULT:      -9.5      5.528     11.657
REMARK  Name = 73571
REMARK  4 active torsions:
REMARK  status: ('A' for Active; 'I' for Inactive)
REMARK    1  A    between atoms: C_3  and  C_12
REMARK    2  A    between atoms: C_8  and  O_20
REMARK    3  A    between atoms: C_10  and  O_22
REMARK    4  A    between atoms: C_17  and  O_18
REMARK                            x       y       z     vdW  Elec       q    Type
REMARK                         _______ _______ _______ _____ _____    ______ ____
ROOT
ATOM      1  O   UNL     1      36.585 -23.645 -15.886  0.00  0.00    -0.474 OA
ATOM      2  O   UNL     1      33.919 -23.981 -12.786  0.00  0.00    -0.291 OA
ATOM      3  C   UNL     1      35.170 -23.603 -16.127  0.00  0.00    +0.196 C 
ATOM      4  C   UNL     1      34.427 -23.022 -14.926  0.00  0.00    +0.117 C 
ATOM      5  C   UNL     1      36.042 -24.511 -13.672  0.00  0.00    +0.103 C 
ATOM      6  C   UNL     1      34.712 -23.870 -13.714  0.00  0.00    +0.183 C 
ATOM      7  C   UNL     1      36.913 -24.343 -14.752  0.00  0.00    +0.148 C 
ATOM      8  C   UNL     1      36.443 -25.240 -12.550  0.00  0.00    +0.142 C 
ATOM      9  C   UNL     1      38.201 -24.877 -14.695  0.00  0.00    +0.074 C 
ATOM     10  C   UNL     1      38.604 -25.603 -13.574  0.00  0.00    +0.145 C 
ATOM     11  C   UNL     1      37.726 -25.789 -12.507  0.00  0.00    +0.074 C 
ENDROOT
BRANCH   3  12
ATOM     12  C   UNL     1      34.921 -22.779 -17.374  0.00  0.00    +0.018 C 
ATOM     13  C   UNL     1      33.646 -22.736 -17.936  0.00  0.00    +0.002 C 
ATOM     14  C   UNL     1      35.967 -22.067 -17.958  0.00  0.00    +0.002 C 
ATOM     15  C   UNL     1      33.416 -21.978 -19.084  0.00  0.00    +0.036 C 
ATOM     16  C   UNL     1      35.738 -21.310 -19.107  0.00  0.00    +0.036 C 
ATOM     17  C   UNL     1      34.462 -21.266 -19.670  0.00  0.00    +0.134 C 
BRANCH  17  18
ATOM     18  O   UNL     1      34.237 -20.526 -20.790  0.00  0.00    -0.506 OA
ATOM     19  H   UNL     1      34.435 -19.610 -20.795  0.00  0.00    +0.292 HD
ENDBRANCH  17  18
ENDBRANCH   3  12
BRANCH   8  20
ATOM     20  O   UNL     1      35.632 -25.438 -11.472  0.00  0.00    -0.505 OA
ATOM     21  H   UNL     1      34.714 -25.576 -11.596  0.00  0.00    +0.292 HD
ENDBRANCH   8  20
BRANCH  10  22
ATOM     22  O   UNL     1      39.857 -26.134 -13.523  0.00  0.00    -0.471 OA
ATOM     23  C   UNL     1      40.628 -26.094 -14.724  0.00  0.00    +0.252 C 
ENDBRANCH  10  22
TORSDOF 4
ENDMDL
MODEL 6
REMARK VINA RESULT:      -9.5      3.725      9.828
REMARK  Name = 73571
REMARK  4 active torsions:
REMARK  status: ('A' for Active; 'I' for Inactive)
REMARK    1  A    between atoms: C_3  and  C_12
REMARK    2  A    between atoms: C_8  and  O_20
REMARK    3  A    between atoms: C_10  and  O_22
REMARK    4  A    between atoms: C_17  and  O_18
REMARK                            x       y       z     vdW  Elec       q    Type
REMARK                         _______ _______ _______ _____ _____    ______ ____
ROOT
ATOM      1  O   UNL     1      35.557 -22.102 -17.462  0.00  0.00    -0.474 OA
ATOM      2  O   UNL     1      32.226 -23.999 -16.002  0.00  0.00    -0.291 OA
ATOM      3  C   UNL     1      34.457 -22.423 -18.327  0.00  0.00    +0.196 C 
ATOM      4  C   UNL     1      33.137 -22.419 -17.560  0.00  0.00    +0.117 C 
ATOM      5  C   UNL     1      34.551 -23.627 -15.847  0.00  0.00    +0.103 C 
ATOM      6  C   UNL     1      33.215 -23.424 -16.440  0.00  0.00    +0.183 C 
ATOM      7  C   UNL     1      35.645 -22.937 -16.378  0.00  0.00    +0.148 C 
ATOM      8  C   UNL     1      34.716 -24.465 -14.741  0.00  0.00    +0.142 C 
ATOM      9  C   UNL     1      36.900 -23.059 -15.780  0.00  0.00    +0.074 C 
ATOM     10  C   UNL     1      37.066 -23.894 -14.675  0.00  0.00    +0.145 C 
ATOM     11  C   UNL     1      35.979 -24.599 -14.160  0.00  0.00    +0.074 C 
ENDROOT
BRANCH   3  12
ATOM     12  C   UNL     1      34.432 -21.421 -19.463  0.00  0.00    +0.018 C 
ATOM     13  C   UNL     1      35.625 -21.011 -20.056  0.00  0.00    +0.002 C 
ATOM     14  C   UNL     1      33.216 -20.909 -19.912  0.00  0.00    +0.002 C 
ATOM     15  C   UNL     1      35.602 -20.088 -21.101  0.00  0.00    +0.036 C 
ATOM     16  C   UNL     1      33.193 -19.986 -20.958  0.00  0.00    +0.036 C 
ATOM     17  C   UNL     1      34.387 -19.575 -21.551  0.00  0.00    +0.134 C 
BRANCH  17  18
ATOM     18  O   UNL     1      34.365 -18.674 -22.572  0.00  0.00    -0.506 OA
ATOM     19  H   UNL     1      35.053 -18.669 -23.208  0.00  0.00    +0.292 HD
ENDBRANCH  17  18
ENDBRANCH   3  12
BRANCH   8  20
ATOM     20  O   UNL     1      33.686 -25.164 -14.187  0.00  0.00    -0.505 OA
ATOM     21  H   UNL     1      32.816 -25.056 -14.517  0.00  0.00    +0.292 HD
ENDBRANCH   8  20
BRANCH  10  22
ATOM     22  O   UNL     1      38.294 -24.022 -14.099  0.00  0.00    -0.471 OA
ATOM     23  C   UNL     1      38.626 -25.300 -13.558  0.00  0.00    +0.252 C 
ENDBRANCH  10  22
TORSDOF 4
ENDMDL
MODEL 7
REMARK VINA RESULT:      -9.4      1.387      3.302
REMARK  Name = 73571
REMARK  4 active torsions:
REMARK  status: ('A' for Active; 'I' for Inactive)
REMARK    1  A    between atoms: C_3  and  C_12
REMARK    2  A    between atoms: C_8  and  O_20
REMARK    3  A    between atoms: C_10  and  O_22
REMARK    4  A    between atoms: C_17  and  O_18
REMARK                            x       y       z     vdW  Elec       q    Type
REMARK                         _______ _______ _______ _____ _____    ______ ____
ROOT
ATOM      1  O   UNL     1      34.149 -17.239 -22.995  0.00  0.00    -0.474 OA
ATOM      2  O   UNL     1      32.976 -14.053 -20.693  0.00  0.00    -0.291 OA
ATOM      3  C   UNL     1      34.605 -17.105 -21.640  0.00  0.00    +0.196 C 
ATOM      4  C   UNL     1      33.572 -16.374 -20.784  0.00  0.00    +0.117 C 
ATOM      5  C   UNL     1      33.447 -14.909 -22.842  0.00  0.00    +0.103 C 
ATOM      6  C   UNL     1      33.321 -15.011 -21.374  0.00  0.00    +0.183 C 
ATOM      7  C   UNL     1      33.833 -16.036 -23.572  0.00  0.00    +0.148 C 
ATOM      8  C   UNL     1      33.142 -13.714 -23.498  0.00  0.00    +0.142 C 
ATOM      9  C   UNL     1      33.881 -15.977 -24.966  0.00  0.00    +0.074 C 
ATOM     10  C   UNL     1      33.576 -14.785 -25.623  0.00  0.00    +0.145 C 
ATOM     11  C   UNL     1      33.212 -13.655 -24.891  0.00  0.00    +0.074 C 
ENDROOT
BRANCH   3  12
ATOM     12  C   UNL     1      34.888 -18.489 -21.091  0.00  0.00    +0.018 C 
ATOM     13  C   UNL     1      33.832 -19.352 -20.800  0.00  0.00    +0.002 C 
ATOM     14  C   UNL     1      36.203 -18.896 -20.876  0.00  0.00    +0.002 C 
ATOM     15  C   UNL     1      34.093 -20.625 -20.294  0.00  0.00    +0.036 C 
ATOM     16  C   UNL     1      36.464 -20.170 -20.369  0.00  0.00    +0.036 C 
ATOM     17  C   UNL     1      35.408 -21.034 -20.078  0.00  0.00    +0.134 C 
BRANCH  17  18
ATOM     18  O   UNL     1      35.661 -22.277 -19.585  0.00  0.00    -0.506 OA
ATOM     19  H   UNL     1      35.530 -22.456 -18.674  0.00  0.00    +0.292 HD
ENDBRANCH  17  18
ENDBRANCH   3  12
BRANCH   8  20
ATOM     20  O   UNL     1      32.766 -12.585 -22.834  0.00  0.00    -0.505 OA
ATOM     21  H   UNL     1      31.879 -12.483 -22.550  0.00  0.00    +0.292 HD
ENDBRANCH   8  20
BRANCH  10  22
ATOM     22  O   UNL     1      33.634 -14.725 -26.982  0.00  0.00    -0.471 OA
ATOM     23  C   UNL     1      33.524 -13.434 -27.579  0.00  0.00    +0.252 C 
ENDBRANCH  10  22
TORSDOF 4
ENDMDL
MODEL 8
REMARK VINA RESULT:      -9.3      4.577      7.847
REMARK  Name = 73571
REMARK  4 active torsions:
REMARK  status: ('A' for Active; 'I' for Inactive)
REMARK    1  A    between atoms: C_3  and  C_12
REMARK    2  A    between atoms: C_8  and  O_20
REMARK    3  A    between atoms: C_10  and  O_22
REMARK    4  A    between atoms: C_17  and  O_18
REMARK                            x       y       z     vdW  Elec       q    Type
REMARK                         _______ _______ _______ _____ _____    ______ ____
ROOT
ATOM      1  O   UNL     1      36.018 -22.801 -16.990  0.00  0.00    -0.474 OA
ATOM      2  O   UNL     1      32.063 -22.797 -18.079  0.00  0.00    -0.291 OA
ATOM      3  C   UNL     1      34.987 -23.004 -16.011  0.00  0.00    +0.196 C 
ATOM      4  C   UNL     1      33.765 -23.675 -16.634  0.00  0.00    +0.117 C 
ATOM      5  C   UNL     1      34.255 -22.019 -18.482  0.00  0.00    +0.103 C 
ATOM      6  C   UNL     1      33.244 -22.808 -17.750  0.00  0.00    +0.183 C 
ATOM      7  C   UNL     1      35.591 -22.078 -18.074  0.00  0.00    +0.148 C 
ATOM      8  C   UNL     1      33.891 -21.257 -19.595  0.00  0.00    +0.142 C 
ATOM      9  C   UNL     1      36.569 -21.399 -18.801  0.00  0.00    +0.074 C 
ATOM     10  C   UNL     1      36.208 -20.639 -19.913  0.00  0.00    +0.145 C 
ATOM     11  C   UNL     1      34.872 -20.564 -20.306  0.00  0.00    +0.074 C 
ENDROOT
BRANCH   3  12
ATOM     12  C   UNL     1      35.555 -23.842 -14.884  0.00  0.00    +0.018 C 
ATOM     13  C   UNL     1      36.732 -24.564 -15.078  0.00  0.00    +0.002 C 
ATOM     14  C   UNL     1      34.900 -23.890 -13.655  0.00  0.00    +0.002 C 
ATOM     15  C   UNL     1      37.254 -25.336 -14.040  0.00  0.00    +0.036 C 
ATOM     16  C   UNL     1      35.422 -24.663 -12.617  0.00  0.00    +0.036 C 
ATOM     17  C   UNL     1      36.599 -25.386 -12.811  0.00  0.00    +0.134 C 
BRANCH  17  18
ATOM     18  O   UNL     1      37.110 -26.139 -11.798  0.00  0.00    -0.506 OA
ATOM     19  H   UNL     1      36.679 -26.160 -10.966  0.00  0.00    +0.292 HD
ENDBRANCH  17  18
ENDBRANCH   3  12
BRANCH   8  20
ATOM     20  O   UNL     1      32.604 -21.162 -20.033  0.00  0.00    -0.505 OA
ATOM     21  H   UNL     1      31.980 -21.819 -19.798  0.00  0.00    +0.292 HD
ENDBRANCH   8  20
BRANCH  10  22
ATOM     22  O   UNL     1      37.162 -19.968 -20.617  0.00  0.00    -0.471 OA
ATOM     23  C   UNL     1      36.728 -18.858 -21.402  0.00  0.00    +0.252 C 
ENDBRANCH  10  22
TORSDOF 4
ENDMDL
MODEL 9
REMARK VINA RESULT:      -9.0      4.005      7.117
REMARK  Name = 73571
REMARK  4 active torsions:
REMARK  status: ('A' for Active; 'I' for Inactive)
REMARK    1  A    between atoms: C_3  and  C_12
REMARK    2  A    between atoms: C_8  and  O_20
REMARK    3  A    between atoms: C_10  and  O_22
REMARK    4  A    between atoms: C_17  and  O_18
REMARK                            x       y       z     vdW  Elec       q    Type
REMARK                         _______ _______ _______ _____ _____    ______ ____
ROOT
ATOM      1  O   UNL     1      33.879 -11.763 -24.135  0.00  0.00    -0.474 OA
ATOM      2  O   UNL     1      30.979 -11.174 -21.293  0.00  0.00    -0.291 OA
ATOM      3  C   UNL     1      33.521 -12.813 -23.222  0.00  0.00    +0.196 C 
ATOM      4  C   UNL     1      32.058 -12.697 -22.800  0.00  0.00    +0.117 C 
ATOM      5  C   UNL     1      32.679 -10.250 -22.646  0.00  0.00    +0.103 C 
ATOM      6  C   UNL     1      31.839 -11.358 -22.146  0.00  0.00    +0.183 C 
ATOM      7  C   UNL     1      33.637 -10.511 -23.629  0.00  0.00    +0.148 C 
ATOM      8  C   UNL     1      32.489  -8.949 -22.174  0.00  0.00    +0.142 C 
ATOM      9  C   UNL     1      34.384  -9.462 -24.167  0.00  0.00    +0.074 C 
ATOM     10  C   UNL     1      34.195  -8.162 -23.699  0.00  0.00    +0.145 C 
ATOM     11  C   UNL     1      33.254  -7.906 -22.702  0.00  0.00    +0.074 C 
ENDROOT
BRANCH   3  12
ATOM     12  C   UNL     1      33.792 -14.143 -23.893  0.00  0.00    +0.018 C 
ATOM     13  C   UNL     1      34.587 -15.095 -23.256  0.00  0.00    +0.002 C 
ATOM     14  C   UNL     1      33.247 -14.414 -25.147  0.00  0.00    +0.002 C 
ATOM     15  C   UNL     1      34.837 -16.321 -23.874  0.00  0.00    +0.036 C 
ATOM     16  C   UNL     1      33.498 -15.639 -25.766  0.00  0.00    +0.036 C 
ATOM     17  C   UNL     1      34.293 -16.592 -25.129  0.00  0.00    +0.134 C 
BRANCH  17  18
ATOM     18  O   UNL     1      34.537 -17.789 -25.731  0.00  0.00    -0.506 OA
ATOM     19  H   UNL     1      34.696 -18.551 -25.211  0.00  0.00    +0.292 HD
ENDBRANCH  17  18
ENDBRANCH   3  12
BRANCH   8  20
ATOM     20  O   UNL     1      31.573  -8.639 -21.215  0.00  0.00    -0.505 OA
ATOM     21  H   UNL     1      31.591  -7.797 -20.804  0.00  0.00    +0.292 HD
ENDBRANCH   8  20
BRANCH  10  22
ATOM     22  O   UNL     1      34.932  -7.140 -24.216  0.00  0.00    -0.471 OA
ATOM     23  C   UNL     1      34.318  -6.346 -25.230  0.00  0.00    +0.252 C 
ENDBRANCH  10  22
TORSDOF 4
ENDMDL
