MODEL 1
REMARK VINA RESULT:     -11.1      0.000      0.000
REMARK  Name = 11691442
REMARK  5 active torsions:
REMARK  status: ('A' for Active; 'I' for Inactive)
REMARK    1  A    between atoms: C_10  and  C_19
REMARK    2  A    between atoms: C_11  and  C_27
REMARK    3  A    between atoms: N_26  and  C_29
REMARK    4  A    between atoms: C_29  and  C_30
REMARK    5  A    between atoms: C_30  and  O_31
REMARK                            x       y       z     vdW  Elec       q    Type
REMARK                         _______ _______ _______ _____ _____    ______ ____
ROOT
ATOM      1 BR   UNL     1      33.004 -13.639 -25.568  0.00  0.00    -0.047 Br
ATOM      2  O   UNL     1      34.035 -16.343 -26.365  0.00  0.00    -0.270 OA
ATOM      3  O   UNL     1      35.367 -19.969 -23.879  0.00  0.00    -0.270 OA
ATOM      4  N   UNL     1      33.201 -14.319 -21.593  0.00  0.00    -0.321 N 
ATOM      5  N   UNL     1      34.773 -18.333 -25.437  0.00  0.00    -0.248 N 
ATOM      6  C   UNL     1      33.693 -15.548 -23.387  0.00  0.00    +0.028 A 
ATOM      7  C   UNL     1      33.673 -15.551 -21.985  0.00  0.00    +0.061 A 
ATOM      8  C   UNL     1      34.144 -16.717 -23.997  0.00  0.00    +0.060 C 
ATOM      9  C   UNL     1      34.547 -17.816 -23.248  0.00  0.00    +0.058 C 
ATOM     10  C   UNL     1      34.526 -17.817 -21.869  0.00  0.00    +0.007 C 
ATOM     11  C   UNL     1      32.926 -13.546 -22.690  0.00  0.00    +0.120 A 
ATOM     12  C   UNL     1      34.081 -16.662 -21.212  0.00  0.00    +0.017 C 
ATOM     13  C   UNL     1      33.221 -14.281 -23.816  0.00  0.00    +0.056 A 
ATOM     14  C   UNL     1      34.287 -17.046 -25.409  0.00  0.00    +0.252 C 
ATOM     15  C   UNL     1      34.955 -18.865 -24.182  0.00  0.00    +0.252 C 
ATOM     16  C   UNL     1      33.021 -13.901 -20.216  0.00  0.00    +0.131 C 
ATOM     17  H   UNL     1      34.968 -18.822 -26.269  0.00  0.00    +0.158 HD
ENDROOT
BRANCH  10  19
ATOM     18 CL   UNL     1      32.337 -19.773 -20.923  0.00  0.00    -0.082 Cl
ATOM     19  C   UNL     1      34.945 -18.960 -21.087  0.00  0.00    +0.011 C 
ATOM     20  C   UNL     1      34.033 -19.905 -20.612  0.00  0.00    +0.058 C 
ATOM     21  C   UNL     1      36.306 -19.111 -20.810  0.00  0.00    +0.001 C 
ATOM     22  C   UNL     1      34.478 -20.994 -19.863  0.00  0.00    +0.011 C 
ATOM     23  C   UNL     1      36.751 -20.200 -20.060  0.00  0.00    +0.000 C 
ATOM     24  C   UNL     1      35.837 -21.141 -19.587  0.00  0.00    +0.001 C 
ENDBRANCH  10  19
BRANCH  11  27
ATOM     25  O   UNL     1      31.345 -11.953 -22.009  0.00  0.00    -0.269 OA
ATOM     26  N   UNL     1      33.177 -11.180 -23.203  0.00  0.00    -0.297 N 
ATOM     27  C   UNL     1      32.418 -12.208 -22.608  0.00  0.00    +0.262 C 
ATOM     28  H   UNL     1      34.011 -11.431 -23.661  0.00  0.00    +0.150 HD
BRANCH  26  29
ATOM     29  C   UNL     1      32.810  -9.782 -23.186  0.00  0.00    +0.122 C 
BRANCH  29  30
ATOM     30  C   UNL     1      33.973  -8.895 -23.592  0.00  0.00    +0.158 C 
BRANCH  30  31
ATOM     31  O   UNL     1      35.077  -9.708 -23.970  0.00  0.00    -0.380 OA
ATOM     32  H   UNL     1      35.248 -10.363 -23.276  0.00  0.00    +0.211 HD
ENDBRANCH  30  31
ENDBRANCH  29  30
ENDBRANCH  26  29
ENDBRANCH  11  27
TORSDOF 5
ENDMDL
MODEL 2
REMARK VINA RESULT:     -10.8      1.168      1.291
REMARK  Name = 11691442
REMARK  5 active torsions:
REMARK  status: ('A' for Active; 'I' for Inactive)
REMARK    1  A    between atoms: C_10  and  C_19
REMARK    2  A    between atoms: C_11  and  C_27
REMARK    3  A    between atoms: N_26  and  C_29
REMARK    4  A    between atoms: C_29  and  C_30
REMARK    5  A    between atoms: C_30  and  O_31
REMARK                            x       y       z     vdW  Elec       q    Type
REMARK                         _______ _______ _______ _____ _____    ______ ____
ROOT
ATOM      1 BR   UNL     1      33.063 -13.790 -25.593  0.00  0.00    -0.047 Br
ATOM      2  O   UNL     1      34.042 -16.520 -26.367  0.00  0.00    -0.270 OA
ATOM      3  O   UNL     1      35.379 -20.121 -23.848  0.00  0.00    -0.270 OA
ATOM      4  N   UNL     1      33.337 -14.405 -21.612  0.00  0.00    -0.321 N 
ATOM      5  N   UNL     1      34.773 -18.504 -25.421  0.00  0.00    -0.248 N 
ATOM      6  C   UNL     1      33.774 -15.671 -23.396  0.00  0.00    +0.028 A 
ATOM      7  C   UNL     1      33.784 -15.650 -21.994  0.00  0.00    +0.061 A 
ATOM      8  C   UNL     1      34.196 -16.856 -23.995  0.00  0.00    +0.060 C 
ATOM      9  C   UNL     1      34.601 -17.948 -23.236  0.00  0.00    +0.058 C 
ATOM     10  C   UNL     1      34.610 -17.925 -21.857  0.00  0.00    +0.007 C 
ATOM     11  C   UNL     1      33.049 -13.647 -22.716  0.00  0.00    +0.120 A 
ATOM     12  C   UNL     1      34.194 -16.753 -21.210  0.00  0.00    +0.017 C 
ATOM     13  C   UNL     1      33.309 -14.405 -23.835  0.00  0.00    +0.056 A 
ATOM     14  C   UNL     1      34.305 -17.210 -25.404  0.00  0.00    +0.252 C 
ATOM     15  C   UNL     1      34.975 -19.017 -24.161  0.00  0.00    +0.252 C 
ATOM     16  C   UNL     1      33.192 -13.963 -20.240  0.00  0.00    +0.131 C 
ATOM     17  H   UNL     1      34.944 -19.009 -26.248  0.00  0.00    +0.158 HD
ENDROOT
BRANCH  10  19
ATOM     18 CL   UNL     1      32.429 -19.900 -20.932  0.00  0.00    -0.082 Cl
ATOM     19  C   UNL     1      35.031 -19.060 -21.066  0.00  0.00    +0.011 C 
ATOM     20  C   UNL     1      34.122 -20.013 -20.598  0.00  0.00    +0.058 C 
ATOM     21  C   UNL     1      36.389 -19.196 -20.770  0.00  0.00    +0.001 C 
ATOM     22  C   UNL     1      34.569 -21.094 -19.839  0.00  0.00    +0.011 C 
ATOM     23  C   UNL     1      36.836 -20.277 -20.010  0.00  0.00    +0.000 C 
ATOM     24  C   UNL     1      35.926 -21.226 -19.544  0.00  0.00    +0.001 C 
ENDBRANCH  10  19
BRANCH  11  27
ATOM     25  O   UNL     1      33.150 -11.363 -23.236  0.00  0.00    -0.269 OA
ATOM     26  N   UNL     1      31.381 -12.067 -21.912  0.00  0.00    -0.297 N 
ATOM     27  C   UNL     1      32.560 -12.301 -22.646  0.00  0.00    +0.262 C 
ATOM     28  H   UNL     1      30.956 -12.836 -21.467  0.00  0.00    +0.150 HD
BRANCH  26  29
ATOM     29  C   UNL     1      30.754 -10.773 -21.767  0.00  0.00    +0.122 C 
BRANCH  29  30
ATOM     30  C   UNL     1      31.484  -9.908 -20.757  0.00  0.00    +0.158 C 
BRANCH  30  31
ATOM     31  O   UNL     1      32.321  -8.986 -21.443  0.00  0.00    -0.380 OA
ATOM     32  H   UNL     1      32.365  -8.155 -20.943  0.00  0.00    +0.211 HD
ENDBRANCH  30  31
ENDBRANCH  29  30
ENDBRANCH  26  29
ENDBRANCH  11  27
TORSDOF 5
ENDMDL
MODEL 3
REMARK VINA RESULT:      -9.9      2.828      7.660
REMARK  Name = 11691442
REMARK  5 active torsions:
REMARK  status: ('A' for Active; 'I' for Inactive)
REMARK    1  A    between atoms: C_10  and  C_19
REMARK    2  A    between atoms: C_11  and  C_27
REMARK    3  A    between atoms: N_26  and  C_29
REMARK    4  A    between atoms: C_29  and  C_30
REMARK    5  A    between atoms: C_30  and  O_31
REMARK                            x       y       z     vdW  Elec       q    Type
REMARK                         _______ _______ _______ _____ _____    ______ ____
ROOT
ATOM      1 BR   UNL     1      34.245 -18.444 -24.668  0.00  0.00    -0.047 Br
ATOM      2  O   UNL     1      33.454 -16.380 -26.699  0.00  0.00    -0.270 OA
ATOM      3  O   UNL     1      32.872 -11.834 -26.378  0.00  0.00    -0.270 OA
ATOM      4  N   UNL     1      34.610 -15.839 -21.605  0.00  0.00    -0.321 N 
ATOM      5  N   UNL     1      33.076 -14.103 -26.896  0.00  0.00    -0.248 N 
ATOM      6  C   UNL     1      34.055 -15.615 -23.754  0.00  0.00    +0.028 A 
ATOM      7  C   UNL     1      34.245 -14.912 -22.555  0.00  0.00    +0.061 A 
ATOM      8  C   UNL     1      33.677 -14.855 -24.858  0.00  0.00    +0.060 C 
ATOM      9  C   UNL     1      33.500 -13.479 -24.765  0.00  0.00    +0.058 C 
ATOM     10  C   UNL     1      33.687 -12.790 -23.585  0.00  0.00    +0.007 C 
ATOM     11  C   UNL     1      34.657 -17.091 -22.159  0.00  0.00    +0.120 A 
ATOM     12  C   UNL     1      34.067 -13.514 -22.447  0.00  0.00    +0.017 C 
ATOM     13  C   UNL     1      34.319 -16.984 -23.489  0.00  0.00    +0.056 A 
ATOM     14  C   UNL     1      33.405 -15.261 -26.230  0.00  0.00    +0.252 C 
ATOM     15  C   UNL     1      33.111 -12.991 -26.087  0.00  0.00    +0.252 C 
ATOM     16  C   UNL     1      34.903 -15.532 -20.219  0.00  0.00    +0.131 C 
ATOM     17  H   UNL     1      32.841 -14.073 -27.852  0.00  0.00    +0.158 HD
ENDROOT
BRANCH  10  19
ATOM     18 CL   UNL     1      31.195 -11.777 -22.076  0.00  0.00    -0.082 Cl
ATOM     19  C   UNL     1      33.503 -11.358 -23.486  0.00  0.00    +0.011 C 
ATOM     20  C   UNL     1      32.409 -10.798 -22.823  0.00  0.00    +0.058 C 
ATOM     21  C   UNL     1      34.458 -10.525 -24.073  0.00  0.00    +0.001 C 
ATOM     22  C   UNL     1      32.270  -9.412 -22.748  0.00  0.00    +0.011 C 
ATOM     23  C   UNL     1      34.319  -9.139 -23.999  0.00  0.00    +0.000 C 
ATOM     24  C   UNL     1      33.225  -8.582 -23.336  0.00  0.00    +0.001 C 
ENDBRANCH  10  19
BRANCH  11  27
ATOM     25  O   UNL     1      36.205 -18.541 -21.158  0.00  0.00    -0.269 OA
ATOM     26  N   UNL     1      33.962 -19.105 -20.981  0.00  0.00    -0.297 N 
ATOM     27  C   UNL     1      35.008 -18.270 -21.422  0.00  0.00    +0.262 C 
ATOM     28  H   UNL     1      33.041 -18.848 -21.214  0.00  0.00    +0.150 HD
BRANCH  26  29
ATOM     29  C   UNL     1      34.153 -20.312 -20.210  0.00  0.00    +0.122 C 
BRANCH  29  30
ATOM     30  C   UNL     1      32.834 -20.865 -19.702  0.00  0.00    +0.158 C 
BRANCH  30  31
ATOM     31  O   UNL     1      32.976 -22.253 -19.431  0.00  0.00    -0.380 OA
ATOM     32  H   UNL     1      33.914 -22.496 -19.473  0.00  0.00    +0.211 HD
ENDBRANCH  30  31
ENDBRANCH  29  30
ENDBRANCH  26  29
ENDBRANCH  11  27
TORSDOF 5
ENDMDL
MODEL 4
REMARK VINA RESULT:      -9.5      3.479      9.377
REMARK  Name = 11691442
REMARK  5 active torsions:
REMARK  status: ('A' for Active; 'I' for Inactive)
REMARK    1  A    between atoms: C_10  and  C_19
REMARK    2  A    between atoms: C_11  and  C_27
REMARK    3  A    between atoms: N_26  and  C_29
REMARK    4  A    between atoms: C_29  and  C_30
REMARK    5  A    between atoms: C_30  and  O_31
REMARK                            x       y       z     vdW  Elec       q    Type
REMARK                         _______ _______ _______ _____ _____    ______ ____
ROOT
ATOM      1 BR   UNL     1      32.715 -14.956 -21.549  0.00  0.00    -0.047 Br
ATOM      2  O   UNL     1      31.934 -12.585 -19.883  0.00  0.00    -0.270 OA
ATOM      3  O   UNL     1      31.576  -8.117 -20.892  0.00  0.00    -0.270 OA
ATOM      4  N   UNL     1      33.326 -12.849 -24.939  0.00  0.00    -0.321 N 
ATOM      5  N   UNL     1      31.654 -10.290 -20.038  0.00  0.00    -0.248 N 
ATOM      6  C   UNL     1      32.696 -12.288 -22.875  0.00  0.00    +0.028 A 
ATOM      7  C   UNL     1      32.965 -11.778 -24.153  0.00  0.00    +0.061 A 
ATOM      8  C   UNL     1      32.308 -11.358 -21.913  0.00  0.00    +0.060 C 
ATOM      9  C   UNL     1      32.197 -10.006 -22.214  0.00  0.00    +0.058 C 
ATOM     10  C   UNL     1      32.464  -9.506 -23.472  0.00  0.00    +0.007 C 
ATOM     11  C   UNL     1      33.293 -14.006 -24.207  0.00  0.00    +0.120 A 
ATOM     12  C   UNL     1      32.858 -10.405 -24.472  0.00  0.00    +0.017 C 
ATOM     13  C   UNL     1      32.905 -13.690 -22.925  0.00  0.00    +0.056 A 
ATOM     14  C   UNL     1      31.957 -11.546 -20.511  0.00  0.00    +0.252 C 
ATOM     15  C   UNL     1      31.773  -9.313 -20.998  0.00  0.00    +0.252 C 
ATOM     16  C   UNL     1      33.687 -12.763 -26.340  0.00  0.00    +0.131 C 
ATOM     17  H   UNL     1      31.379 -10.111 -19.110  0.00  0.00    +0.158 HD
ENDROOT
BRANCH  10  19
ATOM     18 CL   UNL     1      35.055  -7.835 -23.471  0.00  0.00    -0.082 Cl
ATOM     19  C   UNL     1      32.350  -8.099 -23.788  0.00  0.00    +0.011 C 
ATOM     20  C   UNL     1      33.463  -7.256 -23.816  0.00  0.00    +0.058 C 
ATOM     21  C   UNL     1      31.083  -7.584 -24.074  0.00  0.00    +0.001 C 
ATOM     22  C   UNL     1      33.310  -5.904 -24.126  0.00  0.00    +0.011 C 
ATOM     23  C   UNL     1      30.931  -6.233 -24.385  0.00  0.00    +0.000 C 
ATOM     24  C   UNL     1      32.044  -5.393 -24.411  0.00  0.00    +0.001 C 
ENDBRANCH  10  19
BRANCH  11  27
ATOM     25  O   UNL     1      33.091 -15.707 -25.809  0.00  0.00    -0.269 OA
ATOM     26  N   UNL     1      34.566 -16.075 -24.058  0.00  0.00    -0.297 N 
ATOM     27  C   UNL     1      33.617 -15.294 -24.747  0.00  0.00    +0.262 C 
ATOM     28  H   UNL     1      34.950 -15.707 -23.229  0.00  0.00    +0.150 HD
BRANCH  26  29
ATOM     29  C   UNL     1      35.013 -17.381 -24.487  0.00  0.00    +0.122 C 
BRANCH  29  30
ATOM     30  C   UNL     1      35.222 -18.314 -23.308  0.00  0.00    +0.158 C 
BRANCH  30  31
ATOM     31  O   UNL     1      36.554 -18.178 -22.829  0.00  0.00    -0.380 OA
ATOM     32  H   UNL     1      37.051 -18.989 -23.018  0.00  0.00    +0.211 HD
ENDBRANCH  30  31
ENDBRANCH  29  30
ENDBRANCH  26  29
ENDBRANCH  11  27
TORSDOF 5
ENDMDL
MODEL 5
REMARK VINA RESULT:      -9.1      9.075     11.360
REMARK  Name = 11691442
REMARK  5 active torsions:
REMARK  status: ('A' for Active; 'I' for Inactive)
REMARK    1  A    between atoms: C_10  and  C_19
REMARK    2  A    between atoms: C_11  and  C_27
REMARK    3  A    between atoms: N_26  and  C_29
REMARK    4  A    between atoms: C_29  and  C_30
REMARK    5  A    between atoms: C_30  and  O_31
REMARK                            x       y       z     vdW  Elec       q    Type
REMARK                         _______ _______ _______ _____ _____    ______ ____
ROOT
ATOM      1 BR   UNL     1      31.771 -22.161 -18.319  0.00  0.00    -0.047 Br
ATOM      2  O   UNL     1      34.728 -21.711 -18.561  0.00  0.00    -0.270 OA
ATOM      3  O   UNL     1      38.237 -22.874 -15.833  0.00  0.00    -0.270 OA
ATOM      4  N   UNL     1      31.976 -24.125 -14.797  0.00  0.00    -0.321 N 
ATOM      5  N   UNL     1      36.710 -22.132 -17.438  0.00  0.00    -0.248 N 
ATOM      6  C   UNL     1      33.506 -23.206 -16.134  0.00  0.00    +0.028 A 
ATOM      7  C   UNL     1      33.328 -23.904 -14.931  0.00  0.00    +0.061 A 
ATOM      8  C   UNL     1      34.818 -22.879 -16.466  0.00  0.00    +0.060 C 
ATOM      9  C   UNL     1      35.883 -23.230 -15.643  0.00  0.00    +0.058 C 
ATOM     10  C   UNL     1      35.706 -23.916 -14.460  0.00  0.00    +0.007 C 
ATOM     11  C   UNL     1      31.301 -23.594 -15.864  0.00  0.00    +0.120 A 
ATOM     12  C   UNL     1      34.401 -24.266 -14.085  0.00  0.00    +0.017 C 
ATOM     13  C   UNL     1      32.223 -23.019 -16.710  0.00  0.00    +0.056 A 
ATOM     14  C   UNL     1      35.348 -22.171 -17.624  0.00  0.00    +0.252 C 
ATOM     15  C   UNL     1      37.110 -22.745 -16.274  0.00  0.00    +0.252 C 
ATOM     16  C   UNL     1      31.357 -24.819 -13.685  0.00  0.00    +0.131 C 
ATOM     17  H   UNL     1      37.334 -21.709 -18.072  0.00  0.00    +0.158 HD
ENDROOT
BRANCH  10  19
ATOM     18 CL   UNL     1      37.112 -26.602 -15.023  0.00  0.00    -0.082 Cl
ATOM     19  C   UNL     1      36.812 -24.282 -13.603  0.00  0.00    +0.011 C 
ATOM     20  C   UNL     1      37.516 -25.476 -13.774  0.00  0.00    +0.058 C 
ATOM     21  C   UNL     1      37.176 -23.405 -12.579  0.00  0.00    +0.001 C 
ATOM     22  C   UNL     1      38.577 -25.792 -12.926  0.00  0.00    +0.011 C 
ATOM     23  C   UNL     1      38.238 -23.720 -11.731  0.00  0.00    +0.000 C 
ATOM     24  C   UNL     1      38.938 -24.914 -11.904  0.00  0.00    +0.001 C 
ENDBRANCH  10  19
BRANCH  11  27
ATOM     25  O   UNL     1      29.314 -24.709 -16.420  0.00  0.00    -0.269 OA
ATOM     26  N   UNL     1      29.124 -22.523 -15.669  0.00  0.00    -0.297 N 
ATOM     27  C   UNL     1      29.877 -23.663 -16.014  0.00  0.00    +0.262 C 
ATOM     28  H   UNL     1      29.613 -21.727 -15.356  0.00  0.00    +0.150 HD
BRANCH  26  29
ATOM     29  C   UNL     1      27.683 -22.444 -15.743  0.00  0.00    +0.122 C 
BRANCH  29  30
ATOM     30  C   UNL     1      27.216 -22.064 -17.137  0.00  0.00    +0.158 C 
BRANCH  30  31
ATOM     31  O   UNL     1      27.213 -23.219 -17.965  0.00  0.00    -0.380 OA
ATOM     32  H   UNL     1      26.787 -23.010 -18.810  0.00  0.00    +0.211 HD
ENDBRANCH  30  31
ENDBRANCH  29  30
ENDBRANCH  26  29
ENDBRANCH  11  27
TORSDOF 5
ENDMDL
MODEL 6
REMARK VINA RESULT:      -8.3      4.040      9.689
REMARK  Name = 11691442
REMARK  5 active torsions:
REMARK  status: ('A' for Active; 'I' for Inactive)
REMARK    1  A    between atoms: C_10  and  C_19
REMARK    2  A    between atoms: C_11  and  C_27
REMARK    3  A    between atoms: N_26  and  C_29
REMARK    4  A    between atoms: C_29  and  C_30
REMARK    5  A    between atoms: C_30  and  O_31
REMARK                            x       y       z     vdW  Elec       q    Type
REMARK                         _______ _______ _______ _____ _____    ______ ____
ROOT
ATOM      1 BR   UNL     1      32.446 -13.734 -19.864  0.00  0.00    -0.047 Br
ATOM      2  O   UNL     1      31.784 -10.984 -18.860  0.00  0.00    -0.270 OA
ATOM      3  O   UNL     1      31.598  -6.912 -20.981  0.00  0.00    -0.270 OA
ATOM      4  N   UNL     1      33.102 -12.594 -23.681  0.00  0.00    -0.321 N 
ATOM      5  N   UNL     1      31.596  -8.796 -19.599  0.00  0.00    -0.248 N 
ATOM      6  C   UNL     1      32.521 -11.496 -21.829  0.00  0.00    +0.028 A 
ATOM      7  C   UNL     1      32.796 -11.343 -23.196  0.00  0.00    +0.061 A 
ATOM      8  C   UNL     1      32.183 -10.336 -21.137  0.00  0.00    +0.060 C 
ATOM      9  C   UNL     1      32.125  -9.102 -21.775  0.00  0.00    +0.058 C 
ATOM     10  C   UNL     1      32.396  -8.953 -23.119  0.00  0.00    +0.007 C 
ATOM     11  C   UNL     1      33.031 -13.523 -22.677  0.00  0.00    +0.120 A 
ATOM     12  C   UNL     1      32.742 -10.094 -23.856  0.00  0.00    +0.017 C 
ATOM     13  C   UNL     1      32.672 -12.872 -21.518  0.00  0.00    +0.056 A 
ATOM     14  C   UNL     1      31.842 -10.142 -19.734  0.00  0.00    +0.252 C 
ATOM     15  C   UNL     1      31.744  -8.103 -20.777  0.00  0.00    +0.252 C 
ATOM     16  C   UNL     1      33.450 -12.885 -25.058  0.00  0.00    +0.131 C 
ATOM     17  H   UNL     1      31.340  -8.373 -18.748  0.00  0.00    +0.158 HD
ENDROOT
BRANCH  10  19
ATOM     18 CL   UNL     1      35.058  -7.466 -23.580  0.00  0.00    -0.082 Cl
ATOM     19  C   UNL     1      32.337  -7.671 -23.786  0.00  0.00    +0.011 C 
ATOM     20  C   UNL     1      33.485  -6.918 -24.043  0.00  0.00    +0.058 C 
ATOM     21  C   UNL     1      31.088  -7.185 -24.180  0.00  0.00    +0.001 C 
ATOM     22  C   UNL     1      33.384  -5.686 -24.689  0.00  0.00    +0.011 C 
ATOM     23  C   UNL     1      30.987  -5.953 -24.826  0.00  0.00    +0.000 C 
ATOM     24  C   UNL     1      32.136  -5.203 -25.081  0.00  0.00    +0.001 C 
ENDBRANCH  10  19
BRANCH  11  27
ATOM     25  O   UNL     1      32.529 -15.797 -22.403  0.00  0.00    -0.269 OA
ATOM     26  N   UNL     1      34.434 -15.274 -23.618  0.00  0.00    -0.297 N 
ATOM     27  C   UNL     1      33.295 -14.919 -22.868  0.00  0.00    +0.262 C 
ATOM     28  H   UNL     1      35.004 -14.548 -23.961  0.00  0.00    +0.150 HD
BRANCH  26  29
ATOM     29  C   UNL     1      34.821 -16.635 -23.917  0.00  0.00    +0.122 C 
BRANCH  29  30
ATOM     30  C   UNL     1      34.223 -17.111 -25.228  0.00  0.00    +0.158 C 
BRANCH  30  31
ATOM     31  O   UNL     1      34.096 -16.007 -26.116  0.00  0.00    -0.380 OA
ATOM     32  H   UNL     1      33.276 -15.529 -25.922  0.00  0.00    +0.211 HD
ENDBRANCH  30  31
ENDBRANCH  29  30
ENDBRANCH  26  29
ENDBRANCH  11  27
TORSDOF 5
ENDMDL
MODEL 7
REMARK VINA RESULT:      -8.2      6.856     10.278
REMARK  Name = 11691442
REMARK  5 active torsions:
REMARK  status: ('A' for Active; 'I' for Inactive)
REMARK    1  A    between atoms: C_10  and  C_19
REMARK    2  A    between atoms: C_11  and  C_27
REMARK    3  A    between atoms: N_26  and  C_29
REMARK    4  A    between atoms: C_29  and  C_30
REMARK    5  A    between atoms: C_30  and  O_31
REMARK                            x       y       z     vdW  Elec       q    Type
REMARK                         _______ _______ _______ _____ _____    ______ ____
ROOT
ATOM      1 BR   UNL     1      37.757 -21.996 -16.609  0.00  0.00    -0.047 Br
ATOM      2  O   UNL     1      36.680 -23.227 -14.092  0.00  0.00    -0.270 OA
ATOM      3  O   UNL     1      32.491 -24.750 -12.977  0.00  0.00    -0.270 OA
ATOM      4  N   UNL     1      34.265 -22.156 -18.630  0.00  0.00    -0.321 N 
ATOM      5  N   UNL     1      34.718 -24.078 -13.203  0.00  0.00    -0.248 N 
ATOM      6  C   UNL     1      34.879 -22.766 -16.574  0.00  0.00    +0.028 A 
ATOM      7  C   UNL     1      33.796 -22.717 -17.464  0.00  0.00    +0.061 A 
ATOM      8  C   UNL     1      34.617 -23.307 -15.318  0.00  0.00    +0.060 C 
ATOM      9  C   UNL     1      33.351 -23.769 -14.977  0.00  0.00    +0.058 C 
ATOM     10  C   UNL     1      32.288 -23.720 -15.853  0.00  0.00    +0.007 C 
ATOM     11  C   UNL     1      35.595 -21.851 -18.507  0.00  0.00    +0.120 A 
ATOM     12  C   UNL     1      32.504 -23.183 -17.129  0.00  0.00    +0.017 C 
ATOM     13  C   UNL     1      36.003 -22.218 -17.245  0.00  0.00    +0.056 A 
ATOM     14  C   UNL     1      35.501 -23.505 -14.177  0.00  0.00    +0.252 C 
ATOM     15  C   UNL     1      33.417 -24.270 -13.604  0.00  0.00    +0.252 C 
ATOM     16  C   UNL     1      33.466 -21.922 -19.816  0.00  0.00    +0.131 C 
ATOM     17  H   UNL     1      35.054 -24.327 -12.311  0.00  0.00    +0.158 HD
ENDROOT
BRANCH  10  19
ATOM     18 CL   UNL     1      30.241 -21.645 -14.845  0.00  0.00    -0.082 Cl
ATOM     19  C   UNL     1      30.969 -24.200 -15.500  0.00  0.00    +0.011 C 
ATOM     20  C   UNL     1      29.970 -23.342 -15.035  0.00  0.00    +0.058 C 
ATOM     21  C   UNL     1      30.702 -25.565 -15.637  0.00  0.00    +0.001 C 
ATOM     22  C   UNL     1      28.711 -23.846 -14.706  0.00  0.00    +0.011 C 
ATOM     23  C   UNL     1      29.443 -26.068 -15.309  0.00  0.00    +0.000 C 
ATOM     24  C   UNL     1      28.448 -25.208 -14.844  0.00  0.00    +0.001 C 
ENDBRANCH  10  19
BRANCH  11  27
ATOM     25  O   UNL     1      37.233 -21.914 -20.184  0.00  0.00    -0.269 OA
ATOM     26  N   UNL     1      36.116 -19.906 -19.874  0.00  0.00    -0.297 N 
ATOM     27  C   UNL     1      36.370 -21.254 -19.555  0.00  0.00    +0.262 C 
ATOM     28  H   UNL     1      35.429 -19.431 -19.352  0.00  0.00    +0.150 HD
BRANCH  26  29
ATOM     29  C   UNL     1      36.796 -19.172 -20.917  0.00  0.00    +0.122 C 
BRANCH  29  30
ATOM     30  C   UNL     1      35.858 -18.216 -21.631  0.00  0.00    +0.158 C 
BRANCH  30  31
ATOM     31  O   UNL     1      35.277 -17.330 -20.683  0.00  0.00    -0.380 OA
ATOM     32  H   UNL     1      34.356 -17.153 -20.928  0.00  0.00    +0.211 HD
ENDBRANCH  30  31
ENDBRANCH  29  30
ENDBRANCH  26  29
ENDBRANCH  11  27
TORSDOF 5
ENDMDL
