MODEL 1
REMARK VINA RESULT:      -8.7      0.000      0.000
REMARK  Name = 37264
REMARK  7 active torsions:
REMARK  status: ('A' for Active; 'I' for Inactive)
REMARK    1  A    between atoms: C_12  and  O_28
REMARK    2  A    between atoms: C_16  and  O_22
REMARK    3  A    between atoms: C_18  and  O_24
REMARK    4  A    between atoms: C_19  and  O_26
REMARK    5  A    between atoms: O_28  and  C_29
REMARK    6  A    between atoms: C_29  and  C_30
REMARK    7  A    between atoms: C_30  and  O_33
REMARK                            x       y       z     vdW  Elec       q    Type
REMARK                         _______ _______ _______ _____ _____    ______ ____
ROOT
ATOM      1  O   UNL     1      34.637 -18.583 -24.959  0.00  0.00    -0.226 OA
ATOM      2  N   UNL     1      33.567 -14.388 -22.675  0.00  0.00    -0.231 N 
ATOM      3  N   UNL     1      34.531 -16.962 -23.299  0.00  0.00    -0.242 N 
ATOM      4  N   UNL     1      33.315 -12.112 -23.288  0.00  0.00    -0.329 NA
ATOM      5  N   UNL     1      32.270 -12.970 -21.294  0.00  0.00    -0.317 NA
ATOM      6  N   UNL     1      30.979 -11.568 -19.915  0.00  0.00    -0.335 N 
ATOM      7  C   UNL     1      33.289 -15.501 -21.756  0.00  0.00    +0.125 C 
ATOM      8  C   UNL     1      33.785 -14.756 -24.084  0.00  0.00    +0.125 C 
ATOM      9  C   UNL     1      34.354 -16.587 -21.897  0.00  0.00    +0.119 C 
ATOM     10  C   UNL     1      34.846 -15.848 -24.189  0.00  0.00    +0.119 C 
ATOM     11  C   UNL     1      33.035 -13.121 -22.410  0.00  0.00    +0.204 C 
ATOM     12  C   UNL     1      34.453 -18.268 -23.785  0.00  0.00    +0.405 C 
ATOM     13  C   UNL     1      32.808 -10.892 -23.038  0.00  0.00    +0.171 C 
ATOM     14  C   UNL     1      32.008 -10.648 -21.910  0.00  0.00    +0.149 C 
ATOM     15  C   UNL     1      31.777 -11.736 -21.074  0.00  0.00    +0.178 C 
ATOM     16  C   UNL     1      33.060  -9.826 -23.899  0.00  0.00    +0.202 C 
ATOM     17  C   UNL     1      31.482  -9.368 -21.659  0.00  0.00    +0.029 C 
ATOM     18  C   UNL     1      32.541  -8.550 -23.655  0.00  0.00    +0.208 C 
ATOM     19  C   UNL     1      31.751  -8.322 -22.535  0.00  0.00    +0.172 C 
ATOM     20  H   UNL     1      30.810 -12.332 -19.318  0.00  0.00    +0.144 HD
ATOM     21  H   UNL     1      30.594 -10.686 -19.708  0.00  0.00    +0.144 HD
ENDROOT
BRANCH  16  22
ATOM     22  O   UNL     1      33.834 -10.027 -25.008  0.00  0.00    -0.466 OA
ATOM     23  C   UNL     1      35.245 -10.014 -24.817  0.00  0.00    +0.253 C 
ENDBRANCH  16  22
BRANCH  18  24
ATOM     24  O   UNL     1      32.810  -7.531 -24.520  0.00  0.00    -0.465 OA
ATOM     25  C   UNL     1      33.967  -6.743 -24.252  0.00  0.00    +0.253 C 
ENDBRANCH  18  24
BRANCH  19  26
ATOM     26  O   UNL     1      31.239  -7.085 -22.284  0.00  0.00    -0.469 OA
ATOM     27  C   UNL     1      31.830  -6.342 -21.218  0.00  0.00    +0.253 C 
ENDBRANCH  19  26
BRANCH  12  28
ATOM     28  O   UNL     1      34.147 -19.177 -22.806  0.00  0.00    -0.432 OA
BRANCH  28  29
ATOM     29  C   UNL     1      35.224 -20.011 -22.362  0.00  0.00    +0.237 C 
BRANCH  29  30
ATOM     30  C   UNL     1      35.210 -20.132 -20.833  0.00  0.00    +0.129 C 
ATOM     31  C   UNL     1      33.787 -20.156 -20.275  0.00  0.00    +0.033 C 
ATOM     32  C   UNL     1      35.974 -21.382 -20.393  0.00  0.00    +0.033 C 
BRANCH  30  33
ATOM     33  O   UNL     1      35.865 -18.990 -20.275  0.00  0.00    -0.383 OA
ATOM     34  H   UNL     1      36.796 -18.986 -20.547  0.00  0.00    +0.210 HD
ENDBRANCH  30  33
ENDBRANCH  29  30
ENDBRANCH  28  29
ENDBRANCH  12  28
TORSDOF 7
ENDMDL
MODEL 2
REMARK VINA RESULT:      -8.7      6.359     13.378
REMARK  Name = 37264
REMARK  7 active torsions:
REMARK  status: ('A' for Active; 'I' for Inactive)
REMARK    1  A    between atoms: C_12  and  O_28
REMARK    2  A    between atoms: C_16  and  O_22
REMARK    3  A    between atoms: C_18  and  O_24
REMARK    4  A    between atoms: C_19  and  O_26
REMARK    5  A    between atoms: O_28  and  C_29
REMARK    6  A    between atoms: C_29  and  C_30
REMARK    7  A    between atoms: C_30  and  O_33
REMARK                            x       y       z     vdW  Elec       q    Type
REMARK                         _______ _______ _______ _____ _____    ______ ____
ROOT
ATOM      1  O   UNL     1      36.807 -18.664 -21.732  0.00  0.00    -0.226 OA
ATOM      2  N   UNL     1      35.380 -21.895 -18.343  0.00  0.00    -0.231 N 
ATOM      3  N   UNL     1      35.742 -20.483 -20.756  0.00  0.00    -0.242 N 
ATOM      4  N   UNL     1      36.329 -22.902 -16.419  0.00  0.00    -0.329 NA
ATOM      5  N   UNL     1      33.938 -22.755 -16.675  0.00  0.00    -0.317 NA
ATOM      6  N   UNL     1      32.498 -23.608 -15.022  0.00  0.00    -0.335 N 
ATOM      7  C   UNL     1      34.201 -21.485 -19.119  0.00  0.00    +0.125 C 
ATOM      8  C   UNL     1      36.587 -21.072 -18.524  0.00  0.00    +0.125 C 
ATOM      9  C   UNL     1      34.561 -21.330 -20.596  0.00  0.00    +0.119 C 
ATOM     10  C   UNL     1      36.914 -20.930 -20.008  0.00  0.00    +0.119 C 
ATOM     11  C   UNL     1      35.209 -22.536 -17.111  0.00  0.00    +0.204 C 
ATOM     12  C   UNL     1      35.802 -19.354 -21.574  0.00  0.00    +0.405 C 
ATOM     13  C   UNL     1      36.172 -23.518 -15.234  0.00  0.00    +0.171 C 
ATOM     14  C   UNL     1      34.897 -23.784 -14.710  0.00  0.00    +0.149 C 
ATOM     15  C   UNL     1      33.816 -23.374 -15.485  0.00  0.00    +0.178 C 
ATOM     16  C   UNL     1      37.278 -23.914 -14.485  0.00  0.00    +0.202 C 
ATOM     17  C   UNL     1      34.744 -24.429 -13.469  0.00  0.00    +0.029 C 
ATOM     18  C   UNL     1      37.134 -24.556 -13.251  0.00  0.00    +0.208 C 
ATOM     19  C   UNL     1      35.866 -24.814 -12.743  0.00  0.00    +0.172 C 
ATOM     20  H   UNL     1      31.727 -23.322 -15.563  0.00  0.00    +0.144 HD
ATOM     21  H   UNL     1      32.353 -24.057 -14.158  0.00  0.00    +0.144 HD
ENDROOT
BRANCH  16  22
ATOM     22  O   UNL     1      38.536 -23.670 -14.964  0.00  0.00    -0.466 OA
ATOM     23  C   UNL     1      39.287 -24.799 -15.397  0.00  0.00    +0.253 C 
ENDBRANCH  16  22
BRANCH  18  24
ATOM     24  O   UNL     1      38.240 -24.929 -12.546  0.00  0.00    -0.465 OA
ATOM     25  C   UNL     1      38.845 -23.937 -11.721  0.00  0.00    +0.253 C 
ENDBRANCH  18  24
BRANCH  19  26
ATOM     26  O   UNL     1      35.710 -25.439 -11.544  0.00  0.00    -0.469 OA
ATOM     27  C   UNL     1      35.479 -24.611 -10.405  0.00  0.00    +0.253 C 
ENDBRANCH  19  26
BRANCH  12  28
ATOM     28  O   UNL     1      34.608 -19.089 -22.193  0.00  0.00    -0.432 OA
BRANCH  28  29
ATOM     29  C   UNL     1      34.170 -17.726 -22.158  0.00  0.00    +0.237 C 
BRANCH  29  30
ATOM     30  C   UNL     1      34.585 -16.998 -23.443  0.00  0.00    +0.129 C 
ATOM     31  C   UNL     1      34.509 -17.912 -24.667  0.00  0.00    +0.033 C 
ATOM     32  C   UNL     1      33.717 -15.756 -23.654  0.00  0.00    +0.033 C 
BRANCH  30  33
ATOM     33  O   UNL     1      35.944 -16.575 -23.314  0.00  0.00    -0.383 OA
ATOM     34  H   UNL     1      36.452 -16.879 -24.081  0.00  0.00    +0.210 HD
ENDBRANCH  30  33
ENDBRANCH  29  30
ENDBRANCH  28  29
ENDBRANCH  12  28
TORSDOF 7
ENDMDL
MODEL 3
REMARK VINA RESULT:      -7.9      2.627     10.489
REMARK  Name = 37264
REMARK  7 active torsions:
REMARK  status: ('A' for Active; 'I' for Inactive)
REMARK    1  A    between atoms: C_12  and  O_28
REMARK    2  A    between atoms: C_16  and  O_22
REMARK    3  A    between atoms: C_18  and  O_24
REMARK    4  A    between atoms: C_19  and  O_26
REMARK    5  A    between atoms: O_28  and  C_29
REMARK    6  A    between atoms: C_29  and  C_30
REMARK    7  A    between atoms: C_30  and  O_33
REMARK                            x       y       z     vdW  Elec       q    Type
REMARK                         _______ _______ _______ _____ _____    ______ ____
ROOT
ATOM      1  O   UNL     1      31.097  -5.958 -21.113  0.00  0.00    -0.226 OA
ATOM      2  N   UNL     1      33.070  -9.917 -23.208  0.00  0.00    -0.231 N 
ATOM      3  N   UNL     1      32.523  -7.277 -22.386  0.00  0.00    -0.242 N 
ATOM      4  N   UNL     1      33.356 -12.201 -22.642  0.00  0.00    -0.329 NA
ATOM      5  N   UNL     1      33.375 -11.496 -24.945  0.00  0.00    -0.317 NA
ATOM      6  N   UNL     1      33.678 -13.058 -26.677  0.00  0.00    -0.335 N 
ATOM      7  C   UNL     1      32.974  -8.856 -24.220  0.00  0.00    +0.125 C 
ATOM      8  C   UNL     1      32.317  -9.690 -21.964  0.00  0.00    +0.125 C 
ATOM      9  C   UNL     1      33.305  -7.498 -23.602  0.00  0.00    +0.119 C 
ATOM     10  C   UNL     1      32.662  -8.323 -21.378  0.00  0.00    +0.119 C 
ATOM     11  C   UNL     1      33.273 -11.242 -23.612  0.00  0.00    +0.204 C 
ATOM     12  C   UNL     1      31.726  -6.156 -22.151  0.00  0.00    +0.405 C 
ATOM     13  C   UNL     1      33.552 -13.476 -23.022  0.00  0.00    +0.171 C 
ATOM     14  C   UNL     1      33.669 -13.826 -24.377  0.00  0.00    +0.149 C 
ATOM     15  C   UNL     1      33.570 -12.783 -25.292  0.00  0.00    +0.178 C 
ATOM     16  C   UNL     1      33.645 -14.495 -22.077  0.00  0.00    +0.202 C 
ATOM     17  C   UNL     1      33.872 -15.163 -24.763  0.00  0.00    +0.029 C 
ATOM     18  C   UNL     1      33.848 -15.826 -22.453  0.00  0.00    +0.208 C 
ATOM     19  C   UNL     1      33.962 -16.160 -23.798  0.00  0.00    +0.172 C 
ATOM     20  H   UNL     1      33.609 -12.327 -27.333  0.00  0.00    +0.144 HD
ATOM     21  H   UNL     1      33.820 -13.983 -26.985  0.00  0.00    +0.144 HD
ENDROOT
BRANCH  16  22
ATOM     22  O   UNL     1      33.536 -14.190 -20.748  0.00  0.00    -0.466 OA
ATOM     23  C   UNL     1      32.276 -14.439 -20.133  0.00  0.00    +0.253 C 
ENDBRANCH  16  22
BRANCH  18  24
ATOM     24  O   UNL     1      33.934 -16.797 -21.500  0.00  0.00    -0.465 OA
ATOM     25  C   UNL     1      35.241 -17.174 -21.077  0.00  0.00    +0.253 C 
ENDBRANCH  18  24
BRANCH  19  26
ATOM     26  O   UNL     1      34.161 -17.452 -24.180  0.00  0.00    -0.469 OA
ATOM     27  C   UNL     1      34.545 -17.675 -25.536  0.00  0.00    +0.253 C 
ENDBRANCH  19  26
BRANCH  12  28
ATOM     28  O   UNL     1      31.716  -5.286 -23.209  0.00  0.00    -0.432 OA
BRANCH  28  29
ATOM     29  C   UNL     1      31.067  -4.028 -22.985  0.00  0.00    +0.237 C 
BRANCH  29  30
ATOM     30  C   UNL     1      31.315  -3.081 -24.165  0.00  0.00    +0.129 C 
ATOM     31  C   UNL     1      32.030  -1.801 -23.730  0.00  0.00    +0.033 C 
ATOM     32  C   UNL     1      32.117  -3.791 -25.257  0.00  0.00    +0.033 C 
BRANCH  30  33
ATOM     33  O   UNL     1      30.054  -2.694 -24.719  0.00  0.00    -0.383 OA
ATOM     34  H   UNL     1      29.857  -3.247 -25.490  0.00  0.00    +0.210 HD
ENDBRANCH  30  33
ENDBRANCH  29  30
ENDBRANCH  28  29
ENDBRANCH  12  28
TORSDOF 7
ENDMDL
MODEL 4
REMARK VINA RESULT:      -7.8      3.278     10.798
REMARK  Name = 37264
REMARK  7 active torsions:
REMARK  status: ('A' for Active; 'I' for Inactive)
REMARK    1  A    between atoms: C_12  and  O_28
REMARK    2  A    between atoms: C_16  and  O_22
REMARK    3  A    between atoms: C_18  and  O_24
REMARK    4  A    between atoms: C_19  and  O_26
REMARK    5  A    between atoms: O_28  and  C_29
REMARK    6  A    between atoms: C_29  and  C_30
REMARK    7  A    between atoms: C_30  and  O_33
REMARK                            x       y       z     vdW  Elec       q    Type
REMARK                         _______ _______ _______ _____ _____    ______ ____
ROOT
ATOM      1  O   UNL     1      29.975  -4.039 -22.406  0.00  0.00    -0.226 OA
ATOM      2  N   UNL     1      32.574  -8.111 -23.196  0.00  0.00    -0.231 N 
ATOM      3  N   UNL     1      31.798  -5.443 -22.725  0.00  0.00    -0.242 N 
ATOM      4  N   UNL     1      32.383 -10.408 -22.642  0.00  0.00    -0.329 NA
ATOM      5  N   UNL     1      33.707  -9.706 -24.528  0.00  0.00    -0.317 NA
ATOM      6  N   UNL     1      34.837 -11.284 -25.857  0.00  0.00    -0.335 N 
ATOM      7  C   UNL     1      33.107  -7.046 -24.057  0.00  0.00    +0.125 C 
ATOM      8  C   UNL     1      31.271  -7.838 -22.566  0.00  0.00    +0.125 C 
ATOM      9  C   UNL     1      33.109  -5.711 -23.314  0.00  0.00    +0.119 C 
ATOM     10  C   UNL     1      31.304  -6.495 -21.842  0.00  0.00    +0.119 C 
ATOM     11  C   UNL     1      32.898  -9.446 -23.464  0.00  0.00    +0.204 C 
ATOM     12  C   UNL     1      31.062  -4.275 -22.931  0.00  0.00    +0.405 C 
ATOM     13  C   UNL     1      32.691 -11.693 -22.893  0.00  0.00    +0.171 C 
ATOM     14  C   UNL     1      33.519 -12.050 -23.970  0.00  0.00    +0.149 C 
ATOM     15  C   UNL     1      33.996 -11.002 -24.752  0.00  0.00    +0.178 C 
ATOM     16  C   UNL     1      32.194 -12.715 -22.088  0.00  0.00    +0.202 C 
ATOM     17  C   UNL     1      33.834 -13.397 -24.225  0.00  0.00    +0.029 C 
ATOM     18  C   UNL     1      32.504 -14.056 -22.335  0.00  0.00    +0.208 C 
ATOM     19  C   UNL     1      33.325 -14.397 -23.404  0.00  0.00    +0.172 C 
ATOM     20  H   UNL     1      35.179 -10.550 -26.417  0.00  0.00    +0.144 HD
ATOM     21  H   UNL     1      35.079 -12.216 -26.065  0.00  0.00    +0.144 HD
ENDROOT
BRANCH  16  22
ATOM     22  O   UNL     1      31.385 -12.404 -21.031  0.00  0.00    -0.466 OA
ATOM     23  C   UNL     1      32.019 -11.886 -19.867  0.00  0.00    +0.253 C 
ENDBRANCH  16  22
BRANCH  18  24
ATOM     24  O   UNL     1      32.000 -15.031 -21.525  0.00  0.00    -0.465 OA
ATOM     25  C   UNL     1      32.803 -15.434 -20.420  0.00  0.00    +0.253 C 
ENDBRANCH  18  24
BRANCH  19  26
ATOM     26  O   UNL     1      33.637 -15.698 -23.656  0.00  0.00    -0.469 OA
ATOM     27  C   UNL     1      34.985 -16.100 -23.419  0.00  0.00    +0.253 C 
ENDBRANCH  19  26
BRANCH  12  28
ATOM     28  O   UNL     1      31.682  -3.406 -23.789  0.00  0.00    -0.432 OA
BRANCH  28  29
ATOM     29  C   UNL     1      30.935  -3.027 -24.951  0.00  0.00    +0.237 C 
BRANCH  29  30
ATOM     30  C   UNL     1      31.875  -2.819 -26.146  0.00  0.00    +0.129 C 
ATOM     31  C   UNL     1      32.509  -4.132 -26.608  0.00  0.00    +0.033 C 
ATOM     32  C   UNL     1      31.125  -2.157 -27.303  0.00  0.00    +0.033 C 
BRANCH  30  33
ATOM     33  O   UNL     1      32.939  -1.951 -25.750  0.00  0.00    -0.383 OA
ATOM     34  H   UNL     1      33.525  -2.416 -25.135  0.00  0.00    +0.210 HD
ENDBRANCH  30  33
ENDBRANCH  29  30
ENDBRANCH  28  29
ENDBRANCH  12  28
TORSDOF 7
ENDMDL
MODEL 5
REMARK VINA RESULT:      -7.2      1.846      3.691
REMARK  Name = 37264
REMARK  7 active torsions:
REMARK  status: ('A' for Active; 'I' for Inactive)
REMARK    1  A    between atoms: C_12  and  O_28
REMARK    2  A    between atoms: C_16  and  O_22
REMARK    3  A    between atoms: C_18  and  O_24
REMARK    4  A    between atoms: C_19  and  O_26
REMARK    5  A    between atoms: O_28  and  C_29
REMARK    6  A    between atoms: C_29  and  C_30
REMARK    7  A    between atoms: C_30  and  O_33
REMARK                            x       y       z     vdW  Elec       q    Type
REMARK                         _______ _______ _______ _____ _____    ______ ____
ROOT
ATOM      1  O   UNL     1      32.922 -16.450 -20.121  0.00  0.00    -0.226 OA
ATOM      2  N   UNL     1      33.450 -12.717 -23.244  0.00  0.00    -0.231 N 
ATOM      3  N   UNL     1      33.017 -15.264 -22.117  0.00  0.00    -0.242 N 
ATOM      4  N   UNL     1      32.996 -10.391 -23.236  0.00  0.00    -0.329 NA
ATOM      5  N   UNL     1      34.652 -11.314 -24.723  0.00  0.00    -0.317 NA
ATOM      6  N   UNL     1      35.850  -9.926 -26.196  0.00  0.00    -0.335 N 
ATOM      7  C   UNL     1      34.194 -13.870 -23.769  0.00  0.00    +0.125 C 
ATOM      8  C   UNL     1      33.006 -12.822 -21.844  0.00  0.00    +0.125 C 
ATOM      9  C   UNL     1      33.420 -15.164 -23.519  0.00  0.00    +0.119 C 
ATOM     10  C   UNL     1      32.245 -14.127 -21.625  0.00  0.00    +0.119 C 
ATOM     11  C   UNL     1      33.708 -11.439 -23.750  0.00  0.00    +0.204 C 
ATOM     12  C   UNL     1      33.292 -16.354 -21.290  0.00  0.00    +0.405 C 
ATOM     13  C   UNL     1      33.238  -9.159 -23.718  0.00  0.00    +0.171 C 
ATOM     14  C   UNL     1      34.195  -8.941 -24.723  0.00  0.00    +0.149 C 
ATOM     15  C   UNL     1      34.870 -10.067 -25.184  0.00  0.00    +0.178 C 
ATOM     16  C   UNL     1      32.543  -8.054 -23.231  0.00  0.00    +0.202 C 
ATOM     17  C   UNL     1      34.441  -7.648 -25.219  0.00  0.00    +0.029 C 
ATOM     18  C   UNL     1      32.781  -6.766 -23.721  0.00  0.00    +0.208 C 
ATOM     19  C   UNL     1      33.732  -6.563 -24.715  0.00  0.00    +0.172 C 
ATOM     20  H   UNL     1      36.334 -10.717 -26.529  0.00  0.00    +0.144 HD
ATOM     21  H   UNL     1      36.049  -9.036 -26.567  0.00  0.00    +0.144 HD
ENDROOT
BRANCH  16  22
ATOM     22  O   UNL     1      31.604  -8.229 -22.253  0.00  0.00    -0.466 OA
ATOM     23  C   UNL     1      32.053  -8.127 -20.906  0.00  0.00    +0.253 C 
ENDBRANCH  16  22
BRANCH  18  24
ATOM     24  O   UNL     1      32.082  -5.708 -23.221  0.00  0.00    -0.465 OA
ATOM     25  C   UNL     1      30.943  -5.278 -23.961  0.00  0.00    +0.253 C 
ENDBRANCH  18  24
BRANCH  19  26
ATOM     26  O   UNL     1      33.974  -5.315 -25.203  0.00  0.00    -0.469 OA
ATOM     27  C   UNL     1      33.658  -5.082 -26.574  0.00  0.00    +0.253 C 
ENDBRANCH  19  26
BRANCH  12  28
ATOM     28  O   UNL     1      34.027 -17.323 -21.923  0.00  0.00    -0.432 OA
BRANCH  28  29
ATOM     29  C   UNL     1      34.955 -18.045 -21.105  0.00  0.00    +0.237 C 
BRANCH  29  30
ATOM     30  C   UNL     1      34.706 -19.554 -21.219  0.00  0.00    +0.129 C 
ATOM     31  C   UNL     1      35.753 -20.365 -20.454  0.00  0.00    +0.033 C 
ATOM     32  C   UNL     1      33.301 -19.899 -20.722  0.00  0.00    +0.033 C 
BRANCH  30  33
ATOM     33  O   UNL     1      34.798 -19.934 -22.594  0.00  0.00    -0.383 OA
ATOM     34  H   UNL     1      34.776 -19.141 -23.151  0.00  0.00    +0.210 HD
ENDBRANCH  30  33
ENDBRANCH  29  30
ENDBRANCH  28  29
ENDBRANCH  12  28
TORSDOF 7
ENDMDL
MODEL 6
REMARK VINA RESULT:      -6.7      3.226      4.956
REMARK  Name = 37264
REMARK  7 active torsions:
REMARK  status: ('A' for Active; 'I' for Inactive)
REMARK    1  A    between atoms: C_12  and  O_28
REMARK    2  A    between atoms: C_16  and  O_22
REMARK    3  A    between atoms: C_18  and  O_24
REMARK    4  A    between atoms: C_19  and  O_26
REMARK    5  A    between atoms: O_28  and  C_29
REMARK    6  A    between atoms: C_29  and  C_30
REMARK    7  A    between atoms: C_30  and  O_33
REMARK                            x       y       z     vdW  Elec       q    Type
REMARK                         _______ _______ _______ _____ _____    ______ ____
ROOT
ATOM      1  O   UNL     1      33.331 -14.079 -25.456  0.00  0.00    -0.226 OA
ATOM      2  N   UNL     1      32.868  -9.579 -23.586  0.00  0.00    -0.231 N 
ATOM      3  N   UNL     1      33.534 -12.288 -23.991  0.00  0.00    -0.242 N 
ATOM      4  N   UNL     1      32.760  -7.368 -24.433  0.00  0.00    -0.329 NA
ATOM      5  N   UNL     1      31.844  -7.901 -22.269  0.00  0.00    -0.317 NA
ATOM      6  N   UNL     1      30.825  -6.238 -20.953  0.00  0.00    -0.335 N 
ATOM      7  C   UNL     1      32.584 -10.554 -22.524  0.00  0.00    +0.125 C 
ATOM      8  C   UNL     1      32.912 -10.115 -24.957  0.00  0.00    +0.125 C 
ATOM      9  C   UNL     1      33.530 -11.750 -22.631  0.00  0.00    +0.119 C 
ATOM     10  C   UNL     1      33.856 -11.312 -25.028  0.00  0.00    +0.119 C 
ATOM     11  C   UNL     1      32.479  -8.245 -23.423  0.00  0.00    +0.204 C 
ATOM     12  C   UNL     1      33.293 -13.624 -24.314  0.00  0.00    +0.405 C 
ATOM     13  C   UNL     1      32.389  -6.084 -24.282  0.00  0.00    +0.171 C 
ATOM     14  C   UNL     1      31.730  -5.643 -23.123  0.00  0.00    +0.149 C 
ATOM     15  C   UNL     1      31.486  -6.608 -22.150  0.00  0.00    +0.178 C 
ATOM     16  C   UNL     1      32.649  -5.146 -25.279  0.00  0.00    +0.202 C 
ATOM     17  C   UNL     1      31.346  -4.298 -22.977  0.00  0.00    +0.029 C 
ATOM     18  C   UNL     1      32.272  -3.807 -25.140  0.00  0.00    +0.208 C 
ATOM     19  C   UNL     1      31.619  -3.383 -23.988  0.00  0.00    +0.172 C 
ATOM     20  H   UNL     1      30.648  -6.913 -20.259  0.00  0.00    +0.144 HD
ATOM     21  H   UNL     1      30.542  -5.305 -20.816  0.00  0.00    +0.144 HD
ENDROOT
BRANCH  16  22
ATOM     22  O   UNL     1      33.289  -5.540 -26.421  0.00  0.00    -0.466 OA
ATOM     23  C   UNL     1      34.712  -5.497 -26.407  0.00  0.00    +0.253 C 
ENDBRANCH  16  22
BRANCH  18  24
ATOM     24  O   UNL     1      32.543  -2.917 -26.136  0.00  0.00    -0.465 OA
ATOM     25  C   UNL     1      31.587  -2.812 -27.188  0.00  0.00    +0.253 C 
ENDBRANCH  18  24
BRANCH  19  26
ATOM     26  O   UNL     1      31.247  -2.082 -23.837  0.00  0.00    -0.469 OA
ATOM     27  C   UNL     1      30.338  -1.786 -22.777  0.00  0.00    +0.253 C 
ENDBRANCH  19  26
BRANCH  12  28
ATOM     28  O   UNL     1      33.006 -14.389 -23.214  0.00  0.00    -0.432 OA
BRANCH  28  29
ATOM     29  C   UNL     1      33.961 -15.404 -22.885  0.00  0.00    +0.237 C 
BRANCH  29  30
ATOM     30  C   UNL     1      33.940 -15.690 -21.378  0.00  0.00    +0.129 C 
ATOM     31  C   UNL     1      32.592 -15.333 -20.748  0.00  0.00    +0.033 C 
ATOM     32  C   UNL     1      34.278 -17.158 -21.111  0.00  0.00    +0.033 C 
BRANCH  30  33
ATOM     33  O   UNL     1      34.933 -14.881 -20.742  0.00  0.00    -0.383 OA
ATOM     34  H   UNL     1      35.535 -15.447 -20.236  0.00  0.00    +0.210 HD
ENDBRANCH  30  33
ENDBRANCH  29  30
ENDBRANCH  28  29
ENDBRANCH  12  28
TORSDOF 7
ENDMDL
MODEL 7
REMARK VINA RESULT:      -6.6      3.362      5.811
REMARK  Name = 37264
REMARK  7 active torsions:
REMARK  status: ('A' for Active; 'I' for Inactive)
REMARK    1  A    between atoms: C_12  and  O_28
REMARK    2  A    between atoms: C_16  and  O_22
REMARK    3  A    between atoms: C_18  and  O_24
REMARK    4  A    between atoms: C_19  and  O_26
REMARK    5  A    between atoms: O_28  and  C_29
REMARK    6  A    between atoms: C_29  and  C_30
REMARK    7  A    between atoms: C_30  and  O_33
REMARK                            x       y       z     vdW  Elec       q    Type
REMARK                         _______ _______ _______ _____ _____    ______ ____
ROOT
ATOM      1  O   UNL     1      32.171 -13.261 -20.105  0.00  0.00    -0.226 OA
ATOM      2  N   UNL     1      32.499  -9.523 -23.248  0.00  0.00    -0.231 N 
ATOM      3  N   UNL     1      32.310 -12.094 -22.109  0.00  0.00    -0.242 N 
ATOM      4  N   UNL     1      31.725  -7.284 -23.345  0.00  0.00    -0.329 NA
ATOM      5  N   UNL     1      33.642  -7.978 -24.629  0.00  0.00    -0.317 NA
ATOM      6  N   UNL     1      34.784  -6.448 -26.004  0.00  0.00    -0.335 N 
ATOM      7  C   UNL     1      33.449 -10.564 -23.665  0.00  0.00    +0.125 C 
ATOM      8  C   UNL     1      31.928  -9.675 -21.900  0.00  0.00    +0.125 C 
ATOM      9  C   UNL     1      32.841 -11.951 -23.464  0.00  0.00    +0.119 C 
ATOM     10  C   UNL     1      31.339 -11.073 -21.728  0.00  0.00    +0.119 C 
ATOM     11  C   UNL     1      32.627  -8.226 -23.756  0.00  0.00    +0.204 C 
ATOM     12  C   UNL     1      32.646 -13.126 -21.231  0.00  0.00    +0.405 C 
ATOM     13  C   UNL     1      31.842  -6.036 -23.830  0.00  0.00    +0.171 C 
ATOM     14  C   UNL     1      32.860  -5.694 -24.735  0.00  0.00    +0.149 C 
ATOM     15  C   UNL     1      33.731  -6.717 -25.095  0.00  0.00    +0.178 C 
ATOM     16  C   UNL     1      30.951  -5.036 -23.446  0.00  0.00    +0.202 C 
ATOM     17  C   UNL     1      32.973  -4.384 -25.235  0.00  0.00    +0.029 C 
ATOM     18  C   UNL     1      31.057  -3.732 -23.940  0.00  0.00    +0.208 C 
ATOM     19  C   UNL     1      32.069  -3.406 -24.835  0.00  0.00    +0.172 C 
ATOM     20  H   UNL     1      35.406  -7.166 -26.265  0.00  0.00    +0.144 HD
ATOM     21  H   UNL     1      34.894  -5.543 -26.375  0.00  0.00    +0.144 HD
ENDROOT
BRANCH  16  22
ATOM     22  O   UNL     1      29.947  -5.333 -22.566  0.00  0.00    -0.466 OA
ATOM     23  C   UNL     1      30.264  -5.254 -21.180  0.00  0.00    +0.253 C 
ENDBRANCH  16  22
BRANCH  18  24
ATOM     24  O   UNL     1      30.166  -2.780 -23.541  0.00  0.00    -0.465 OA
ATOM     25  C   UNL     1      30.633  -1.808 -22.610  0.00  0.00    +0.253 C 
ENDBRANCH  18  24
BRANCH  19  26
ATOM     26  O   UNL     1      32.184  -2.141 -25.326  0.00  0.00    -0.469 OA
ATOM     27  C   UNL     1      31.639  -1.896 -26.621  0.00  0.00    +0.253 C 
ENDBRANCH  19  26
BRANCH  12  28
ATOM     28  O   UNL     1      33.573 -13.986 -21.760  0.00  0.00    -0.432 OA
BRANCH  28  29
ATOM     29  C   UNL     1      33.145 -15.342 -21.938  0.00  0.00    +0.237 C 
BRANCH  29  30
ATOM     30  C   UNL     1      34.253 -16.312 -21.511  0.00  0.00    +0.129 C 
ATOM     31  C   UNL     1      33.691 -17.671 -21.089  0.00  0.00    +0.033 C 
ATOM     32  C   UNL     1      35.271 -16.487 -22.639  0.00  0.00    +0.033 C 
BRANCH  30  33
ATOM     33  O   UNL     1      34.934 -15.765 -20.379  0.00  0.00    -0.383 OA
ATOM     34  H   UNL     1      35.396 -16.473 -19.905  0.00  0.00    +0.210 HD
ENDBRANCH  30  33
ENDBRANCH  29  30
ENDBRANCH  28  29
ENDBRANCH  12  28
TORSDOF 7
ENDMDL
MODEL 8
REMARK VINA RESULT:      -6.5      1.742      2.544
REMARK  Name = 37264
REMARK  7 active torsions:
REMARK  status: ('A' for Active; 'I' for Inactive)
REMARK    1  A    between atoms: C_12  and  O_28
REMARK    2  A    between atoms: C_16  and  O_22
REMARK    3  A    between atoms: C_18  and  O_24
REMARK    4  A    between atoms: C_19  and  O_26
REMARK    5  A    between atoms: O_28  and  C_29
REMARK    6  A    between atoms: C_29  and  C_30
REMARK    7  A    between atoms: C_30  and  O_33
REMARK                            x       y       z     vdW  Elec       q    Type
REMARK                         _______ _______ _______ _____ _____    ______ ____
ROOT
ATOM      1  O   UNL     1      33.835 -15.959 -26.255  0.00  0.00    -0.226 OA
ATOM      2  N   UNL     1      33.294 -12.184 -23.186  0.00  0.00    -0.231 N 
ATOM      3  N   UNL     1      34.090 -14.609 -24.381  0.00  0.00    -0.242 N 
ATOM      4  N   UNL     1      32.934  -9.848 -23.378  0.00  0.00    -0.329 NA
ATOM      5  N   UNL     1      32.323 -11.024 -21.365  0.00  0.00    -0.317 NA
ATOM      6  N   UNL     1      31.359  -9.878 -19.552  0.00  0.00    -0.335 N 
ATOM      7  C   UNL     1      33.207 -13.429 -22.410  0.00  0.00    +0.125 C 
ATOM      8  C   UNL     1      33.210 -12.330 -24.649  0.00  0.00    +0.125 C 
ATOM      9  C   UNL     1      34.212 -14.454 -22.932  0.00  0.00    +0.119 C 
ATOM     10  C   UNL     1      34.218 -13.366 -25.137  0.00  0.00    +0.119 C 
ATOM     11  C   UNL     1      32.838 -10.986 -22.626  0.00  0.00    +0.204 C 
ATOM     12  C   UNL     1      33.904 -15.828 -25.034  0.00  0.00    +0.405 C 
ATOM     13  C   UNL     1      32.498  -8.693 -22.846  0.00  0.00    +0.171 C 
ATOM     14  C   UNL     1      31.954  -8.643 -21.552  0.00  0.00    +0.149 C 
ATOM     15  C   UNL     1      31.895  -9.850 -20.862  0.00  0.00    +0.178 C 
ATOM     16  C   UNL     1      32.572  -7.504 -23.567  0.00  0.00    +0.202 C 
ATOM     17  C   UNL     1      31.500  -7.429 -21.005  0.00  0.00    +0.029 C 
ATOM     18  C   UNL     1      32.123  -6.293 -23.029  0.00  0.00    +0.208 C 
ATOM     19  C   UNL     1      31.587  -6.256 -21.748  0.00  0.00    +0.172 C 
ATOM     20  H   UNL     1      31.313 -10.727 -19.055  0.00  0.00    +0.144 HD
ATOM     21  H   UNL     1      31.031  -9.047 -19.137  0.00  0.00    +0.144 HD
ENDROOT
BRANCH  16  22
ATOM     22  O   UNL     1      33.096  -7.516 -24.830  0.00  0.00    -0.466 OA
ATOM     23  C   UNL     1      34.407  -6.985 -24.987  0.00  0.00    +0.253 C 
ENDBRANCH  16  22
BRANCH  18  24
ATOM     24  O   UNL     1      32.212  -5.149 -23.765  0.00  0.00    -0.465 OA
ATOM     25  C   UNL     1      31.168  -4.900 -24.702  0.00  0.00    +0.253 C 
ENDBRANCH  18  24
BRANCH  19  26
ATOM     26  O   UNL     1      31.147  -5.085 -21.210  0.00  0.00    -0.469 OA
ATOM     27  C   UNL     1      29.771  -4.758 -21.404  0.00  0.00    +0.253 C 
ENDBRANCH  19  26
BRANCH  12  28
ATOM     28  O   UNL     1      33.803 -16.882 -24.163  0.00  0.00    -0.432 OA
BRANCH  28  29
ATOM     29  C   UNL     1      34.885 -17.821 -24.183  0.00  0.00    +0.237 C 
BRANCH  29  30
ATOM     30  C   UNL     1      35.292 -18.197 -22.752  0.00  0.00    +0.129 C 
ATOM     31  C   UNL     1      34.747 -17.204 -21.724  0.00  0.00    +0.033 C 
ATOM     32  C   UNL     1      34.823 -19.614 -22.421  0.00  0.00    +0.033 C 
BRANCH  30  33
ATOM     33  O   UNL     1      36.719 -18.166 -22.656  0.00  0.00    -0.383 OA
ATOM     34  H   UNL     1      37.035 -19.001 -22.279  0.00  0.00    +0.210 HD
ENDBRANCH  30  33
ENDBRANCH  29  30
ENDBRANCH  28  29
ENDBRANCH  12  28
TORSDOF 7
ENDMDL
MODEL 9
REMARK VINA RESULT:      -6.0      5.958     12.915
REMARK  Name = 37264
REMARK  7 active torsions:
REMARK  status: ('A' for Active; 'I' for Inactive)
REMARK    1  A    between atoms: C_12  and  O_28
REMARK    2  A    between atoms: C_16  and  O_22
REMARK    3  A    between atoms: C_18  and  O_24
REMARK    4  A    between atoms: C_19  and  O_26
REMARK    5  A    between atoms: O_28  and  C_29
REMARK    6  A    between atoms: C_29  and  C_30
REMARK    7  A    between atoms: C_30  and  O_33
REMARK                            x       y       z     vdW  Elec       q    Type
REMARK                         _______ _______ _______ _____ _____    ______ ____
ROOT
ATOM      1  O   UNL     1      33.377 -19.765 -23.086  0.00  0.00    -0.226 OA
ATOM      2  N   UNL     1      35.373 -21.170 -18.842  0.00  0.00    -0.231 N 
ATOM      3  N   UNL     1      34.723 -19.755 -21.192  0.00  0.00    -0.242 N 
ATOM      4  N   UNL     1      34.649 -22.314 -16.896  0.00  0.00    -0.329 NA
ATOM      5  N   UNL     1      36.985 -22.248 -17.485  0.00  0.00    -0.317 NA
ATOM      6  N   UNL     1      38.592 -23.316 -16.141  0.00  0.00    -0.335 N 
ATOM      7  C   UNL     1      36.452 -20.740 -19.743  0.00  0.00    +0.125 C 
ATOM      8  C   UNL     1      34.056 -21.375 -19.468  0.00  0.00    +0.125 C 
ATOM      9  C   UNL     1      36.016 -19.519 -20.552  0.00  0.00    +0.119 C 
ATOM     10  C   UNL     1      33.655 -20.144 -20.276  0.00  0.00    +0.119 C 
ATOM     11  C   UNL     1      35.679 -21.932 -17.710  0.00  0.00    +0.204 C 
ATOM     12  C   UNL     1      34.474 -19.598 -22.556  0.00  0.00    +0.405 C 
ATOM     13  C   UNL     1      34.937 -23.045 -15.805  0.00  0.00    +0.171 C 
ATOM     14  C   UNL     1      36.256 -23.415 -15.498  0.00  0.00    +0.149 C 
ATOM     15  C   UNL     1      37.238 -22.981 -16.384  0.00  0.00    +0.178 C 
ATOM     16  C   UNL     1      33.927 -23.462 -14.941  0.00  0.00    +0.202 C 
ATOM     17  C   UNL     1      36.545 -24.181 -14.355  0.00  0.00    +0.029 C 
ATOM     18  C   UNL     1      34.207 -24.223 -13.802  0.00  0.00    +0.208 C 
ATOM     19  C   UNL     1      35.517 -24.583 -13.509  0.00  0.00    +0.172 C 
ATOM     20  H   UNL     1      39.294 -23.014 -16.762  0.00  0.00    +0.144 HD
ATOM     21  H   UNL     1      38.832 -23.851 -15.350  0.00  0.00    +0.144 HD
ENDROOT
BRANCH  16  22
ATOM     22  O   UNL     1      32.630 -23.120 -15.209  0.00  0.00    -0.466 OA
ATOM     23  C   UNL     1      32.135 -23.443 -16.504  0.00  0.00    +0.253 C 
ENDBRANCH  16  22
BRANCH  18  24
ATOM     24  O   UNL     1      33.192 -24.614 -12.979  0.00  0.00    -0.465 OA
ATOM     25  C   UNL     1      32.074 -25.253 -13.588  0.00  0.00    +0.253 C 
ENDBRANCH  18  24
BRANCH  19  26
ATOM     26  O   UNL     1      35.806 -25.323 -12.403  0.00  0.00    -0.469 OA
ATOM     27  C   UNL     1      37.130 -25.844 -12.298  0.00  0.00    +0.253 C 
ENDBRANCH  19  26
BRANCH  12  28
ATOM     28  O   UNL     1      35.594 -19.233 -23.257  0.00  0.00    -0.432 OA
BRANCH  28  29
ATOM     29  C   UNL     1      36.061 -17.895 -23.048  0.00  0.00    +0.237 C 
BRANCH  29  30
ATOM     30  C   UNL     1      35.112 -16.889 -23.710  0.00  0.00    +0.129 C 
ATOM     31  C   UNL     1      34.540 -17.423 -25.025  0.00  0.00    +0.033 C 
ATOM     32  C   UNL     1      33.980 -16.516 -22.752  0.00  0.00    +0.033 C 
BRANCH  30  33
ATOM     33  O   UNL     1      35.844 -15.700 -24.019  0.00  0.00    -0.383 OA
ATOM     34  H   UNL     1      36.374 -15.438 -23.252  0.00  0.00    +0.210 HD
ENDBRANCH  30  33
ENDBRANCH  29  30
ENDBRANCH  28  29
ENDBRANCH  12  28
TORSDOF 7
ENDMDL
