MODEL 1
REMARK VINA RESULT:     -12.2      0.000      0.000
REMARK  Name = 447736
REMARK  4 active torsions:
REMARK  status: ('A' for Active; 'I' for Inactive)
REMARK    1  A    between atoms: N_2  and  C_13
REMARK    2  A    between atoms: C_3  and  C_20
REMARK    3  A    between atoms: C_6  and  C_17
REMARK    4  A    between atoms: C_28  and  C_32
REMARK                            x       y       z     vdW  Elec       q    Type
REMARK                         _______ _______ _______ _____ _____    ______ ____
ROOT
ATOM      1  O   UNL     1      32.649 -20.996 -20.572  0.00  0.00    -0.270 OA
ATOM      2  N   UNL     1      34.819 -20.114 -20.772  0.00  0.00    -0.280 N 
ATOM      3  C   UNL     1      33.811 -20.898 -20.194  0.00  0.00    +0.249 C 
ATOM      4  H   UNL     1      35.701 -20.154 -20.335  0.00  0.00    +0.155 HD
ENDROOT
BRANCH   2  13
ATOM      5  N   UNL     1      33.825 -14.861 -23.898  0.00  0.00    +0.388 N 
ATOM      6  C   UNL     1      34.204 -15.558 -22.652  0.00  0.00    -0.039 C 
ATOM      7  C   UNL     1      34.407 -17.057 -22.829  0.00  0.00    -0.045 C 
ATOM      8  C   UNL     1      34.574 -17.603 -24.119  0.00  0.00    -0.030 C 
ATOM      9  C   UNL     1      34.491 -16.725 -25.341  0.00  0.00    +0.003 C 
ATOM     10  C   UNL     1      34.699 -15.252 -25.002  0.00  0.00    -0.076 C 
ATOM     11  C   UNL     1      34.512 -17.912 -21.720  0.00  0.00    +0.008 C 
ATOM     12  C   UNL     1      34.776 -18.982 -24.277  0.00  0.00    -0.003 C 
ATOM     13  C   UNL     1      34.726 -19.282 -21.888  0.00  0.00    +0.050 C 
ATOM     14  C   UNL     1      34.851 -19.817 -23.165  0.00  0.00    +0.014 C 
ATOM     15  H   UNL     1      33.901 -13.854 -23.753  0.00  0.00    -0.084 HD
ATOM     16  H   UNL     1      32.867 -15.117 -24.136  0.00  0.00    -0.084 HD
BRANCH   6  17
ATOM     17  C   UNL     1      33.131 -15.210 -21.612  0.00  0.00    -0.015 C 
ATOM     18  C   UNL     1      33.774 -14.953 -20.253  0.00  0.00    -0.002 C 
ATOM     19  C   UNL     1      32.324 -13.999 -22.068  0.00  0.00    -0.002 C 
ENDBRANCH   6  17
ENDBRANCH   2  13
BRANCH   3  20
ATOM     20  C   UNL     1      34.213 -21.660 -18.984  0.00  0.00    +0.054 C 
ATOM     21  C   UNL     1      35.907 -22.259 -17.384  0.00  0.00    +0.000 C 
ATOM     22  C   UNL     1      35.510 -21.544 -18.527  0.00  0.00    +0.005 C 
ATOM     23  C   UNL     1      34.967 -23.086 -16.723  0.00  0.00    +0.000 C 
ATOM     24  C   UNL     1      33.282 -22.456 -18.361  0.00  0.00    +0.005 C 
ATOM     25  C   UNL     1      33.658 -23.174 -17.225  0.00  0.00    +0.000 C 
ATOM     26  C   UNL     1      35.364 -23.800 -15.581  0.00  0.00    +0.003 C 
ATOM     27  C   UNL     1      37.215 -22.171 -16.883  0.00  0.00    +0.000 C 
ATOM     28  C   UNL     1      36.668 -23.700 -15.097  0.00  0.00    +0.031 C 
ATOM     29  C   UNL     1      37.592 -22.887 -15.747  0.00  0.00    +0.003 C 
BRANCH  28  32
ATOM     30  N   UNL     1      36.234 -25.421 -13.360  0.00  0.00    -0.343 N 
ATOM     31  N   UNL     1      38.230 -24.205 -13.342  0.00  0.00    -0.285 NA
ATOM     32  C   UNL     1      37.064 -24.447 -13.914  0.00  0.00    +0.117 C 
ATOM     33  H   UNL     1      36.522 -25.916 -12.559  0.00  0.00    +0.144 HD
ATOM     34  H   UNL     1      35.361 -25.614 -13.770  0.00  0.00    +0.144 HD
ATOM     35  H   UNL     1      38.499 -24.710 -12.541  0.00  0.00    +0.188 HD
ENDBRANCH  28  32
ENDBRANCH   3  20
TORSDOF 4
ENDMDL
MODEL 2
REMARK VINA RESULT:     -12.0      0.830      1.719
REMARK  Name = 447736
REMARK  4 active torsions:
REMARK  status: ('A' for Active; 'I' for Inactive)
REMARK    1  A    between atoms: N_2  and  C_13
REMARK    2  A    between atoms: C_3  and  C_20
REMARK    3  A    between atoms: C_6  and  C_17
REMARK    4  A    between atoms: C_28  and  C_32
REMARK                            x       y       z     vdW  Elec       q    Type
REMARK                         _______ _______ _______ _____ _____    ______ ____
ROOT
ATOM      1  O   UNL     1      33.641 -21.541 -20.039  0.00  0.00    -0.270 OA
ATOM      2  N   UNL     1      35.547 -20.201 -20.353  0.00  0.00    -0.280 N 
ATOM      3  C   UNL     1      34.756 -21.158 -19.702  0.00  0.00    +0.249 C 
ATOM      4  H   UNL     1      36.422 -20.013 -19.942  0.00  0.00    +0.155 HD
ENDROOT
BRANCH   2  13
ATOM      5  N   UNL     1      33.874 -15.294 -23.739  0.00  0.00    +0.388 N 
ATOM      6  C   UNL     1      34.472 -15.860 -22.514  0.00  0.00    -0.039 C 
ATOM      7  C   UNL     1      34.700 -17.365 -22.585  0.00  0.00    -0.045 C 
ATOM      8  C   UNL     1      34.679 -18.027 -23.829  0.00  0.00    -0.030 C 
ATOM      9  C   UNL     1      34.370 -17.272 -25.097  0.00  0.00    +0.003 C 
ATOM     10  C   UNL     1      34.575 -15.769 -24.931  0.00  0.00    -0.076 C 
ATOM     11  C   UNL     1      35.012 -18.107 -21.434  0.00  0.00    +0.008 C 
ATOM     12  C   UNL     1      34.904 -19.410 -23.893  0.00  0.00    -0.003 C 
ATOM     13  C   UNL     1      35.247 -19.482 -21.510  0.00  0.00    +0.050 C 
ATOM     14  C   UNL     1      35.187 -20.134 -22.737  0.00  0.00    +0.014 C 
ATOM     15  H   UNL     1      33.935 -14.276 -23.701  0.00  0.00    -0.084 HD
ATOM     16  H   UNL     1      32.900 -15.592 -23.795  0.00  0.00    -0.084 HD
BRANCH   6  17
ATOM     17  C   UNL     1      33.567 -15.438 -21.350  0.00  0.00    -0.015 C 
ATOM     18  C   UNL     1      34.390 -14.775 -20.251  0.00  0.00    -0.002 C 
ATOM     19  C   UNL     1      32.469 -14.504 -21.844  0.00  0.00    -0.002 C 
ENDBRANCH   6  17
ENDBRANCH   2  13
BRANCH   3  20
ATOM     20  C   UNL     1      35.343 -21.733 -18.464  0.00  0.00    +0.054 C 
ATOM     21  C   UNL     1      35.087 -23.069 -16.480  0.00  0.00    +0.000 C 
ATOM     22  C   UNL     1      34.548 -22.518 -17.655  0.00  0.00    +0.005 C 
ATOM     23  C   UNL     1      36.439 -22.806 -16.149  0.00  0.00    +0.000 C 
ATOM     24  C   UNL     1      36.658 -21.463 -18.166  0.00  0.00    +0.005 C 
ATOM     25  C   UNL     1      37.210 -22.001 -17.003  0.00  0.00    +0.000 C 
ATOM     26  C   UNL     1      36.977 -23.356 -14.975  0.00  0.00    +0.003 C 
ATOM     27  C   UNL     1      34.316 -23.873 -15.627  0.00  0.00    +0.000 C 
ATOM     28  C   UNL     1      36.196 -24.154 -14.139  0.00  0.00    +0.031 C 
ATOM     29  C   UNL     1      34.867 -24.412 -14.465  0.00  0.00    +0.003 C 
BRANCH  28  32
ATOM     30  N   UNL     1      38.128 -24.595 -12.643  0.00  0.00    -0.343 N 
ATOM     31  N   UNL     1      35.995 -25.358 -12.069  0.00  0.00    -0.285 NA
ATOM     32  C   UNL     1      36.769 -24.716 -12.926  0.00  0.00    +0.117 C 
ATOM     33  H   UNL     1      38.495 -24.982 -11.815  0.00  0.00    +0.144 HD
ATOM     34  H   UNL     1      38.721 -24.122 -13.270  0.00  0.00    +0.144 HD
ATOM     35  H   UNL     1      36.381 -25.739 -11.247  0.00  0.00    +0.188 HD
ENDBRANCH  28  32
ENDBRANCH   3  20
TORSDOF 4
ENDMDL
MODEL 3
REMARK VINA RESULT:     -11.9      2.250     10.358
REMARK  Name = 447736
REMARK  4 active torsions:
REMARK  status: ('A' for Active; 'I' for Inactive)
REMARK    1  A    between atoms: N_2  and  C_13
REMARK    2  A    between atoms: C_3  and  C_20
REMARK    3  A    between atoms: C_6  and  C_17
REMARK    4  A    between atoms: C_28  and  C_32
REMARK                            x       y       z     vdW  Elec       q    Type
REMARK                         _______ _______ _______ _____ _____    ______ ____
ROOT
ATOM      1  O   UNL     1      33.859 -23.857 -18.065  0.00  0.00    -0.270 OA
ATOM      2  N   UNL     1      34.963 -22.284 -16.711  0.00  0.00    -0.280 N 
ATOM      3  C   UNL     1      34.333 -22.742 -17.876  0.00  0.00    +0.249 C 
ATOM      4  H   UNL     1      35.287 -21.354 -16.732  0.00  0.00    +0.155 HD
ENDROOT
BRANCH   2  13
ATOM      5  N   UNL     1      38.157 -25.604 -12.572  0.00  0.00    +0.388 N 
ATOM      6  C   UNL     1      38.124 -24.632 -13.683  0.00  0.00    -0.039 C 
ATOM      7  C   UNL     1      36.721 -24.156 -14.036  0.00  0.00    -0.045 C 
ATOM      8  C   UNL     1      35.656 -24.357 -13.134  0.00  0.00    -0.030 C 
ATOM      9  C   UNL     1      35.874 -25.098 -11.840  0.00  0.00    +0.003 C 
ATOM     10  C   UNL     1      37.349 -25.139 -11.447  0.00  0.00    -0.076 C 
ATOM     11  C   UNL     1      36.472 -23.442 -15.220  0.00  0.00    +0.008 C 
ATOM     12  C   UNL     1      34.368 -23.904 -13.456  0.00  0.00    -0.003 C 
ATOM     13  C   UNL     1      35.189 -22.984 -15.525  0.00  0.00    +0.050 C 
ATOM     14  C   UNL     1      34.136 -23.220 -14.647  0.00  0.00    +0.014 C 
ATOM     15  H   UNL     1      39.122 -25.724 -12.262  0.00  0.00    -0.084 HD
ATOM     16  H   UNL     1      37.775 -26.490 -12.903  0.00  0.00    -0.084 HD
BRANCH   6  17
ATOM     17  C   UNL     1      38.856 -25.288 -14.861  0.00  0.00    -0.015 C 
ATOM     18  C   UNL     1      40.347 -25.403 -14.562  0.00  0.00    -0.002 C 
ATOM     19  C   UNL     1      38.256 -26.657 -15.161  0.00  0.00    -0.002 C 
ENDBRANCH   6  17
ENDBRANCH   2  13
BRANCH   3  20
ATOM     20  C   UNL     1      34.269 -21.762 -18.991  0.00  0.00    +0.054 C 
ATOM     21  C   UNL     1      35.393 -20.230 -20.466  0.00  0.00    +0.000 C 
ATOM     22  C   UNL     1      35.436 -21.160 -19.413  0.00  0.00    +0.005 C 
ATOM     23  C   UNL     1      34.150 -19.929 -21.073  0.00  0.00    +0.000 C 
ATOM     24  C   UNL     1      33.049 -21.487 -19.564  0.00  0.00    +0.005 C 
ATOM     25  C   UNL     1      32.987 -20.566 -20.610  0.00  0.00    +0.000 C 
ATOM     26  C   UNL     1      34.107 -19.000 -22.125  0.00  0.00    +0.003 C 
ATOM     27  C   UNL     1      36.555 -19.593 -20.929  0.00  0.00    +0.000 C 
ATOM     28  C   UNL     1      35.272 -18.377 -22.573  0.00  0.00    +0.031 C 
ATOM     29  C   UNL     1      36.494 -18.673 -21.975  0.00  0.00    +0.003 C 
BRANCH  28  32
ATOM     30  N   UNL     1      34.685 -17.763 -24.906  0.00  0.00    -0.343 N 
ATOM     31  N   UNL     1      35.662 -16.187 -23.483  0.00  0.00    -0.285 NA
ATOM     32  C   UNL     1      35.210 -17.416 -23.662  0.00  0.00    +0.117 C 
ATOM     33  H   UNL     1      34.652 -17.096 -25.630  0.00  0.00    +0.144 HD
ATOM     34  H   UNL     1      34.346 -18.674 -25.060  0.00  0.00    +0.144 HD
ATOM     35  H   UNL     1      35.620 -15.535 -24.219  0.00  0.00    +0.188 HD
ENDBRANCH  28  32
ENDBRANCH   3  20
TORSDOF 4
ENDMDL
MODEL 4
REMARK VINA RESULT:     -11.6      1.014      1.774
REMARK  Name = 447736
REMARK  4 active torsions:
REMARK  status: ('A' for Active; 'I' for Inactive)
REMARK    1  A    between atoms: N_2  and  C_13
REMARK    2  A    between atoms: C_3  and  C_20
REMARK    3  A    between atoms: C_6  and  C_17
REMARK    4  A    between atoms: C_28  and  C_32
REMARK                            x       y       z     vdW  Elec       q    Type
REMARK                         _______ _______ _______ _____ _____    ______ ____
ROOT
ATOM      1  O   UNL     1      32.917 -20.303 -21.148  0.00  0.00    -0.270 OA
ATOM      2  N   UNL     1      34.956 -19.204 -21.547  0.00  0.00    -0.280 N 
ATOM      3  C   UNL     1      34.100 -20.102 -20.896  0.00  0.00    +0.249 C 
ATOM      4  H   UNL     1      35.882 -19.170 -21.212  0.00  0.00    +0.155 HD
ENDROOT
BRANCH   2  13
ATOM      5  N   UNL     1      33.129 -13.977 -24.322  0.00  0.00    +0.388 N 
ATOM      6  C   UNL     1      33.713 -14.672 -23.157  0.00  0.00    -0.039 C 
ATOM      7  C   UNL     1      34.030 -16.139 -23.418  0.00  0.00    -0.045 C 
ATOM      8  C   UNL     1      34.095 -16.627 -24.739  0.00  0.00    -0.030 C 
ATOM      9  C   UNL     1      33.791 -15.725 -25.907  0.00  0.00    +0.003 C 
ATOM     10  C   UNL     1      33.902 -14.249 -25.533  0.00  0.00    -0.076 C 
ATOM     11  C   UNL     1      34.342 -17.013 -22.363  0.00  0.00    +0.008 C 
ATOM     12  C   UNL     1      34.403 -17.975 -24.976  0.00  0.00    -0.003 C 
ATOM     13  C   UNL     1      34.659 -18.351 -22.611  0.00  0.00    +0.050 C 
ATOM     14  C   UNL     1      34.683 -18.833 -23.915  0.00  0.00    +0.014 C 
ATOM     15  H   UNL     1      33.129 -12.973 -24.146  0.00  0.00    -0.084 HD
ATOM     16  H   UNL     1      32.178 -14.317 -24.461  0.00  0.00    -0.084 HD
BRANCH   6  17
ATOM     17  C   UNL     1      32.741 -14.461 -21.989  0.00  0.00    -0.015 C 
ATOM     18  C   UNL     1      33.481 -14.556 -20.660  0.00  0.00    -0.002 C 
ATOM     19  C   UNL     1      32.037 -13.115 -22.123  0.00  0.00    -0.002 C 
ENDBRANCH   6  17
ENDBRANCH   2  13
BRANCH   3  20
ATOM     20  C   UNL     1      34.708 -20.857 -19.770  0.00  0.00    +0.054 C 
ATOM     21  C   UNL     1      34.451 -22.362 -17.911  0.00  0.00    +0.000 C 
ATOM     22  C   UNL     1      33.892 -21.642 -18.980  0.00  0.00    +0.005 C 
ATOM     23  C   UNL     1      35.842 -22.267 -17.664  0.00  0.00    +0.000 C 
ATOM     24  C   UNL     1      36.061 -20.748 -19.551  0.00  0.00    +0.005 C 
ATOM     25  C   UNL     1      36.633 -21.455 -18.494  0.00  0.00    +0.000 C 
ATOM     26  C   UNL     1      36.400 -22.986 -16.595  0.00  0.00    +0.003 C 
ATOM     27  C   UNL     1      33.660 -23.173 -17.082  0.00  0.00    +0.000 C 
ATOM     28  C   UNL     1      35.599 -23.788 -15.781  0.00  0.00    +0.031 C 
ATOM     29  C   UNL     1      34.232 -23.881 -16.024  0.00  0.00    +0.003 C 
BRANCH  28  32
ATOM     30  N   UNL     1      35.464 -24.818 -13.526  0.00  0.00    -0.343 N 
ATOM     31  N   UNL     1      37.448 -24.931 -14.756  0.00  0.00    -0.285 NA
ATOM     32  C   UNL     1      36.193 -24.526 -14.678  0.00  0.00    +0.117 C 
ATOM     33  H   UNL     1      35.885 -25.320 -12.791  0.00  0.00    +0.144 HD
ATOM     34  H   UNL     1      34.528 -24.523 -13.448  0.00  0.00    +0.144 HD
ATOM     35  H   UNL     1      37.851 -25.431 -14.010  0.00  0.00    +0.188 HD
ENDBRANCH  28  32
ENDBRANCH   3  20
TORSDOF 4
ENDMDL
MODEL 5
REMARK VINA RESULT:     -11.2      1.924     10.088
REMARK  Name = 447736
REMARK  4 active torsions:
REMARK  status: ('A' for Active; 'I' for Inactive)
REMARK    1  A    between atoms: N_2  and  C_13
REMARK    2  A    between atoms: C_3  and  C_20
REMARK    3  A    between atoms: C_6  and  C_17
REMARK    4  A    between atoms: C_28  and  C_32
REMARK                            x       y       z     vdW  Elec       q    Type
REMARK                         _______ _______ _______ _____ _____    ______ ____
ROOT
ATOM      1  O   UNL     1      34.441 -23.200 -18.760  0.00  0.00    -0.270 OA
ATOM      2  N   UNL     1      36.050 -21.782 -17.797  0.00  0.00    -0.280 N 
ATOM      3  C   UNL     1      35.049 -22.137 -18.711  0.00  0.00    +0.249 C 
ATOM      4  H   UNL     1      36.434 -20.881 -17.905  0.00  0.00    +0.155 HD
ENDROOT
BRANCH   2  13
ATOM      5  N   UNL     1      35.934 -25.350 -12.737  0.00  0.00    +0.388 N 
ATOM      6  C   UNL     1      35.283 -24.843 -13.961  0.00  0.00    -0.039 C 
ATOM      7  C   UNL     1      36.213 -24.036 -14.858  0.00  0.00    -0.045 C 
ATOM      8  C   UNL     1      37.610 -24.114 -14.684  0.00  0.00    -0.030 C 
ATOM      9  C   UNL     1      38.201 -24.945 -13.573  0.00  0.00    +0.003 C 
ATOM     10  C   UNL     1      37.213 -25.984 -13.050  0.00  0.00    -0.076 C 
ATOM     11  C   UNL     1      35.711 -23.264 -15.919  0.00  0.00    +0.008 C 
ATOM     12  C   UNL     1      38.465 -23.382 -15.521  0.00  0.00    -0.003 C 
ATOM     13  C   UNL     1      36.572 -22.549 -16.754  0.00  0.00    +0.050 C 
ATOM     14  C   UNL     1      37.946 -22.602 -16.552  0.00  0.00    +0.014 C 
ATOM     15  H   UNL     1      35.322 -26.035 -12.293  0.00  0.00    -0.084 HD
ATOM     16  H   UNL     1      36.105 -24.564 -12.110  0.00  0.00    -0.084 HD
BRANCH   6  17
ATOM     17  C   UNL     1      34.047 -24.056 -13.506  0.00  0.00    -0.015 C 
ATOM     18  C   UNL     1      32.774 -24.824 -13.847  0.00  0.00    -0.002 C 
ATOM     19  C   UNL     1      34.123 -23.768 -12.011  0.00  0.00    -0.002 C 
ENDBRANCH   6  17
ENDBRANCH   2  13
BRANCH   3  20
ATOM     20  C   UNL     1      34.728 -21.107 -19.734  0.00  0.00    +0.054 C 
ATOM     21  C   UNL     1      35.479 -19.461 -21.319  0.00  0.00    +0.000 C 
ATOM     22  C   UNL     1      35.765 -20.438 -20.351  0.00  0.00    +0.005 C 
ATOM     23  C   UNL     1      34.129 -19.182 -21.643  0.00  0.00    +0.000 C 
ATOM     24  C   UNL     1      33.409 -20.854 -20.030  0.00  0.00    +0.005 C 
ATOM     25  C   UNL     1      33.106 -19.887 -20.989  0.00  0.00    +0.000 C 
ATOM     26  C   UNL     1      33.844 -18.205 -22.611  0.00  0.00    +0.003 C 
ATOM     27  C   UNL     1      36.502 -18.756 -21.972  0.00  0.00    +0.000 C 
ATOM     28  C   UNL     1      34.873 -17.515 -23.250  0.00  0.00    +0.031 C 
ATOM     29  C   UNL     1      36.200 -17.790 -22.932  0.00  0.00    +0.003 C 
BRANCH  28  32
ATOM     30  N   UNL     1      34.135 -15.229 -23.884  0.00  0.00    -0.343 N 
ATOM     31  N   UNL     1      34.675 -16.794 -25.534  0.00  0.00    -0.285 NA
ATOM     32  C   UNL     1      34.560 -16.505 -24.250  0.00  0.00    +0.117 C 
ATOM     33  H   UNL     1      33.930 -14.561 -24.577  0.00  0.00    +0.144 HD
ATOM     34  H   UNL     1      34.042 -14.996 -22.932  0.00  0.00    +0.144 HD
ATOM     35  H   UNL     1      34.463 -16.111 -26.212  0.00  0.00    +0.188 HD
ENDBRANCH  28  32
ENDBRANCH   3  20
TORSDOF 4
ENDMDL
MODEL 6
REMARK VINA RESULT:     -11.1      6.147     10.787
REMARK  Name = 447736
REMARK  4 active torsions:
REMARK  status: ('A' for Active; 'I' for Inactive)
REMARK    1  A    between atoms: N_2  and  C_13
REMARK    2  A    between atoms: C_3  and  C_20
REMARK    3  A    between atoms: C_6  and  C_17
REMARK    4  A    between atoms: C_28  and  C_32
REMARK                            x       y       z     vdW  Elec       q    Type
REMARK                         _______ _______ _______ _____ _____    ______ ____
ROOT
ATOM      1  O   UNL     1      30.436 -10.959 -22.130  0.00  0.00    -0.270 OA
ATOM      2  N   UNL     1      32.571  -9.976 -22.143  0.00  0.00    -0.280 N 
ATOM      3  C   UNL     1      31.659 -11.039 -22.100  0.00  0.00    +0.249 C 
ATOM      4  H   UNL     1      33.524 -10.222 -22.108  0.00  0.00    +0.155 HD
ENDROOT
BRANCH   2  13
ATOM      5  N   UNL     1      32.191  -4.392 -24.795  0.00  0.00    +0.388 N 
ATOM      6  C   UNL     1      32.209  -5.865 -24.907  0.00  0.00    -0.039 C 
ATOM      7  C   UNL     1      32.131  -6.580 -23.564  0.00  0.00    -0.045 C 
ATOM      8  C   UNL     1      31.711  -5.883 -22.412  0.00  0.00    -0.030 C 
ATOM      9  C   UNL     1      31.394  -4.410 -22.478  0.00  0.00    +0.003 C 
ATOM     10  C   UNL     1      31.119  -3.948 -23.907  0.00  0.00    -0.076 C 
ATOM     11  C   UNL     1      32.395  -7.955 -23.457  0.00  0.00    +0.008 C 
ATOM     12  C   UNL     1      31.625  -6.548 -21.181  0.00  0.00    -0.003 C 
ATOM     13  C   UNL     1      32.295  -8.611 -22.228  0.00  0.00    +0.050 C 
ATOM     14  C   UNL     1      31.917  -7.907 -21.090  0.00  0.00    +0.014 C 
ATOM     15  H   UNL     1      32.046  -3.989 -25.720  0.00  0.00    -0.084 HD
ATOM     16  H   UNL     1      33.083  -4.085 -24.407  0.00  0.00    -0.084 HD
BRANCH   6  17
ATOM     17  C   UNL     1      33.461  -6.227 -25.715  0.00  0.00    -0.015 C 
ATOM     18  C   UNL     1      33.816  -5.100 -26.678  0.00  0.00    -0.002 C 
ATOM     19  C   UNL     1      34.627  -6.529 -24.779  0.00  0.00    -0.002 C 
ENDBRANCH   6  17
ENDBRANCH   2  13
BRANCH   3  20
ATOM     20  C   UNL     1      32.264 -12.391 -21.979  0.00  0.00    +0.054 C 
ATOM     21  C   UNL     1      33.447 -14.226 -22.989  0.00  0.00    +0.000 C 
ATOM     22  C   UNL     1      32.871 -12.948 -23.086  0.00  0.00    +0.005 C 
ATOM     23  C   UNL     1      33.392 -14.919 -21.756  0.00  0.00    +0.000 C 
ATOM     24  C   UNL     1      32.197 -13.043 -20.770  0.00  0.00    +0.005 C 
ATOM     25  C   UNL     1      32.762 -14.313 -20.656  0.00  0.00    +0.000 C 
ATOM     26  C   UNL     1      33.967 -16.196 -21.659  0.00  0.00    +0.003 C 
ATOM     27  C   UNL     1      34.076 -14.831 -24.089  0.00  0.00    +0.000 C 
ATOM     28  C   UNL     1      34.588 -16.782 -22.762  0.00  0.00    +0.031 C 
ATOM     29  C   UNL     1      34.642 -16.100 -23.975  0.00  0.00    +0.003 C 
BRANCH  28  32
ATOM     30  N   UNL     1      34.395 -19.229 -22.385  0.00  0.00    -0.343 N 
ATOM     31  N   UNL     1      36.483 -18.259 -22.785  0.00  0.00    -0.285 NA
ATOM     32  C   UNL     1      35.178 -18.106 -22.645  0.00  0.00    +0.117 C 
ATOM     33  H   UNL     1      34.815 -20.116 -22.311  0.00  0.00    +0.144 HD
ATOM     34  H   UNL     1      33.421 -19.134 -22.275  0.00  0.00    +0.144 HD
ATOM     35  H   UNL     1      36.884 -19.155 -22.707  0.00  0.00    +0.188 HD
ENDBRANCH  28  32
ENDBRANCH   3  20
TORSDOF 4
ENDMDL
MODEL 7
REMARK VINA RESULT:     -10.9      1.869     10.015
REMARK  Name = 447736
REMARK  4 active torsions:
REMARK  status: ('A' for Active; 'I' for Inactive)
REMARK    1  A    between atoms: N_2  and  C_13
REMARK    2  A    between atoms: C_3  and  C_20
REMARK    3  A    between atoms: C_6  and  C_17
REMARK    4  A    between atoms: C_28  and  C_32
REMARK                            x       y       z     vdW  Elec       q    Type
REMARK                         _______ _______ _______ _____ _____    ______ ____
ROOT
ATOM      1  O   UNL     1      37.443 -19.901 -20.196  0.00  0.00    -0.270 OA
ATOM      2  N   UNL     1      35.301 -20.697 -19.643  0.00  0.00    -0.280 N 
ATOM      3  C   UNL     1      36.236 -19.974 -20.397  0.00  0.00    +0.249 C 
ATOM      4  H   UNL     1      34.367 -20.644 -19.947  0.00  0.00    +0.155 HD
ENDROOT
BRANCH   2  13
ATOM      5  N   UNL     1      33.865 -24.291 -14.808  0.00  0.00    +0.388 N 
ATOM      6  C   UNL     1      33.547 -23.762 -16.150  0.00  0.00    -0.039 C 
ATOM      7  C   UNL     1      34.687 -22.971 -16.779  0.00  0.00    -0.045 C 
ATOM      8  C   UNL     1      35.996 -23.083 -16.267  0.00  0.00    -0.030 C 
ATOM      9  C   UNL     1      36.276 -23.933 -15.055  0.00  0.00    +0.003 C 
ATOM     10  C   UNL     1      35.169 -24.953 -14.803  0.00  0.00    -0.076 C 
ATOM     11  C   UNL     1      34.479 -22.182 -17.923  0.00  0.00    +0.008 C 
ATOM     12  C   UNL     1      37.045 -22.365 -16.859  0.00  0.00    -0.003 C 
ATOM     13  C   UNL     1      35.533 -21.481 -18.512  0.00  0.00    +0.050 C 
ATOM     14  C   UNL     1      36.814 -21.567 -17.977  0.00  0.00    +0.014 C 
ATOM     15  H   UNL     1      33.149 -24.965 -14.537  0.00  0.00    -0.084 HD
ATOM     16  H   UNL     1      33.893 -23.513 -14.149  0.00  0.00    -0.084 HD
BRANCH   6  17
ATOM     17  C   UNL     1      32.254 -22.950 -16.005  0.00  0.00    -0.015 C 
ATOM     18  C   UNL     1      31.101 -23.659 -16.707  0.00  0.00    -0.002 C 
ATOM     19  C   UNL     1      31.933 -22.722 -14.532  0.00  0.00    -0.002 C 
ENDBRANCH   6  17
ENDBRANCH   2  13
BRANCH   3  20
ATOM     20  C   UNL     1      35.674 -19.206 -21.538  0.00  0.00    +0.054 C 
ATOM     21  C   UNL     1      34.974 -17.102 -22.471  0.00  0.00    +0.000 C 
ATOM     22  C   UNL     1      35.505 -17.843 -21.402  0.00  0.00    +0.005 C 
ATOM     23  C   UNL     1      34.621 -17.769 -23.668  0.00  0.00    +0.000 C 
ATOM     24  C   UNL     1      35.339 -19.877 -22.690  0.00  0.00    +0.005 C 
ATOM     25  C   UNL     1      34.809 -19.158 -23.762  0.00  0.00    +0.000 C 
ATOM     26  C   UNL     1      34.090 -17.028 -24.736  0.00  0.00    +0.003 C 
ATOM     27  C   UNL     1      34.786 -15.714 -22.377  0.00  0.00    +0.000 C 
ATOM     28  C   UNL     1      33.910 -15.649 -24.626  0.00  0.00    +0.031 C 
ATOM     29  C   UNL     1      34.257 -14.993 -23.448  0.00  0.00    +0.003 C 
BRANCH  28  32
ATOM     30  N   UNL     1      33.191 -13.514 -25.671  0.00  0.00    -0.343 N 
ATOM     31  N   UNL     1      33.001 -15.525 -26.847  0.00  0.00    -0.285 NA
ATOM     32  C   UNL     1      33.358 -14.896 -25.741  0.00  0.00    +0.117 C 
ATOM     33  H   UNL     1      32.816 -13.024 -26.438  0.00  0.00    +0.144 HD
ATOM     34  H   UNL     1      33.449 -13.029 -24.854  0.00  0.00    +0.144 HD
ATOM     35  H   UNL     1      32.628 -15.016 -27.603  0.00  0.00    +0.188 HD
ENDBRANCH  28  32
ENDBRANCH   3  20
TORSDOF 4
ENDMDL
MODEL 8
REMARK VINA RESULT:     -10.8      6.145     10.688
REMARK  Name = 447736
REMARK  4 active torsions:
REMARK  status: ('A' for Active; 'I' for Inactive)
REMARK    1  A    between atoms: N_2  and  C_13
REMARK    2  A    between atoms: C_3  and  C_20
REMARK    3  A    between atoms: C_6  and  C_17
REMARK    4  A    between atoms: C_28  and  C_32
REMARK                            x       y       z     vdW  Elec       q    Type
REMARK                         _______ _______ _______ _____ _____    ______ ____
ROOT
ATOM      1  O   UNL     1      30.798 -11.175 -22.168  0.00  0.00    -0.270 OA
ATOM      2  N   UNL     1      32.795 -10.089 -22.766  0.00  0.00    -0.280 N 
ATOM      3  C   UNL     1      31.971 -11.196 -22.522  0.00  0.00    +0.249 C 
ATOM      4  H   UNL     1      33.718 -10.290 -23.044  0.00  0.00    +0.155 HD
ENDROOT
BRANCH   2  13
ATOM      5  N   UNL     1      32.013  -4.250 -24.678  0.00  0.00    +0.388 N 
ATOM      6  C   UNL     1      32.069  -5.697 -24.970  0.00  0.00    -0.039 C 
ATOM      7  C   UNL     1      32.127  -6.569 -23.722  0.00  0.00    -0.045 C 
ATOM      8  C   UNL     1      31.781  -6.033 -22.465  0.00  0.00    -0.030 C 
ATOM      9  C   UNL     1      31.412  -4.578 -22.325  0.00  0.00    +0.003 C 
ATOM     10  C   UNL     1      31.004  -3.962 -23.660  0.00  0.00    -0.076 C 
ATOM     11  C   UNL     1      32.444  -7.935 -23.805  0.00  0.00    +0.008 C 
ATOM     12  C   UNL     1      31.821  -6.843 -21.321  0.00  0.00    -0.003 C 
ATOM     13  C   UNL     1      32.469  -8.736 -22.661  0.00  0.00    +0.050 C 
ATOM     14  C   UNL     1      32.163  -8.190 -21.419  0.00  0.00    +0.014 C 
ATOM     15  H   UNL     1      31.777  -3.747 -25.533  0.00  0.00    -0.084 HD
ATOM     16  H   UNL     1      32.923  -3.953 -24.326  0.00  0.00    -0.084 HD
BRANCH   6  17
ATOM     17  C   UNL     1      33.261  -5.907 -25.912  0.00  0.00    -0.015 C 
ATOM     18  C   UNL     1      33.463  -4.680 -26.794  0.00  0.00    -0.002 C 
ATOM     19  C   UNL     1      34.522  -6.213 -25.112  0.00  0.00    -0.002 C 
ENDBRANCH   6  17
ENDBRANCH   2  13
BRANCH   3  20
ATOM     20  C   UNL     1      32.621 -12.522 -22.693  0.00  0.00    +0.054 C 
ATOM     21  C   UNL     1      33.152 -14.695 -21.809  0.00  0.00    +0.000 C 
ATOM     22  C   UNL     1      32.542 -13.437 -21.664  0.00  0.00    +0.005 C 
ATOM     23  C   UNL     1      33.838 -14.998 -23.011  0.00  0.00    +0.000 C 
ATOM     24  C   UNL     1      33.281 -12.791 -23.869  0.00  0.00    +0.005 C 
ATOM     25  C   UNL     1      33.893 -14.034 -24.031  0.00  0.00    +0.000 C 
ATOM     26  C   UNL     1      34.447 -16.254 -23.155  0.00  0.00    +0.003 C 
ATOM     27  C   UNL     1      33.097 -15.658 -20.789  0.00  0.00    +0.000 C 
ATOM     28  C   UNL     1      34.382 -17.199 -22.131  0.00  0.00    +0.031 C 
ATOM     29  C   UNL     1      33.708 -16.901 -20.950  0.00  0.00    +0.003 C 
BRANCH  28  32
ATOM     30  N   UNL     1      34.895 -19.219 -23.481  0.00  0.00    -0.343 N 
ATOM     31  N   UNL     1      35.731 -19.010 -21.309  0.00  0.00    -0.285 NA
ATOM     32  C   UNL     1      35.019 -18.496 -22.296  0.00  0.00    +0.117 C 
ATOM     33  H   UNL     1      35.336 -20.095 -23.572  0.00  0.00    +0.144 HD
ATOM     34  H   UNL     1      34.368 -18.854 -24.228  0.00  0.00    +0.144 HD
ATOM     35  H   UNL     1      36.163 -19.887 -21.419  0.00  0.00    +0.188 HD
ENDBRANCH  28  32
ENDBRANCH   3  20
TORSDOF 4
ENDMDL
MODEL 9
REMARK VINA RESULT:     -10.6      2.202      3.849
REMARK  Name = 447736
REMARK  4 active torsions:
REMARK  status: ('A' for Active; 'I' for Inactive)
REMARK    1  A    between atoms: N_2  and  C_13
REMARK    2  A    between atoms: C_3  and  C_20
REMARK    3  A    between atoms: C_6  and  C_17
REMARK    4  A    between atoms: C_28  and  C_32
REMARK                            x       y       z     vdW  Elec       q    Type
REMARK                         _______ _______ _______ _____ _____    ______ ____
ROOT
ATOM      1  O   UNL     1      35.359 -19.019 -24.044  0.00  0.00    -0.270 OA
ATOM      2  N   UNL     1      34.539 -17.255 -22.724  0.00  0.00    -0.280 N 
ATOM      3  C   UNL     1      35.072 -18.530 -22.957  0.00  0.00    +0.249 C 
ATOM      4  H   UNL     1      34.368 -17.024 -21.782  0.00  0.00    +0.155 HD
ENDROOT
BRANCH   2  13
ATOM      5  N   UNL     1      33.156 -11.585 -24.794  0.00  0.00    +0.388 N 
ATOM      6  C   UNL     1      33.795 -12.462 -23.793  0.00  0.00    -0.039 C 
ATOM      7  C   UNL     1      33.832 -13.929 -24.201  0.00  0.00    -0.045 C 
ATOM      8  C   UNL     1      33.614 -14.297 -25.545  0.00  0.00    -0.030 C 
ATOM      9  C   UNL     1      33.279 -13.255 -26.582  0.00  0.00    +0.003 C 
ATOM     10  C   UNL     1      33.679 -11.852 -26.133  0.00  0.00    -0.076 C 
ATOM     11  C   UNL     1      34.160 -14.933 -23.276  0.00  0.00    +0.008 C 
ATOM     12  C   UNL     1      33.664 -15.647 -25.921  0.00  0.00    -0.003 C 
ATOM     13  C   UNL     1      34.219 -16.273 -23.663  0.00  0.00    +0.050 C 
ATOM     14  C   UNL     1      33.965 -16.631 -24.982  0.00  0.00    +0.014 C 
ATOM     15  H   UNL     1      33.342 -10.612 -24.552  0.00  0.00    -0.084 HD
ATOM     16  H   UNL     1      32.152 -11.768 -24.795  0.00  0.00    -0.084 HD
BRANCH   6  17
ATOM     17  C   UNL     1      33.061 -12.220 -22.467  0.00  0.00    -0.015 C 
ATOM     18  C   UNL     1      32.312 -10.893 -22.510  0.00  0.00    -0.002 C 
ATOM     19  C   UNL     1      32.107 -13.372 -22.172  0.00  0.00    -0.002 C 
ENDBRANCH   6  17
ENDBRANCH   2  13
BRANCH   3  20
ATOM     20  C   UNL     1      35.278 -19.365 -21.744  0.00  0.00    +0.054 C 
ATOM     21  C   UNL     1      34.378 -20.840 -20.071  0.00  0.00    +0.000 C 
ATOM     22  C   UNL     1      34.201 -20.047 -21.218  0.00  0.00    +0.005 C 
ATOM     23  C   UNL     1      35.660 -20.922 -19.477  0.00  0.00    +0.000 C 
ATOM     24  C   UNL     1      36.533 -19.427 -21.187  0.00  0.00    +0.005 C 
ATOM     25  C   UNL     1      36.728 -20.209 -20.048  0.00  0.00    +0.000 C 
ATOM     26  C   UNL     1      35.837 -21.714 -18.332  0.00  0.00    +0.003 C 
ATOM     27  C   UNL     1      33.311 -21.552 -19.501  0.00  0.00    +0.000 C 
ATOM     28  C   UNL     1      34.766 -22.415 -17.779  0.00  0.00    +0.031 C 
ATOM     29  C   UNL     1      33.504 -22.334 -18.363  0.00  0.00    +0.003 C 
BRANCH  28  32
ATOM     30  N   UNL     1      33.889 -23.809 -15.919  0.00  0.00    -0.343 N 
ATOM     31  N   UNL     1      36.186 -23.432 -16.129  0.00  0.00    -0.285 NA
ATOM     32  C   UNL     1      34.965 -23.231 -16.591  0.00  0.00    +0.117 C 
ATOM     33  H   UNL     1      34.047 -24.358 -15.118  0.00  0.00    +0.144 HD
ATOM     34  H   UNL     1      32.972 -23.668 -16.247  0.00  0.00    +0.144 HD
ATOM     35  H   UNL     1      36.323 -23.984 -15.325  0.00  0.00    +0.188 HD
ENDBRANCH  28  32
ENDBRANCH   3  20
TORSDOF 4
ENDMDL
