MODEL 1
REMARK VINA RESULT:      -8.2      0.000      0.000
REMARK  Name = 5794
REMARK  13 active torsions:
REMARK  status: ('A' for Active; 'I' for Inactive)
REMARK    1  A    between atoms: C_3  and  C_10
REMARK    2  A    between atoms: C_4  and  C_13
REMARK    3  A    between atoms: C_10  and  C_11
REMARK    4  A    between atoms: C_13  and  O_14
REMARK    5  A    between atoms: O_14  and  C_15
REMARK    6  A    between atoms: C_15  and  C_16
REMARK    7  A    between atoms: C_16  and  O_17
REMARK    8  A    between atoms: O_17  and  C_18
REMARK    9  A    between atoms: C_18  and  C_19
REMARK   10  A    between atoms: C_19  and  O_20
REMARK   11  A    between atoms: O_20  and  C_21
REMARK   12  A    between atoms: C_21  and  C_22
REMARK   13  A    between atoms: C_22  and  C_23
REMARK                            x       y       z     vdW  Elec       q    Type
REMARK                         _______ _______ _______ _____ _____    ______ ____
ROOT
ATOM      1  O   UNL     1      33.045 -13.608 -25.397  0.00  0.00    -0.435 OA
ATOM      2  O   UNL     1      33.553 -15.680 -26.518  0.00  0.00    -0.435 OA
ATOM      3  C   UNL     1      34.340 -15.442 -22.495  0.00  0.00    -0.021 C 
ATOM      4  C   UNL     1      34.637 -16.651 -23.149  0.00  0.00    +0.007 C 
ATOM      5  C   UNL     1      33.795 -14.368 -23.202  0.00  0.00    +0.036 C 
ATOM      6  C   UNL     1      33.565 -14.538 -24.551  0.00  0.00    +0.176 C 
ATOM      7  C   UNL     1      34.393 -16.799 -24.518  0.00  0.00    +0.038 C 
ATOM      8  C   UNL     1      33.855 -15.722 -25.191  0.00  0.00    +0.176 C 
ATOM      9  C   UNL     1      33.039 -14.338 -26.640  0.00  0.00    +0.429 C 
ENDROOT
BRANCH   3  10
ATOM     10  C   UNL     1      34.598 -15.286 -21.032  0.00  0.00    +0.026 C 
BRANCH  10  11
ATOM     11  C   UNL     1      33.309 -15.024 -20.242  0.00  0.00    +0.005 C 
ATOM     12  C   UNL     1      32.187 -15.958 -20.666  0.00  0.00    +0.000 C 
ENDBRANCH  10  11
ENDBRANCH   3  10
BRANCH   4  13
ATOM     13  C   UNL     1      35.218 -17.802 -22.395  0.00  0.00    +0.168 C 
BRANCH  13  14
ATOM     14  O   UNL     1      34.367 -18.931 -22.531  0.00  0.00    -0.346 OA
BRANCH  14  15
ATOM     15  C   UNL     1      34.336 -19.709 -21.341  0.00  0.00    +0.175 C 
BRANCH  15  16
ATOM     16  C   UNL     1      32.938 -19.660 -20.754  0.00  0.00    +0.174 C 
BRANCH  16  17
ATOM     17  O   UNL     1      32.803 -20.698 -19.791  0.00  0.00    -0.348 OA
BRANCH  17  18
ATOM     18  C   UNL     1      34.028 -21.392 -19.597  0.00  0.00    +0.174 C 
BRANCH  18  19
ATOM     19  C   UNL     1      33.780 -22.594 -18.708  0.00  0.00    +0.174 C 
BRANCH  19  20
ATOM     20  O   UNL     1      32.449 -22.539 -18.212  0.00  0.00    -0.351 OA
BRANCH  20  21
ATOM     21  C   UNL     1      32.350 -23.116 -16.918  0.00  0.00    +0.142 C 
BRANCH  21  22
ATOM     22  C   UNL     1      30.941 -22.896 -16.387  0.00  0.00    +0.032 C 
BRANCH  22  23
ATOM     23  C   UNL     1      30.666 -23.743 -15.148  0.00  0.00    +0.003 C 
ATOM     24  C   UNL     1      30.032 -25.075 -15.514  0.00  0.00    +0.000 C 
ENDBRANCH  22  23
ENDBRANCH  21  22
ENDBRANCH  20  21
ENDBRANCH  19  20
ENDBRANCH  18  19
ENDBRANCH  17  18
ENDBRANCH  16  17
ENDBRANCH  15  16
ENDBRANCH  14  15
ENDBRANCH  13  14
ENDBRANCH   4  13
TORSDOF 13
ENDMDL
MODEL 2
REMARK VINA RESULT:      -8.0      2.703     10.420
REMARK  Name = 5794
REMARK  13 active torsions:
REMARK  status: ('A' for Active; 'I' for Inactive)
REMARK    1  A    between atoms: C_3  and  C_10
REMARK    2  A    between atoms: C_4  and  C_13
REMARK    3  A    between atoms: C_10  and  C_11
REMARK    4  A    between atoms: C_13  and  O_14
REMARK    5  A    between atoms: O_14  and  C_15
REMARK    6  A    between atoms: C_15  and  C_16
REMARK    7  A    between atoms: C_16  and  O_17
REMARK    8  A    between atoms: O_17  and  C_18
REMARK    9  A    between atoms: C_18  and  C_19
REMARK   10  A    between atoms: C_19  and  O_20
REMARK   11  A    between atoms: O_20  and  C_21
REMARK   12  A    between atoms: C_21  and  C_22
REMARK   13  A    between atoms: C_22  and  C_23
REMARK                            x       y       z     vdW  Elec       q    Type
REMARK                         _______ _______ _______ _____ _____    ______ ____
ROOT
ATOM      1  O   UNL     1      34.021 -24.448 -12.438  0.00  0.00    -0.435 OA
ATOM      2  O   UNL     1      36.015 -24.251 -13.779  0.00  0.00    -0.435 OA
ATOM      3  C   UNL     1      32.414 -23.459 -15.584  0.00  0.00    -0.021 C 
ATOM      4  C   UNL     1      33.576 -23.344 -16.366  0.00  0.00    +0.007 C 
ATOM      5  C   UNL     1      32.495 -23.830 -14.240  0.00  0.00    +0.036 C 
ATOM      6  C   UNL     1      33.748 -24.077 -13.718  0.00  0.00    +0.176 C 
ATOM      7  C   UNL     1      34.834 -23.599 -15.813  0.00  0.00    +0.038 C 
ATOM      8  C   UNL     1      34.886 -23.964 -14.484  0.00  0.00    +0.176 C 
ATOM      9  C   UNL     1      35.459 -24.556 -12.483  0.00  0.00    +0.429 C 
ENDROOT
BRANCH   3  10
ATOM     10  C   UNL     1      31.069 -23.183 -16.174  0.00  0.00    +0.026 C 
BRANCH  10  11
ATOM     11  C   UNL     1      30.060 -22.709 -15.120  0.00  0.00    +0.005 C 
ATOM     12  C   UNL     1      28.662 -22.567 -15.699  0.00  0.00    +0.000 C 
ENDBRANCH  10  11
ENDBRANCH   3  10
BRANCH   4  13
ATOM     13  C   UNL     1      33.491 -22.946 -17.804  0.00  0.00    +0.168 C 
BRANCH  13  14
ATOM     14  O   UNL     1      34.799 -22.892 -18.355  0.00  0.00    -0.346 OA
BRANCH  14  15
ATOM     15  C   UNL     1      34.883 -21.943 -19.409  0.00  0.00    +0.175 C 
BRANCH  15  16
ATOM     16  C   UNL     1      33.492 -21.432 -19.728  0.00  0.00    +0.174 C 
BRANCH  16  17
ATOM     17  O   UNL     1      33.592 -20.129 -20.290  0.00  0.00    -0.348 OA
BRANCH  17  18
ATOM     18  C   UNL     1      34.916 -19.851 -20.727  0.00  0.00    +0.174 C 
BRANCH  18  19
ATOM     19  C   UNL     1      34.892 -18.642 -21.642  0.00  0.00    +0.174 C 
BRANCH  19  20
ATOM     20  O   UNL     1      35.287 -17.493 -20.903  0.00  0.00    -0.351 OA
BRANCH  20  21
ATOM     21  C   UNL     1      34.804 -16.299 -21.501  0.00  0.00    +0.142 C 
BRANCH  21  22
ATOM     22  C   UNL     1      34.422 -15.318 -20.401  0.00  0.00    +0.032 C 
BRANCH  22  23
ATOM     23  C   UNL     1      32.937 -14.972 -20.445  0.00  0.00    +0.003 C 
ATOM     24  C   UNL     1      32.538 -14.398 -21.795  0.00  0.00    +0.000 C 
ENDBRANCH  22  23
ENDBRANCH  21  22
ENDBRANCH  20  21
ENDBRANCH  19  20
ENDBRANCH  18  19
ENDBRANCH  17  18
ENDBRANCH  16  17
ENDBRANCH  15  16
ENDBRANCH  14  15
ENDBRANCH  13  14
ENDBRANCH   4  13
TORSDOF 13
ENDMDL
MODEL 3
REMARK VINA RESULT:      -7.8      2.837     10.660
REMARK  Name = 5794
REMARK  13 active torsions:
REMARK  status: ('A' for Active; 'I' for Inactive)
REMARK    1  A    between atoms: C_3  and  C_10
REMARK    2  A    between atoms: C_4  and  C_13
REMARK    3  A    between atoms: C_10  and  C_11
REMARK    4  A    between atoms: C_13  and  O_14
REMARK    5  A    between atoms: O_14  and  C_15
REMARK    6  A    between atoms: C_15  and  C_16
REMARK    7  A    between atoms: C_16  and  O_17
REMARK    8  A    between atoms: O_17  and  C_18
REMARK    9  A    between atoms: C_18  and  C_19
REMARK   10  A    between atoms: C_19  and  O_20
REMARK   11  A    between atoms: O_20  and  C_21
REMARK   12  A    between atoms: C_21  and  C_22
REMARK   13  A    between atoms: C_22  and  C_23
REMARK                            x       y       z     vdW  Elec       q    Type
REMARK                         _______ _______ _______ _____ _____    ______ ____
ROOT
ATOM      1  O   UNL     1      34.154 -24.376 -12.333  0.00  0.00    -0.435 OA
ATOM      2  O   UNL     1      36.152 -24.386 -13.681  0.00  0.00    -0.435 OA
ATOM      3  C   UNL     1      32.628 -23.322 -15.498  0.00  0.00    -0.021 C 
ATOM      4  C   UNL     1      33.793 -23.328 -16.285  0.00  0.00    +0.007 C 
ATOM      5  C   UNL     1      32.682 -23.668 -14.146  0.00  0.00    +0.036 C 
ATOM      6  C   UNL     1      33.910 -24.012 -13.621  0.00  0.00    +0.176 C 
ATOM      7  C   UNL     1      35.026 -23.680 -15.728  0.00  0.00    +0.038 C 
ATOM      8  C   UNL     1      35.051 -24.017 -14.390  0.00  0.00    +0.176 C 
ATOM      9  C   UNL     1      35.576 -24.611 -12.377  0.00  0.00    +0.429 C 
ENDROOT
BRANCH   3  10
ATOM     10  C   UNL     1      31.310 -22.943 -16.092  0.00  0.00    +0.026 C 
BRANCH  10  11
ATOM     11  C   UNL     1      30.137 -23.291 -15.168  0.00  0.00    +0.005 C 
ATOM     12  C   UNL     1      28.870 -22.545 -15.556  0.00  0.00    +0.000 C 
ENDBRANCH  10  11
ENDBRANCH   3  10
BRANCH   4  13
ATOM     13  C   UNL     1      33.737 -22.958 -17.731  0.00  0.00    +0.168 C 
BRANCH  13  14
ATOM     14  O   UNL     1      34.987 -22.407 -18.123  0.00  0.00    -0.346 OA
BRANCH  14  15
ATOM     15  C   UNL     1      35.054 -22.214 -19.530  0.00  0.00    +0.175 C 
BRANCH  15  16
ATOM     16  C   UNL     1      36.255 -21.348 -19.854  0.00  0.00    +0.174 C 
BRANCH  16  17
ATOM     17  O   UNL     1      35.810 -20.030 -20.153  0.00  0.00    -0.348 OA
BRANCH  17  18
ATOM     18  C   UNL     1      34.462 -20.025 -20.604  0.00  0.00    +0.174 C 
BRANCH  18  19
ATOM     19  C   UNL     1      34.277 -18.895 -21.598  0.00  0.00    +0.174 C 
BRANCH  19  20
ATOM     20  O   UNL     1      34.446 -19.403 -22.915  0.00  0.00    -0.351 OA
BRANCH  20  21
ATOM     21  C   UNL     1      35.293 -18.567 -23.691  0.00  0.00    +0.142 C 
BRANCH  21  22
ATOM     22  C   UNL     1      34.534 -18.110 -24.929  0.00  0.00    +0.032 C 
BRANCH  22  23
ATOM     23  C   UNL     1      34.461 -16.589 -25.016  0.00  0.00    +0.003 C 
ATOM     24  C   UNL     1      34.965 -15.933 -23.741  0.00  0.00    +0.000 C 
ENDBRANCH  22  23
ENDBRANCH  21  22
ENDBRANCH  20  21
ENDBRANCH  19  20
ENDBRANCH  18  19
ENDBRANCH  17  18
ENDBRANCH  16  17
ENDBRANCH  15  16
ENDBRANCH  14  15
ENDBRANCH  13  14
ENDBRANCH   4  13
TORSDOF 13
ENDMDL
MODEL 4
REMARK VINA RESULT:      -7.8      3.048      5.937
REMARK  Name = 5794
REMARK  13 active torsions:
REMARK  status: ('A' for Active; 'I' for Inactive)
REMARK    1  A    between atoms: C_3  and  C_10
REMARK    2  A    between atoms: C_4  and  C_13
REMARK    3  A    between atoms: C_10  and  C_11
REMARK    4  A    between atoms: C_13  and  O_14
REMARK    5  A    between atoms: O_14  and  C_15
REMARK    6  A    between atoms: C_15  and  C_16
REMARK    7  A    between atoms: C_16  and  O_17
REMARK    8  A    between atoms: O_17  and  C_18
REMARK    9  A    between atoms: C_18  and  C_19
REMARK   10  A    between atoms: C_19  and  O_20
REMARK   11  A    between atoms: O_20  and  C_21
REMARK   12  A    between atoms: C_21  and  C_22
REMARK   13  A    between atoms: C_22  and  C_23
REMARK                            x       y       z     vdW  Elec       q    Type
REMARK                         _______ _______ _______ _____ _____    ______ ____
ROOT
ATOM      1  O   UNL     1      31.504  -9.290 -21.512  0.00  0.00    -0.435 OA
ATOM      2  O   UNL     1      32.800  -8.699 -23.457  0.00  0.00    -0.435 OA
ATOM      3  C   UNL     1      32.496 -12.681 -22.501  0.00  0.00    -0.021 C 
ATOM      4  C   UNL     1      33.252 -12.337 -23.635  0.00  0.00    +0.007 C 
ATOM      5  C   UNL     1      31.874 -11.692 -21.735  0.00  0.00    +0.036 C 
ATOM      6  C   UNL     1      32.032 -10.380 -22.132  0.00  0.00    +0.176 C 
ATOM      7  C   UNL     1      33.395 -10.999 -24.017  0.00  0.00    +0.038 C 
ATOM      8  C   UNL     1      32.771 -10.043 -23.242  0.00  0.00    +0.176 C 
ATOM      9  C   UNL     1      31.994  -8.229 -22.357  0.00  0.00    +0.429 C 
ENDROOT
BRANCH   3  10
ATOM     10  C   UNL     1      32.340 -14.110 -22.096  0.00  0.00    +0.026 C 
BRANCH  10  11
ATOM     11  C   UNL     1      32.867 -14.371 -20.679  0.00  0.00    +0.005 C 
ATOM     12  C   UNL     1      34.273 -14.949 -20.695  0.00  0.00    +0.000 C 
ENDBRANCH  10  11
ENDBRANCH   3  10
BRANCH   4  13
ATOM     13  C   UNL     1      33.917 -13.393 -24.457  0.00  0.00    +0.168 C 
BRANCH  13  14
ATOM     14  O   UNL     1      33.245 -13.512 -25.703  0.00  0.00    -0.346 OA
BRANCH  14  15
ATOM     15  C   UNL     1      32.975 -14.870 -26.023  0.00  0.00    +0.175 C 
BRANCH  15  16
ATOM     16  C   UNL     1      33.804 -15.765 -25.123  0.00  0.00    +0.174 C 
BRANCH  16  17
ATOM     17  O   UNL     1      33.745 -17.100 -25.613  0.00  0.00    -0.348 OA
BRANCH  17  18
ATOM     18  C   UNL     1      34.853 -17.868 -25.165  0.00  0.00    +0.174 C 
BRANCH  18  19
ATOM     19  C   UNL     1      34.545 -18.423 -23.787  0.00  0.00    +0.174 C 
BRANCH  19  20
ATOM     20  O   UNL     1      35.526 -17.957 -22.870  0.00  0.00    -0.351 OA
BRANCH  20  21
ATOM     21  C   UNL     1      35.240 -18.378 -21.543  0.00  0.00    +0.142 C 
BRANCH  21  22
ATOM     22  C   UNL     1      34.504 -19.710 -21.599  0.00  0.00    +0.032 C 
BRANCH  22  23
ATOM     23  C   UNL     1      33.255 -19.701 -20.722  0.00  0.00    +0.003 C 
ATOM     24  C   UNL     1      33.198 -20.925 -19.822  0.00  0.00    +0.000 C 
ENDBRANCH  22  23
ENDBRANCH  21  22
ENDBRANCH  20  21
ENDBRANCH  19  20
ENDBRANCH  18  19
ENDBRANCH  17  18
ENDBRANCH  16  17
ENDBRANCH  15  16
ENDBRANCH  14  15
ENDBRANCH  13  14
ENDBRANCH   4  13
TORSDOF 13
ENDMDL
MODEL 5
REMARK VINA RESULT:      -7.7      1.642      2.978
REMARK  Name = 5794
REMARK  13 active torsions:
REMARK  status: ('A' for Active; 'I' for Inactive)
REMARK    1  A    between atoms: C_3  and  C_10
REMARK    2  A    between atoms: C_4  and  C_13
REMARK    3  A    between atoms: C_10  and  C_11
REMARK    4  A    between atoms: C_13  and  O_14
REMARK    5  A    between atoms: O_14  and  C_15
REMARK    6  A    between atoms: C_15  and  C_16
REMARK    7  A    between atoms: C_16  and  O_17
REMARK    8  A    between atoms: O_17  and  C_18
REMARK    9  A    between atoms: C_18  and  C_19
REMARK   10  A    between atoms: C_19  and  O_20
REMARK   11  A    between atoms: O_20  and  C_21
REMARK   12  A    between atoms: C_21  and  C_22
REMARK   13  A    between atoms: C_22  and  C_23
REMARK                            x       y       z     vdW  Elec       q    Type
REMARK                         _______ _______ _______ _____ _____    ______ ____
ROOT
ATOM      1  O   UNL     1      32.300 -13.251 -22.763  0.00  0.00    -0.435 OA
ATOM      2  O   UNL     1      32.667 -13.927 -20.478  0.00  0.00    -0.435 OA
ATOM      3  C   UNL     1      34.464 -16.136 -23.434  0.00  0.00    -0.021 C 
ATOM      4  C   UNL     1      34.678 -16.531 -22.102  0.00  0.00    +0.007 C 
ATOM      5  C   UNL     1      33.666 -15.029 -23.728  0.00  0.00    +0.036 C 
ATOM      6  C   UNL     1      33.102 -14.346 -22.670  0.00  0.00    +0.176 C 
ATOM      7  C   UNL     1      34.096 -15.821 -21.047  0.00  0.00    +0.038 C 
ATOM      8  C   UNL     1      33.312 -14.732 -21.366  0.00  0.00    +0.176 C 
ATOM      9  C   UNL     1      32.028 -12.990 -21.371  0.00  0.00    +0.429 C 
ENDROOT
BRANCH   3  10
ATOM     10  C   UNL     1      35.090 -16.893 -24.561  0.00  0.00    +0.026 C 
BRANCH  10  11
ATOM     11  C   UNL     1      34.127 -17.917 -25.175  0.00  0.00    +0.005 C 
ATOM     12  C   UNL     1      34.470 -19.338 -24.757  0.00  0.00    +0.000 C 
ENDBRANCH  10  11
ENDBRANCH   3  10
BRANCH   4  13
ATOM     13  C   UNL     1      35.533 -17.715 -21.785  0.00  0.00    +0.168 C 
BRANCH  13  14
ATOM     14  O   UNL     1      34.982 -18.408 -20.674  0.00  0.00    -0.346 OA
BRANCH  14  15
ATOM     15  C   UNL     1      34.605 -19.734 -21.020  0.00  0.00    +0.175 C 
BRANCH  15  16
ATOM     16  C   UNL     1      33.155 -19.953 -20.634  0.00  0.00    +0.174 C 
BRANCH  16  17
ATOM     17  O   UNL     1      33.084 -20.997 -19.670  0.00  0.00    -0.348 OA
BRANCH  17  18
ATOM     18  C   UNL     1      34.267 -21.786 -19.668  0.00  0.00    +0.174 C 
BRANCH  18  19
ATOM     19  C   UNL     1      34.492 -22.337 -18.273  0.00  0.00    +0.174 C 
BRANCH  19  20
ATOM     20  O   UNL     1      33.659 -23.473 -18.084  0.00  0.00    -0.351 OA
BRANCH  20  21
ATOM     21  C   UNL     1      33.171 -23.544 -16.752  0.00  0.00    +0.142 C 
BRANCH  21  22
ATOM     22  C   UNL     1      31.767 -22.957 -16.711  0.00  0.00    +0.032 C 
BRANCH  22  23
ATOM     23  C   UNL     1      30.923 -23.588 -15.607  0.00  0.00    +0.003 C 
ATOM     24  C   UNL     1      29.750 -22.700 -15.226  0.00  0.00    +0.000 C 
ENDBRANCH  22  23
ENDBRANCH  21  22
ENDBRANCH  20  21
ENDBRANCH  19  20
ENDBRANCH  18  19
ENDBRANCH  17  18
ENDBRANCH  16  17
ENDBRANCH  15  16
ENDBRANCH  14  15
ENDBRANCH  13  14
ENDBRANCH   4  13
TORSDOF 13
ENDMDL
MODEL 6
REMARK VINA RESULT:      -7.7      4.673     10.028
REMARK  Name = 5794
REMARK  13 active torsions:
REMARK  status: ('A' for Active; 'I' for Inactive)
REMARK    1  A    between atoms: C_3  and  C_10
REMARK    2  A    between atoms: C_4  and  C_13
REMARK    3  A    between atoms: C_10  and  C_11
REMARK    4  A    between atoms: C_13  and  O_14
REMARK    5  A    between atoms: O_14  and  C_15
REMARK    6  A    between atoms: C_15  and  C_16
REMARK    7  A    between atoms: C_16  and  O_17
REMARK    8  A    between atoms: O_17  and  C_18
REMARK    9  A    between atoms: C_18  and  C_19
REMARK   10  A    between atoms: C_19  and  O_20
REMARK   11  A    between atoms: O_20  and  C_21
REMARK   12  A    between atoms: C_21  and  C_22
REMARK   13  A    between atoms: C_22  and  C_23
REMARK                            x       y       z     vdW  Elec       q    Type
REMARK                         _______ _______ _______ _____ _____    ______ ____
ROOT
ATOM      1  O   UNL     1      35.766 -17.773 -23.106  0.00  0.00    -0.435 OA
ATOM      2  O   UNL     1      34.878 -17.578 -20.874  0.00  0.00    -0.435 OA
ATOM      3  C   UNL     1      33.730 -14.768 -23.638  0.00  0.00    -0.021 C 
ATOM      4  C   UNL     1      33.212 -14.654 -22.336  0.00  0.00    +0.007 C 
ATOM      5  C   UNL     1      34.604 -15.807 -23.966  0.00  0.00    +0.036 C 
ATOM      6  C   UNL     1      34.934 -16.705 -22.973  0.00  0.00    +0.176 C 
ATOM      7  C   UNL     1      33.562 -15.578 -21.347  0.00  0.00    +0.038 C 
ATOM      8  C   UNL     1      34.426 -16.594 -21.699  0.00  0.00    +0.176 C 
ATOM      9  C   UNL     1      35.725 -18.322 -21.773  0.00  0.00    +0.429 C 
ENDROOT
BRANCH   3  10
ATOM     10  C   UNL     1      33.354 -13.782 -24.696  0.00  0.00    +0.026 C 
BRANCH  10  11
ATOM     11  C   UNL     1      33.106 -14.454 -26.052  0.00  0.00    +0.005 C 
ATOM     12  C   UNL     1      33.080 -13.445 -27.188  0.00  0.00    +0.000 C 
ENDBRANCH  10  11
ENDBRANCH   3  10
BRANCH   4  13
ATOM     13  C   UNL     1      32.277 -13.543 -21.983  0.00  0.00    +0.168 C 
BRANCH  13  14
ATOM     14  O   UNL     1      32.326 -13.315 -20.582  0.00  0.00    -0.346 OA
BRANCH  14  15
ATOM     15  C   UNL     1      31.883 -12.006 -20.249  0.00  0.00    +0.175 C 
BRANCH  15  16
ATOM     16  C   UNL     1      31.045 -11.462 -21.390  0.00  0.00    +0.174 C 
BRANCH  16  17
ATOM     17  O   UNL     1      31.495 -10.152 -21.713  0.00  0.00    -0.348 OA
BRANCH  17  18
ATOM     18  C   UNL     1      31.976  -9.468 -20.564  0.00  0.00    +0.174 C 
BRANCH  18  19
ATOM     19  C   UNL     1      32.619  -8.164 -20.996  0.00  0.00    +0.174 C 
BRANCH  19  20
ATOM     20  O   UNL     1      31.821  -7.568 -22.011  0.00  0.00    -0.351 OA
BRANCH  20  21
ATOM     21  C   UNL     1      32.583  -7.294 -23.178  0.00  0.00    +0.142 C 
BRANCH  21  22
ATOM     22  C   UNL     1      34.046  -7.604 -22.894  0.00  0.00    +0.032 C 
BRANCH  22  23
ATOM     23  C   UNL     1      34.695  -8.364 -24.047  0.00  0.00    +0.003 C 
ATOM     24  C   UNL     1      34.370  -9.848 -23.989  0.00  0.00    +0.000 C 
ENDBRANCH  22  23
ENDBRANCH  21  22
ENDBRANCH  20  21
ENDBRANCH  19  20
ENDBRANCH  18  19
ENDBRANCH  17  18
ENDBRANCH  16  17
ENDBRANCH  15  16
ENDBRANCH  14  15
ENDBRANCH  13  14
ENDBRANCH   4  13
TORSDOF 13
ENDMDL
MODEL 7
REMARK VINA RESULT:      -7.6      6.607     10.109
REMARK  Name = 5794
REMARK  13 active torsions:
REMARK  status: ('A' for Active; 'I' for Inactive)
REMARK    1  A    between atoms: C_3  and  C_10
REMARK    2  A    between atoms: C_4  and  C_13
REMARK    3  A    between atoms: C_10  and  C_11
REMARK    4  A    between atoms: C_13  and  O_14
REMARK    5  A    between atoms: O_14  and  C_15
REMARK    6  A    between atoms: C_15  and  C_16
REMARK    7  A    between atoms: C_16  and  O_17
REMARK    8  A    between atoms: O_17  and  C_18
REMARK    9  A    between atoms: C_18  and  C_19
REMARK   10  A    between atoms: C_19  and  O_20
REMARK   11  A    between atoms: O_20  and  C_21
REMARK   12  A    between atoms: C_21  and  C_22
REMARK   13  A    between atoms: C_22  and  C_23
REMARK                            x       y       z     vdW  Elec       q    Type
REMARK                         _______ _______ _______ _____ _____    ______ ____
ROOT
ATOM      1  O   UNL     1      32.632 -22.368 -18.753  0.00  0.00    -0.435 OA
ATOM      2  O   UNL     1      34.843 -23.042 -18.069  0.00  0.00    -0.435 OA
ATOM      3  C   UNL     1      31.832 -23.263 -15.287  0.00  0.00    -0.021 C 
ATOM      4  C   UNL     1      33.121 -23.656 -14.887  0.00  0.00    +0.007 C 
ATOM      5  C   UNL     1      31.597 -22.816 -16.589  0.00  0.00    +0.036 C 
ATOM      6  C   UNL     1      32.669 -22.775 -17.456  0.00  0.00    +0.176 C 
ATOM      7  C   UNL     1      34.191 -23.606 -15.785  0.00  0.00    +0.038 C 
ATOM      8  C   UNL     1      33.931 -23.160 -17.065  0.00  0.00    +0.176 C 
ATOM      9  C   UNL     1      34.012 -22.541 -19.136  0.00  0.00    +0.429 C 
ENDROOT
BRANCH   3  10
ATOM     10  C   UNL     1      30.687 -23.320 -14.328  0.00  0.00    +0.026 C 
BRANCH  10  11
ATOM     11  C   UNL     1      29.450 -23.988 -14.942  0.00  0.00    +0.005 C 
ATOM     12  C   UNL     1      29.534 -25.504 -14.873  0.00  0.00    +0.000 C 
ENDBRANCH  10  11
ENDBRANCH   3  10
BRANCH   4  13
ATOM     13  C   UNL     1      33.374 -24.136 -13.495  0.00  0.00    +0.168 C 
BRANCH  13  14
ATOM     14  O   UNL     1      34.771 -24.309 -13.304  0.00  0.00    -0.346 OA
BRANCH  14  15
ATOM     15  C   UNL     1      35.196 -23.784 -12.053  0.00  0.00    +0.175 C 
BRANCH  15  16
ATOM     16  C   UNL     1      36.490 -24.462 -11.646  0.00  0.00    +0.174 C 
BRANCH  16  17
ATOM     17  O   UNL     1      36.427 -25.836 -12.007  0.00  0.00    -0.348 OA
BRANCH  17  18
ATOM     18  C   UNL     1      37.351 -26.145 -13.041  0.00  0.00    +0.174 C 
BRANCH  18  19
ATOM     19  C   UNL     1      38.680 -25.482 -12.733  0.00  0.00    +0.174 C 
BRANCH  19  20
ATOM     20  O   UNL     1      39.004 -24.581 -13.783  0.00  0.00    -0.351 OA
BRANCH  20  21
ATOM     21  C   UNL     1      38.035 -24.622 -14.821  0.00  0.00    +0.142 C 
BRANCH  21  22
ATOM     22  C   UNL     1      37.491 -23.217 -15.042  0.00  0.00    +0.032 C 
BRANCH  22  23
ATOM     23  C   UNL     1      37.908 -22.658 -16.399  0.00  0.00    +0.003 C 
ATOM     24  C   UNL     1      37.284 -21.296 -16.656  0.00  0.00    +0.000 C 
ENDBRANCH  22  23
ENDBRANCH  21  22
ENDBRANCH  20  21
ENDBRANCH  19  20
ENDBRANCH  18  19
ENDBRANCH  17  18
ENDBRANCH  16  17
ENDBRANCH  15  16
ENDBRANCH  14  15
ENDBRANCH  13  14
ENDBRANCH   4  13
TORSDOF 13
ENDMDL
MODEL 8
REMARK VINA RESULT:      -7.6      3.311      6.241
REMARK  Name = 5794
REMARK  13 active torsions:
REMARK  status: ('A' for Active; 'I' for Inactive)
REMARK    1  A    between atoms: C_3  and  C_10
REMARK    2  A    between atoms: C_4  and  C_13
REMARK    3  A    between atoms: C_10  and  C_11
REMARK    4  A    between atoms: C_13  and  O_14
REMARK    5  A    between atoms: O_14  and  C_15
REMARK    6  A    between atoms: C_15  and  C_16
REMARK    7  A    between atoms: C_16  and  O_17
REMARK    8  A    between atoms: O_17  and  C_18
REMARK    9  A    between atoms: C_18  and  C_19
REMARK   10  A    between atoms: C_19  and  O_20
REMARK   11  A    between atoms: O_20  and  C_21
REMARK   12  A    between atoms: C_21  and  C_22
REMARK   13  A    between atoms: C_22  and  C_23
REMARK                            x       y       z     vdW  Elec       q    Type
REMARK                         _______ _______ _______ _____ _____    ______ ____
ROOT
ATOM      1  O   UNL     1      31.652  -9.751 -21.304  0.00  0.00    -0.435 OA
ATOM      2  O   UNL     1      31.137 -11.946 -20.450  0.00  0.00    -0.435 OA
ATOM      3  C   UNL     1      33.294 -11.711 -23.935  0.00  0.00    -0.021 C 
ATOM      4  C   UNL     1      32.993 -12.991 -23.437  0.00  0.00    +0.007 C 
ATOM      5  C   UNL     1      32.868 -10.567 -23.257  0.00  0.00    +0.036 C 
ATOM      6  C   UNL     1      32.148 -10.742 -22.094  0.00  0.00    +0.176 C 
ATOM      7  C   UNL     1      32.263 -13.142 -22.255  0.00  0.00    +0.038 C 
ATOM      8  C   UNL     1      31.854 -11.995 -21.606  0.00  0.00    +0.176 C 
ATOM      9  C   UNL     1      31.013 -10.520 -20.265  0.00  0.00    +0.429 C 
ENDROOT
BRANCH   3  10
ATOM     10  C   UNL     1      34.077 -11.551 -25.197  0.00  0.00    +0.026 C 
BRANCH  10  11
ATOM     11  C   UNL     1      34.983 -10.313 -25.163  0.00  0.00    +0.005 C 
ATOM     12  C   UNL     1      35.883 -10.236 -26.385  0.00  0.00    +0.000 C 
ENDBRANCH  10  11
ENDBRANCH   3  10
BRANCH   4  13
ATOM     13  C   UNL     1      33.449 -14.217 -24.161  0.00  0.00    +0.168 C 
BRANCH  13  14
ATOM     14  O   UNL     1      32.615 -14.433 -25.290  0.00  0.00    -0.346 OA
BRANCH  14  15
ATOM     15  C   UNL     1      33.114 -15.475 -26.117  0.00  0.00    +0.175 C 
BRANCH  15  16
ATOM     16  C   UNL     1      34.219 -16.207 -25.379  0.00  0.00    +0.174 C 
BRANCH  16  17
ATOM     17  O   UNL     1      34.094 -17.603 -25.623  0.00  0.00    -0.348 OA
BRANCH  17  18
ATOM     18  C   UNL     1      34.595 -18.368 -24.535  0.00  0.00    +0.174 C 
BRANCH  18  19
ATOM     19  C   UNL     1      34.998 -17.429 -23.414  0.00  0.00    +0.174 C 
BRANCH  19  20
ATOM     20  O   UNL     1      34.501 -17.936 -22.182  0.00  0.00    -0.351 OA
BRANCH  20  21
ATOM     21  C   UNL     1      34.458 -19.357 -22.184  0.00  0.00    +0.142 C 
BRANCH  21  22
ATOM     22  C   UNL     1      33.474 -19.820 -21.119  0.00  0.00    +0.032 C 
BRANCH  22  23
ATOM     23  C   UNL     1      34.166 -20.621 -20.021  0.00  0.00    +0.003 C 
ATOM     24  C   UNL     1      35.637 -20.841 -20.335  0.00  0.00    +0.000 C 
ENDBRANCH  22  23
ENDBRANCH  21  22
ENDBRANCH  20  21
ENDBRANCH  19  20
ENDBRANCH  18  19
ENDBRANCH  17  18
ENDBRANCH  16  17
ENDBRANCH  15  16
ENDBRANCH  14  15
ENDBRANCH  13  14
ENDBRANCH   4  13
TORSDOF 13
ENDMDL
MODEL 9
REMARK VINA RESULT:      -7.5      4.902      7.873
REMARK  Name = 5794
REMARK  13 active torsions:
REMARK  status: ('A' for Active; 'I' for Inactive)
REMARK    1  A    between atoms: C_3  and  C_10
REMARK    2  A    between atoms: C_4  and  C_13
REMARK    3  A    between atoms: C_10  and  C_11
REMARK    4  A    between atoms: C_13  and  O_14
REMARK    5  A    between atoms: O_14  and  C_15
REMARK    6  A    between atoms: C_15  and  C_16
REMARK    7  A    between atoms: C_16  and  O_17
REMARK    8  A    between atoms: O_17  and  C_18
REMARK    9  A    between atoms: C_18  and  C_19
REMARK   10  A    between atoms: C_19  and  O_20
REMARK   11  A    between atoms: O_20  and  C_21
REMARK   12  A    between atoms: C_21  and  C_22
REMARK   13  A    between atoms: C_22  and  C_23
REMARK                            x       y       z     vdW  Elec       q    Type
REMARK                         _______ _______ _______ _____ _____    ______ ____
ROOT
ATOM      1  O   UNL     1      31.507  -9.703 -20.749  0.00  0.00    -0.435 OA
ATOM      2  O   UNL     1      31.196 -12.013 -21.362  0.00  0.00    -0.435 OA
ATOM      3  C   UNL     1      33.710  -9.744 -23.682  0.00  0.00    -0.021 C 
ATOM      4  C   UNL     1      33.529 -11.091 -24.040  0.00  0.00    +0.007 C 
ATOM      5  C   UNL     1      33.053  -9.209 -22.573  0.00  0.00    +0.036 C 
ATOM      6  C   UNL     1      32.226 -10.046 -21.852  0.00  0.00    +0.176 C 
ATOM      7  C   UNL     1      32.687 -11.920 -23.293  0.00  0.00    +0.038 C 
ATOM      8  C   UNL     1      32.049 -11.365 -22.202  0.00  0.00    +0.176 C 
ATOM      9  C   UNL     1      30.857 -10.954 -20.444  0.00  0.00    +0.429 C 
ENDROOT
BRANCH   3  10
ATOM     10  C   UNL     1      34.613  -8.860 -24.480  0.00  0.00    +0.026 C 
BRANCH  10  11
ATOM     11  C   UNL     1      34.586  -7.408 -23.985  0.00  0.00    +0.005 C 
ATOM     12  C   UNL     1      34.401  -6.424 -25.129  0.00  0.00    +0.000 C 
ENDBRANCH  10  11
ENDBRANCH   3  10
BRANCH   4  13
ATOM     13  C   UNL     1      34.233 -11.666 -25.227  0.00  0.00    +0.168 C 
BRANCH  13  14
ATOM     14  O   UNL     1      33.280 -11.975 -26.234  0.00  0.00    -0.346 OA
BRANCH  14  15
ATOM     15  C   UNL     1      33.615 -13.174 -26.920  0.00  0.00    +0.175 C 
BRANCH  15  16
ATOM     16  C   UNL     1      32.833 -14.324 -26.318  0.00  0.00    +0.174 C 
BRANCH  16  17
ATOM     17  O   UNL     1      33.623 -15.506 -26.381  0.00  0.00    -0.348 OA
BRANCH  17  18
ATOM     18  C   UNL     1      34.234 -15.792 -25.130  0.00  0.00    +0.174 C 
BRANCH  18  19
ATOM     19  C   UNL     1      34.366 -17.295 -24.976  0.00  0.00    +0.174 C 
BRANCH  19  20
ATOM     20  O   UNL     1      34.565 -17.605 -23.603  0.00  0.00    -0.351 OA
BRANCH  20  21
ATOM     21  C   UNL     1      35.034 -16.477 -22.877  0.00  0.00    +0.142 C 
BRANCH  21  22
ATOM     22  C   UNL     1      34.655 -16.643 -21.412  0.00  0.00    +0.032 C 
BRANCH  22  23
ATOM     23  C   UNL     1      34.466 -15.295 -20.722  0.00  0.00    +0.003 C 
ATOM     24  C   UNL     1      32.996 -14.919 -20.629  0.00  0.00    +0.000 C 
ENDBRANCH  22  23
ENDBRANCH  21  22
ENDBRANCH  20  21
ENDBRANCH  19  20
ENDBRANCH  18  19
ENDBRANCH  17  18
ENDBRANCH  16  17
ENDBRANCH  15  16
ENDBRANCH  14  15
ENDBRANCH  13  14
ENDBRANCH   4  13
TORSDOF 13
ENDMDL
