MODEL 1
REMARK VINA RESULT:     -10.9      0.000      0.000
REMARK  Name = 9543496
REMARK  7 active torsions:
REMARK  status: ('A' for Active; 'I' for Inactive)
REMARK    1  A    between atoms: C_2  and  N_18
REMARK    2  A    between atoms: C_3  and  C_7
REMARK    3  A    between atoms: C_5  and  C_15
REMARK    4  A    between atoms: C_9  and  C_12
REMARK    5  A    between atoms: C_15  and  O_16
REMARK    6  A    between atoms: N_18  and  S_20
REMARK    7  A    between atoms: S_20  and  C_23
REMARK                            x       y       z     vdW  Elec       q    Type
REMARK                         _______ _______ _______ _____ _____    ______ ____
ROOT
ATOM      1  S   UNL     1      33.116 -13.655 -24.449  0.00  0.00    -0.079 S 
ATOM      2  C   UNL     1      33.452 -15.721 -22.974  0.00  0.00    +0.078 C 
ATOM      3  C   UNL     1      32.771 -13.516 -22.778  0.00  0.00    +0.037 C 
ATOM      4  C   UNL     1      32.994 -14.697 -22.104  0.00  0.00    +0.024 C 
ATOM      5  C   UNL     1      33.564 -15.299 -24.275  0.00  0.00    +0.120 C 
ENDROOT
BRANCH   3   7
ATOM      6  S   UNL     1      32.674 -10.801 -22.998  0.00  0.00    -0.084 S 
ATOM      7  C   UNL     1      32.314 -12.289 -22.232  0.00  0.00    +0.036 C 
ATOM      8  C   UNL     1      31.564 -12.114 -21.089  0.00  0.00    +0.008 C 
ATOM      9  C   UNL     1      31.828  -9.917 -21.801  0.00  0.00    +0.064 C 
ATOM     10  C   UNL     1      31.284 -10.740 -20.838  0.00  0.00    +0.010 C 
BRANCH   9  12
ATOM     11  O   UNL     1      31.287  -7.869 -22.878  0.00  0.00    -0.291 OA
ATOM     12  C   UNL     1      31.767  -8.495 -21.900  0.00  0.00    +0.179 C 
ATOM     13  C   UNL     1      32.312  -7.625 -20.762  0.00  0.00    +0.078 C 
ENDBRANCH   9  12
ENDBRANCH   3   7
BRANCH   5  15
ATOM     14  O   UNL     1      34.644 -17.076 -25.466  0.00  0.00    -0.244 OA
ATOM     15  C   UNL     1      33.985 -16.021 -25.433  0.00  0.00    +0.345 C 
BRANCH  15  16
ATOM     16  O   UNL     1      33.586 -15.433 -26.606  0.00  0.00    -0.477 OA
ATOM     17  H   UNL     1      33.035 -15.903 -27.202  0.00  0.00    +0.295 HD
ENDBRANCH  15  16
ENDBRANCH   5  15
BRANCH   2  18
ATOM     18  N   UNL     1      33.749 -17.027 -22.516  0.00  0.00    -0.214 N 
ATOM     19  H   UNL     1      33.076 -17.728 -22.672  0.00  0.00    +0.174 HD
BRANCH  18  20
ATOM     20  S   UNL     1      35.186 -17.480 -21.714  0.00  0.00    +0.073 S 
ATOM     21  O   UNL     1      35.473 -16.512 -20.664  0.00  0.00    -0.150 OA
ATOM     22  O   UNL     1      36.209 -17.795 -22.702  0.00  0.00    -0.150 OA
BRANCH  20  23
ATOM     23  C   UNL     1      34.692 -18.976 -20.951  0.00  0.00    +0.121 C 
ATOM     24  C   UNL     1      35.634 -19.888 -20.473  0.00  0.00    -0.003 C 
ATOM     25  C   UNL     1      33.330 -19.249 -20.826  0.00  0.00    +0.020 C 
ATOM     26  C   UNL     1      35.213 -21.073 -19.870  0.00  0.00    -0.007 C 
ATOM     27  C   UNL     1      33.850 -21.346 -19.744  0.00  0.00    -0.022 C 
ATOM     28  C   UNL     1      32.909 -20.434 -20.223  0.00  0.00    -0.003 C 
ATOM     29  C   UNL     1      37.099 -19.624 -20.590  0.00  0.00    +0.032 C 
ATOM     30  C   UNL     1      33.399 -22.613 -19.100  0.00  0.00    +0.031 C 
ENDBRANCH  20  23
ENDBRANCH  18  20
ENDBRANCH   2  18
TORSDOF 7
ENDMDL
MODEL 2
REMARK VINA RESULT:     -10.5      2.459      9.105
REMARK  Name = 9543496
REMARK  7 active torsions:
REMARK  status: ('A' for Active; 'I' for Inactive)
REMARK    1  A    between atoms: C_2  and  N_18
REMARK    2  A    between atoms: C_3  and  C_7
REMARK    3  A    between atoms: C_5  and  C_15
REMARK    4  A    between atoms: C_9  and  C_12
REMARK    5  A    between atoms: C_15  and  O_16
REMARK    6  A    between atoms: N_18  and  S_20
REMARK    7  A    between atoms: S_20  and  C_23
REMARK                            x       y       z     vdW  Elec       q    Type
REMARK                         _______ _______ _______ _____ _____    ______ ____
ROOT
ATOM      1  S   UNL     1      34.403 -17.684 -24.279  0.00  0.00    -0.079 S 
ATOM      2  C   UNL     1      34.389 -15.251 -23.481  0.00  0.00    +0.078 C 
ATOM      3  C   UNL     1      34.904 -17.361 -22.674  0.00  0.00    +0.037 C 
ATOM      4  C   UNL     1      34.849 -16.017 -22.377  0.00  0.00    +0.024 C 
ATOM      5  C   UNL     1      34.111 -16.023 -24.580  0.00  0.00    +0.120 C 
ENDROOT
BRANCH   3   7
ATOM      6  S   UNL     1      34.159 -19.449 -21.089  0.00  0.00    -0.084 S 
ATOM      7  C   UNL     1      35.313 -18.414 -21.816  0.00  0.00    +0.036 C 
ATOM      8  C   UNL     1      36.602 -18.746 -21.461  0.00  0.00    +0.008 C 
ATOM      9  C   UNL     1      35.383 -20.345 -20.295  0.00  0.00    +0.064 C 
ATOM     10  C   UNL     1      36.642 -19.864 -20.579  0.00  0.00    +0.010 C 
BRANCH   9  12
ATOM     11  O   UNL     1      35.816 -22.119 -18.773  0.00  0.00    -0.291 OA
ATOM     12  C   UNL     1      35.011 -21.441 -19.460  0.00  0.00    +0.179 C 
ATOM     13  C   UNL     1      33.541 -21.862 -19.361  0.00  0.00    +0.078 C 
ENDBRANCH   9  12
ENDBRANCH   3   7
BRANCH   5  15
ATOM     14  O   UNL     1      33.904 -14.589 -26.489  0.00  0.00    -0.244 OA
ATOM     15  C   UNL     1      33.634 -15.634 -25.869  0.00  0.00    +0.345 C 
BRANCH  15  16
ATOM     16  O   UNL     1      32.791 -16.559 -26.431  0.00  0.00    -0.477 OA
ATOM     17  H   UNL     1      32.229 -16.310 -27.139  0.00  0.00    +0.295 HD
ENDBRANCH  15  16
ENDBRANCH   5  15
BRANCH   2  18
ATOM     18  N   UNL     1      34.249 -13.844 -23.420  0.00  0.00    -0.214 N 
ATOM     19  H   UNL     1      35.050 -13.299 -23.589  0.00  0.00    +0.174 HD
BRANCH  18  20
ATOM     20  S   UNL     1      32.795 -13.019 -23.077  0.00  0.00    +0.073 S 
ATOM     21  O   UNL     1      32.491 -13.156 -21.658  0.00  0.00    -0.150 OA
ATOM     22  O   UNL     1      31.790 -13.384 -24.067  0.00  0.00    -0.150 OA
BRANCH  20  23
ATOM     23  C   UNL     1      33.267 -11.360 -23.372  0.00  0.00    +0.121 C 
ATOM     24  C   UNL     1      32.521 -10.296 -22.866  0.00  0.00    -0.003 C 
ATOM     25  C   UNL     1      34.411 -11.112 -24.130  0.00  0.00    +0.020 C 
ATOM     26  C   UNL     1      32.920  -8.983 -23.117  0.00  0.00    -0.007 C 
ATOM     27  C   UNL     1      34.065  -8.734 -23.874  0.00  0.00    -0.022 C 
ATOM     28  C   UNL     1      34.810  -9.799 -24.381  0.00  0.00    -0.003 C 
ATOM     29  C   UNL     1      31.292 -10.528 -22.051  0.00  0.00    +0.032 C 
ATOM     30  C   UNL     1      34.492  -7.331 -24.144  0.00  0.00    +0.031 C 
ENDBRANCH  20  23
ENDBRANCH  18  20
ENDBRANCH   2  18
TORSDOF 7
ENDMDL
MODEL 3
REMARK VINA RESULT:      -9.9      3.532     10.698
REMARK  Name = 9543496
REMARK  7 active torsions:
REMARK  status: ('A' for Active; 'I' for Inactive)
REMARK    1  A    between atoms: C_2  and  N_18
REMARK    2  A    between atoms: C_3  and  C_7
REMARK    3  A    between atoms: C_5  and  C_15
REMARK    4  A    between atoms: C_9  and  C_12
REMARK    5  A    between atoms: C_15  and  O_16
REMARK    6  A    between atoms: N_18  and  S_20
REMARK    7  A    between atoms: S_20  and  C_23
REMARK                            x       y       z     vdW  Elec       q    Type
REMARK                         _______ _______ _______ _____ _____    ______ ____
ROOT
ATOM      1  S   UNL     1      32.214 -12.817 -21.797  0.00  0.00    -0.079 S 
ATOM      2  C   UNL     1      32.590 -10.632 -23.077  0.00  0.00    +0.078 C 
ATOM      3  C   UNL     1      32.991 -12.900 -23.320  0.00  0.00    +0.037 C 
ATOM      4  C   UNL     1      33.129 -11.658 -23.899  0.00  0.00    +0.024 C 
ATOM      5  C   UNL     1      32.060 -11.115 -21.907  0.00  0.00    +0.120 C 
ENDROOT
BRANCH   3   7
ATOM      6  S   UNL     1      34.162 -15.316 -22.853  0.00  0.00    -0.084 S 
ATOM      7  C   UNL     1      33.412 -14.146 -23.852  0.00  0.00    +0.036 C 
ATOM      8  C   UNL     1      33.292 -14.579 -25.155  0.00  0.00    +0.008 C 
ATOM      9  C   UNL     1      34.331 -16.407 -24.162  0.00  0.00    +0.064 C 
ATOM     10  C   UNL     1      33.825 -15.888 -25.334  0.00  0.00    +0.010 C 
BRANCH   9  12
ATOM     11  O   UNL     1      35.833 -17.894 -23.077  0.00  0.00    -0.291 OA
ATOM     12  C   UNL     1      34.942 -17.676 -23.936  0.00  0.00    +0.179 C 
ATOM     13  C   UNL     1      34.520 -18.888 -24.772  0.00  0.00    +0.078 C 
ENDBRANCH   9  12
ENDBRANCH   3   7
BRANCH   5  15
ATOM     14  O   UNL     1      30.470 -10.793 -20.143  0.00  0.00    -0.244 OA
ATOM     15  C   UNL     1      31.433 -10.412 -20.834  0.00  0.00    +0.345 C 
BRANCH  15  16
ATOM     16  O   UNL     1      32.003  -9.189 -20.588  0.00  0.00    -0.477 OA
ATOM     17  H   UNL     1      32.883  -9.018 -20.865  0.00  0.00    +0.295 HD
ENDBRANCH  15  16
ENDBRANCH   5  15
BRANCH   2  18
ATOM     18  N   UNL     1      32.612  -9.268 -23.457  0.00  0.00    -0.214 N 
ATOM     19  H   UNL     1      31.805  -8.902 -23.883  0.00  0.00    +0.174 HD
BRANCH  18  20
ATOM     20  S   UNL     1      33.932  -8.210 -23.232  0.00  0.00    +0.073 S 
ATOM     21  O   UNL     1      35.138  -8.828 -23.768  0.00  0.00    -0.150 OA
ATOM     22  O   UNL     1      33.925  -7.718 -21.860  0.00  0.00    -0.150 OA
BRANCH  20  23
ATOM     23  C   UNL     1      33.488  -6.884 -24.284  0.00  0.00    +0.121 C 
ATOM     24  C   UNL     1      32.271  -6.220 -24.134  0.00  0.00    -0.003 C 
ATOM     25  C   UNL     1      34.377  -6.494 -25.285  0.00  0.00    +0.020 C 
ATOM     26  C   UNL     1      31.942  -5.166 -24.986  0.00  0.00    -0.007 C 
ATOM     27  C   UNL     1      32.831  -4.776 -25.988  0.00  0.00    -0.022 C 
ATOM     28  C   UNL     1      34.048  -5.440 -26.138  0.00  0.00    -0.003 C 
ATOM     29  C   UNL     1      31.298  -6.612 -23.071  0.00  0.00    +0.032 C 
ATOM     30  C   UNL     1      32.480  -3.649 -26.901  0.00  0.00    +0.031 C 
ENDBRANCH  20  23
ENDBRANCH  18  20
ENDBRANCH   2  18
TORSDOF 7
ENDMDL
MODEL 4
REMARK VINA RESULT:      -9.9      2.408      9.054
REMARK  Name = 9543496
REMARK  7 active torsions:
REMARK  status: ('A' for Active; 'I' for Inactive)
REMARK    1  A    between atoms: C_2  and  N_18
REMARK    2  A    between atoms: C_3  and  C_7
REMARK    3  A    between atoms: C_5  and  C_15
REMARK    4  A    between atoms: C_9  and  C_12
REMARK    5  A    between atoms: C_15  and  O_16
REMARK    6  A    between atoms: N_18  and  S_20
REMARK    7  A    between atoms: S_20  and  C_23
REMARK                            x       y       z     vdW  Elec       q    Type
REMARK                         _______ _______ _______ _____ _____    ______ ____
ROOT
ATOM      1  S   UNL     1      34.888 -18.601 -23.372  0.00  0.00    -0.079 S 
ATOM      2  C   UNL     1      34.586 -16.269 -22.360  0.00  0.00    +0.078 C 
ATOM      3  C   UNL     1      34.993 -18.442 -21.671  0.00  0.00    +0.037 C 
ATOM      4  C   UNL     1      34.813 -17.139 -21.261  0.00  0.00    +0.024 C 
ATOM      5  C   UNL     1      34.600 -16.924 -23.566  0.00  0.00    +0.120 C 
ENDROOT
BRANCH   3   7
ATOM      6  S   UNL     1      33.950 -20.557 -20.305  0.00  0.00    -0.084 S 
ATOM      7  C   UNL     1      35.240 -19.573 -20.850  0.00  0.00    +0.036 C 
ATOM      8  C   UNL     1      36.461 -20.024 -20.399  0.00  0.00    +0.008 C 
ATOM      9  C   UNL     1      35.023 -21.591 -19.461  0.00  0.00    +0.064 C 
ATOM     10  C   UNL     1      36.336 -21.192 -19.594  0.00  0.00    +0.010 C 
BRANCH   9  12
ATOM     11  O   UNL     1      33.900 -23.677 -19.268  0.00  0.00    -0.291 OA
ATOM     12  C   UNL     1      34.495 -22.703 -18.740  0.00  0.00    +0.179 C 
ATOM     13  C   UNL     1      34.634 -22.762 -17.215  0.00  0.00    +0.078 C 
ENDBRANCH   9  12
ENDBRANCH   3   7
BRANCH   5  15
ATOM     14  O   UNL     1      35.024 -16.741 -25.917  0.00  0.00    -0.244 OA
ATOM     15  C   UNL     1      34.415 -16.409 -24.884  0.00  0.00    +0.345 C 
BRANCH  15  16
ATOM     16  O   UNL     1      33.443 -15.444 -24.951  0.00  0.00    -0.477 OA
ATOM     17  H   UNL     1      33.673 -14.539 -24.862  0.00  0.00    +0.295 HD
ENDBRANCH  15  16
ENDBRANCH   5  15
BRANCH   2  18
ATOM     18  N   UNL     1      34.374 -14.879 -22.194  0.00  0.00    -0.214 N 
ATOM     19  H   UNL     1      35.116 -14.275 -22.424  0.00  0.00    +0.174 HD
BRANCH  18  20
ATOM     20  S   UNL     1      32.930 -14.170 -21.625  0.00  0.00    +0.073 S 
ATOM     21  O   UNL     1      33.034 -13.959 -20.188  0.00  0.00    -0.150 OA
ATOM     22  O   UNL     1      31.791 -14.902 -22.165  0.00  0.00    -0.150 OA
BRANCH  20  23
ATOM     23  C   UNL     1      32.987 -12.606 -22.409  0.00  0.00    +0.121 C 
ATOM     24  C   UNL     1      32.159 -11.562 -21.998  0.00  0.00    -0.003 C 
ATOM     25  C   UNL     1      33.880 -12.415 -23.463  0.00  0.00    +0.020 C 
ATOM     26  C   UNL     1      32.225 -10.325 -22.640  0.00  0.00    -0.007 C 
ATOM     27  C   UNL     1      33.120 -10.133 -23.694  0.00  0.00    -0.022 C 
ATOM     28  C   UNL     1      33.947 -11.178 -24.105  0.00  0.00    -0.003 C 
ATOM     29  C   UNL     1      31.193 -11.734 -20.873  0.00  0.00    +0.032 C 
ATOM     30  C   UNL     1      33.191  -8.812 -24.382  0.00  0.00    +0.031 C 
ENDBRANCH  20  23
ENDBRANCH  18  20
ENDBRANCH   2  18
TORSDOF 7
ENDMDL
MODEL 5
REMARK VINA RESULT:      -9.8      6.745     11.948
REMARK  Name = 9543496
REMARK  7 active torsions:
REMARK  status: ('A' for Active; 'I' for Inactive)
REMARK    1  A    between atoms: C_2  and  N_18
REMARK    2  A    between atoms: C_3  and  C_7
REMARK    3  A    between atoms: C_5  and  C_15
REMARK    4  A    between atoms: C_9  and  C_12
REMARK    5  A    between atoms: C_15  and  O_16
REMARK    6  A    between atoms: N_18  and  S_20
REMARK    7  A    between atoms: S_20  and  C_23
REMARK                            x       y       z     vdW  Elec       q    Type
REMARK                         _______ _______ _______ _____ _____    ______ ____
ROOT
ATOM      1  S   UNL     1      32.126 -23.577 -14.332  0.00  0.00    -0.079 S 
ATOM      2  C   UNL     1      32.803 -22.997 -16.732  0.00  0.00    +0.078 C 
ATOM      3  C   UNL     1      33.794 -23.555 -14.714  0.00  0.00    +0.037 C 
ATOM      4  C   UNL     1      34.017 -23.230 -16.034  0.00  0.00    +0.024 C 
ATOM      5  C   UNL     1      31.697 -23.151 -15.934  0.00  0.00    +0.120 C 
ENDROOT
BRANCH   3   7
ATOM      6  S   UNL     1      36.438 -23.772 -14.094  0.00  0.00    -0.084 S 
ATOM      7  C   UNL     1      34.769 -23.851 -13.726  0.00  0.00    +0.036 C 
ATOM      8  C   UNL     1      34.543 -24.217 -12.417  0.00  0.00    +0.008 C 
ATOM      9  C   UNL     1      36.866 -24.230 -12.500  0.00  0.00    +0.064 C 
ATOM     10  C   UNL     1      35.758 -24.438 -11.707  0.00  0.00    +0.010 C 
BRANCH   9  12
ATOM     11  O   UNL     1      38.873 -23.536 -11.433  0.00  0.00    -0.291 OA
ATOM     12  C   UNL     1      38.246 -24.349 -12.158  0.00  0.00    +0.179 C 
ATOM     13  C   UNL     1      39.066 -25.531 -12.685  0.00  0.00    +0.078 C 
ENDBRANCH   9  12
ENDBRANCH   3   7
BRANCH   5  15
ATOM     14  O   UNL     1      29.825 -22.387 -17.221  0.00  0.00    -0.244 OA
ATOM     15  C   UNL     1      30.314 -23.006 -16.258  0.00  0.00    +0.345 C 
BRANCH  15  16
ATOM     16  O   UNL     1      29.485 -23.645 -15.371  0.00  0.00    -0.477 OA
ATOM     17  H   UNL     1      28.822 -24.229 -15.686  0.00  0.00    +0.295 HD
ENDBRANCH  15  16
ENDBRANCH   5  15
BRANCH   2  18
ATOM     18  N   UNL     1      32.772 -22.648 -18.103  0.00  0.00    -0.214 N 
ATOM     19  H   UNL     1      31.912 -22.351 -18.478  0.00  0.00    +0.174 HD
BRANCH  18  20
ATOM     20  S   UNL     1      34.113 -22.704 -19.158  0.00  0.00    +0.073 S 
ATOM     21  O   UNL     1      33.868 -23.702 -20.191  0.00  0.00    -0.150 OA
ATOM     22  O   UNL     1      35.339 -22.767 -18.373  0.00  0.00    -0.150 OA
BRANCH  20  23
ATOM     23  C   UNL     1      34.028 -21.122 -19.901  0.00  0.00    +0.121 C 
ATOM     24  C   UNL     1      35.179 -20.464 -20.334  0.00  0.00    -0.003 C 
ATOM     25  C   UNL     1      32.780 -20.518 -20.056  0.00  0.00    +0.020 C 
ATOM     26  C   UNL     1      35.082 -19.204 -20.923  0.00  0.00    -0.007 C 
ATOM     27  C   UNL     1      33.834 -18.600 -21.078  0.00  0.00    -0.022 C 
ATOM     28  C   UNL     1      32.683 -19.257 -20.644  0.00  0.00    -0.003 C 
ATOM     29  C   UNL     1      36.530 -21.084 -20.184  0.00  0.00    +0.032 C 
ATOM     30  C   UNL     1      33.730 -17.251 -21.707  0.00  0.00    +0.031 C 
ENDBRANCH  20  23
ENDBRANCH  18  20
ENDBRANCH   2  18
TORSDOF 7
ENDMDL
MODEL 6
REMARK VINA RESULT:      -9.6      3.799     10.771
REMARK  Name = 9543496
REMARK  7 active torsions:
REMARK  status: ('A' for Active; 'I' for Inactive)
REMARK    1  A    between atoms: C_2  and  N_18
REMARK    2  A    between atoms: C_3  and  C_7
REMARK    3  A    between atoms: C_5  and  C_15
REMARK    4  A    between atoms: C_9  and  C_12
REMARK    5  A    between atoms: C_15  and  O_16
REMARK    6  A    between atoms: N_18  and  S_20
REMARK    7  A    between atoms: S_20  and  C_23
REMARK                            x       y       z     vdW  Elec       q    Type
REMARK                         _______ _______ _______ _____ _____    ______ ____
ROOT
ATOM      1  S   UNL     1      31.935 -12.223 -21.499  0.00  0.00    -0.079 S 
ATOM      2  C   UNL     1      32.529  -9.814 -22.132  0.00  0.00    +0.078 C 
ATOM      3  C   UNL     1      32.711 -11.953 -23.001  0.00  0.00    +0.037 C 
ATOM      4  C   UNL     1      32.972 -10.618 -23.215  0.00  0.00    +0.024 C 
ATOM      5  C   UNL     1      31.946 -10.550 -21.131  0.00  0.00    +0.120 C 
ENDROOT
BRANCH   3   7
ATOM      6  S   UNL     1      33.477 -14.558 -23.233  0.00  0.00    -0.084 S 
ATOM      7  C   UNL     1      33.015 -13.037 -23.866  0.00  0.00    +0.036 C 
ATOM      8  C   UNL     1      32.985 -13.036 -25.243  0.00  0.00    +0.008 C 
ATOM      9  C   UNL     1      33.642 -15.222 -24.803  0.00  0.00    +0.064 C 
ATOM     10  C   UNL     1      33.350 -14.302 -25.786  0.00  0.00    +0.010 C 
BRANCH   9  12
ATOM     11  O   UNL     1      33.583 -17.378 -25.803  0.00  0.00    -0.291 OA
ATOM     12  C   UNL     1      34.042 -16.584 -24.943  0.00  0.00    +0.179 C 
ATOM     13  C   UNL     1      35.103 -17.170 -24.004  0.00  0.00    +0.078 C 
ENDBRANCH   9  12
ENDBRANCH   3   7
BRANCH   5  15
ATOM     14  O   UNL     1      30.483 -10.675 -19.237  0.00  0.00    -0.244 OA
ATOM     15  C   UNL     1      31.382 -10.118 -19.893  0.00  0.00    +0.345 C 
BRANCH  15  16
ATOM     16  O   UNL     1      31.937  -8.952 -19.429  0.00  0.00    -0.477 OA
ATOM     17  H   UNL     1      32.764  -8.662 -19.763  0.00  0.00    +0.295 HD
ENDBRANCH  15  16
ENDBRANCH   5  15
BRANCH   2  18
ATOM     18  N   UNL     1      32.684  -8.407 -22.119  0.00  0.00    -0.214 N 
ATOM     19  H   UNL     1      33.468  -8.040 -21.651  0.00  0.00    +0.174 HD
BRANCH  18  20
ATOM     20  S   UNL     1      31.616  -7.297 -22.854  0.00  0.00    +0.073 S 
ATOM     21  O   UNL     1      31.291  -6.243 -21.903  0.00  0.00    -0.150 OA
ATOM     22  O   UNL     1      30.542  -8.030 -23.512  0.00  0.00    -0.150 OA
BRANCH  20  23
ATOM     23  C   UNL     1      32.641  -6.611 -24.096  0.00  0.00    +0.121 C 
ATOM     24  C   UNL     1      32.183  -5.587 -24.925  0.00  0.00    -0.003 C 
ATOM     25  C   UNL     1      33.935  -7.106 -24.249  0.00  0.00    +0.020 C 
ATOM     26  C   UNL     1      33.021  -5.057 -25.906  0.00  0.00    -0.007 C 
ATOM     27  C   UNL     1      34.316  -5.552 -26.059  0.00  0.00    -0.022 C 
ATOM     28  C   UNL     1      34.773  -6.577 -25.230  0.00  0.00    -0.003 C 
ATOM     29  C   UNL     1      30.803  -5.033 -24.786  0.00  0.00    +0.032 C 
ATOM     30  C   UNL     1      35.213  -4.988 -27.109  0.00  0.00    +0.031 C 
ENDBRANCH  20  23
ENDBRANCH  18  20
ENDBRANCH   2  18
TORSDOF 7
ENDMDL
MODEL 7
REMARK VINA RESULT:      -9.4      4.059     10.478
REMARK  Name = 9543496
REMARK  7 active torsions:
REMARK  status: ('A' for Active; 'I' for Inactive)
REMARK    1  A    between atoms: C_2  and  N_18
REMARK    2  A    between atoms: C_3  and  C_7
REMARK    3  A    between atoms: C_5  and  C_15
REMARK    4  A    between atoms: C_9  and  C_12
REMARK    5  A    between atoms: C_15  and  O_16
REMARK    6  A    between atoms: N_18  and  S_20
REMARK    7  A    between atoms: S_20  and  C_23
REMARK                            x       y       z     vdW  Elec       q    Type
REMARK                         _______ _______ _______ _____ _____    ______ ____
ROOT
ATOM      1  S   UNL     1      32.044 -12.205 -20.510  0.00  0.00    -0.079 S 
ATOM      2  C   UNL     1      31.808 -10.099 -21.947  0.00  0.00    +0.078 C 
ATOM      3  C   UNL     1      32.469 -12.308 -22.165  0.00  0.00    +0.037 C 
ATOM      4  C   UNL     1      32.295 -11.109 -22.819  0.00  0.00    +0.024 C 
ATOM      5  C   UNL     1      31.625 -10.552 -20.664  0.00  0.00    +0.120 C 
ENDROOT
BRANCH   3   7
ATOM      6  S   UNL     1      33.027 -13.742 -24.414  0.00  0.00    -0.084 S 
ATOM      7  C   UNL     1      32.939 -13.528 -22.718  0.00  0.00    +0.036 C 
ATOM      8  C   UNL     1      33.365 -14.644 -22.033  0.00  0.00    +0.008 C 
ATOM      9  C   UNL     1      33.636 -15.332 -24.237  0.00  0.00    +0.064 C 
ATOM     10  C   UNL     1      33.768 -15.690 -22.912  0.00  0.00    +0.010 C 
BRANCH   9  12
ATOM     11  O   UNL     1      33.587 -15.781 -26.570  0.00  0.00    -0.291 OA
ATOM     12  C   UNL     1      33.933 -16.097 -25.404  0.00  0.00    +0.179 C 
ATOM     13  C   UNL     1      34.725 -17.404 -25.281  0.00  0.00    +0.078 C 
ENDBRANCH   9  12
ENDBRANCH   3   7
BRANCH   5  15
ATOM     14  O   UNL     1      30.177 -10.145 -18.798  0.00  0.00    -0.244 OA
ATOM     15  C   UNL     1      31.155  -9.853 -19.511  0.00  0.00    +0.345 C 
BRANCH  15  16
ATOM     16  O   UNL     1      31.910  -8.749 -19.208  0.00  0.00    -0.477 OA
ATOM     17  H   UNL     1      31.712  -8.241 -18.445  0.00  0.00    +0.295 HD
ENDBRANCH  15  16
ENDBRANCH   5  15
BRANCH   2  18
ATOM     18  N   UNL     1      31.548  -8.779 -22.386  0.00  0.00    -0.214 N 
ATOM     19  H   UNL     1      30.828  -8.652 -23.045  0.00  0.00    +0.174 HD
BRANCH  18  20
ATOM     20  S   UNL     1      32.389  -7.389 -21.863  0.00  0.00    +0.073 S 
ATOM     21  O   UNL     1      33.645  -7.794 -21.244  0.00  0.00    -0.150 OA
ATOM     22  O   UNL     1      31.474  -6.522 -21.132  0.00  0.00    -0.150 OA
BRANCH  20  23
ATOM     23  C   UNL     1      32.759  -6.620 -23.390  0.00  0.00    +0.121 C 
ATOM     24  C   UNL     1      33.891  -6.977 -24.123  0.00  0.00    -0.003 C 
ATOM     25  C   UNL     1      31.899  -5.633 -23.872  0.00  0.00    +0.020 C 
ATOM     26  C   UNL     1      34.162  -6.347 -25.338  0.00  0.00    -0.007 C 
ATOM     27  C   UNL     1      33.302  -5.361 -25.820  0.00  0.00    -0.022 C 
ATOM     28  C   UNL     1      32.170  -5.004 -25.087  0.00  0.00    -0.003 C 
ATOM     29  C   UNL     1      34.831  -8.030 -23.636  0.00  0.00    +0.032 C 
ATOM     30  C   UNL     1      33.591  -4.686 -27.118  0.00  0.00    +0.031 C 
ENDBRANCH  20  23
ENDBRANCH  18  20
ENDBRANCH   2  18
TORSDOF 7
ENDMDL
MODEL 8
REMARK VINA RESULT:      -9.3      1.629      2.344
REMARK  Name = 9543496
REMARK  7 active torsions:
REMARK  status: ('A' for Active; 'I' for Inactive)
REMARK    1  A    between atoms: C_2  and  N_18
REMARK    2  A    between atoms: C_3  and  C_7
REMARK    3  A    between atoms: C_5  and  C_15
REMARK    4  A    between atoms: C_9  and  C_12
REMARK    5  A    between atoms: C_15  and  O_16
REMARK    6  A    between atoms: N_18  and  S_20
REMARK    7  A    between atoms: S_20  and  C_23
REMARK                            x       y       z     vdW  Elec       q    Type
REMARK                         _______ _______ _______ _____ _____    ______ ____
ROOT
ATOM      1  S   UNL     1      33.353 -13.387 -25.517  0.00  0.00    -0.079 S 
ATOM      2  C   UNL     1      34.058 -14.951 -23.616  0.00  0.00    +0.078 C 
ATOM      3  C   UNL     1      33.660 -12.698 -23.980  0.00  0.00    +0.037 C 
ATOM      4  C   UNL     1      34.028 -13.648 -23.052  0.00  0.00    +0.024 C 
ATOM      5  C   UNL     1      33.713 -14.961 -24.944  0.00  0.00    +0.120 C 
ENDROOT
BRANCH   3   7
ATOM      6  S   UNL     1      32.271 -10.679 -22.788  0.00  0.00    -0.084 S 
ATOM      7  C   UNL     1      33.527 -11.301 -23.771  0.00  0.00    +0.036 C 
ATOM      8  C   UNL     1      34.325 -10.302 -24.285  0.00  0.00    +0.008 C 
ATOM      9  C   UNL     1      32.791  -9.069 -23.048  0.00  0.00    +0.064 C 
ATOM     10  C   UNL     1      33.898  -9.009 -23.867  0.00  0.00    +0.010 C 
BRANCH   9  12
ATOM     11  O   UNL     1      31.077  -7.426 -22.937  0.00  0.00    -0.291 OA
ATOM     12  C   UNL     1      32.075  -7.999 -22.433  0.00  0.00    +0.179 C 
ATOM     13  C   UNL     1      32.514  -7.475 -21.061  0.00  0.00    +0.078 C 
ENDBRANCH   9  12
ENDBRANCH   3   7
BRANCH   5  15
ATOM     14  O   UNL     1      34.368 -17.054 -25.910  0.00  0.00    -0.244 OA
ATOM     15  C   UNL     1      33.624 -16.058 -25.854  0.00  0.00    +0.345 C 
BRANCH  15  16
ATOM     16  O   UNL     1      32.580 -15.940 -26.736  0.00  0.00    -0.477 OA
ATOM     17  H   UNL     1      32.060 -16.690 -26.950  0.00  0.00    +0.295 HD
ENDBRANCH  15  16
ENDBRANCH   5  15
BRANCH   2  18
ATOM     18  N   UNL     1      34.406 -16.096 -22.860  0.00  0.00    -0.214 N 
ATOM     19  H   UNL     1      34.892 -16.816 -23.322  0.00  0.00    +0.174 HD
BRANCH  18  20
ATOM     20  S   UNL     1      34.049 -16.323 -21.206  0.00  0.00    +0.073 S 
ATOM     21  O   UNL     1      32.604 -16.329 -21.025  0.00  0.00    -0.150 OA
ATOM     22  O   UNL     1      34.871 -15.421 -20.410  0.00  0.00    -0.150 OA
BRANCH  20  23
ATOM     23  C   UNL     1      34.635 -17.953 -20.953  0.00  0.00    +0.121 C 
ATOM     24  C   UNL     1      33.752 -19.016 -20.762  0.00  0.00    -0.003 C 
ATOM     25  C   UNL     1      36.011 -18.179 -20.944  0.00  0.00    +0.020 C 
ATOM     26  C   UNL     1      34.246 -20.305 -20.562  0.00  0.00    -0.007 C 
ATOM     27  C   UNL     1      35.622 -20.531 -20.553  0.00  0.00    -0.022 C 
ATOM     28  C   UNL     1      36.505 -19.468 -20.744  0.00  0.00    -0.003 C 
ATOM     29  C   UNL     1      32.273 -18.808 -20.767  0.00  0.00    +0.032 C 
ATOM     30  C   UNL     1      36.152 -21.909 -20.339  0.00  0.00    +0.031 C 
ENDBRANCH  20  23
ENDBRANCH  18  20
ENDBRANCH   2  18
TORSDOF 7
ENDMDL
MODEL 9
REMARK VINA RESULT:      -9.3      3.168      9.572
REMARK  Name = 9543496
REMARK  7 active torsions:
REMARK  status: ('A' for Active; 'I' for Inactive)
REMARK    1  A    between atoms: C_2  and  N_18
REMARK    2  A    between atoms: C_3  and  C_7
REMARK    3  A    between atoms: C_5  and  C_15
REMARK    4  A    between atoms: C_9  and  C_12
REMARK    5  A    between atoms: C_15  and  O_16
REMARK    6  A    between atoms: N_18  and  S_20
REMARK    7  A    between atoms: S_20  and  C_23
REMARK                            x       y       z     vdW  Elec       q    Type
REMARK                         _______ _______ _______ _____ _____    ______ ____
ROOT
ATOM      1  S   UNL     1      36.426 -20.657 -20.224  0.00  0.00    -0.079 S 
ATOM      2  C   UNL     1      34.672 -19.071 -21.207  0.00  0.00    +0.078 C 
ATOM      3  C   UNL     1      34.809 -20.813 -19.685  0.00  0.00    +0.037 C 
ATOM      4  C   UNL     1      33.972 -19.901 -20.291  0.00  0.00    +0.024 C 
ATOM      5  C   UNL     1      36.011 -19.368 -21.272  0.00  0.00    +0.120 C 
ENDROOT
BRANCH   3   7
ATOM      6  S   UNL     1      35.536 -22.209 -17.461  0.00  0.00    -0.084 S 
ATOM      7  C   UNL     1      34.456 -21.793 -18.722  0.00  0.00    +0.036 C 
ATOM      8  C   UNL     1      33.281 -22.509 -18.654  0.00  0.00    +0.008 C 
ATOM      9  C   UNL     1      34.433 -23.351 -16.819  0.00  0.00    +0.064 C 
ATOM     10  C   UNL     1      33.268 -23.412 -17.552  0.00  0.00    +0.010 C 
BRANCH   9  12
ATOM     11  O   UNL     1      35.712 -24.953 -15.616  0.00  0.00    -0.291 OA
ATOM     12  C   UNL     1      34.797 -24.091 -15.655  0.00  0.00    +0.179 C 
ATOM     13  C   UNL     1      34.053 -23.858 -14.336  0.00  0.00    +0.078 C 
ENDBRANCH   9  12
ENDBRANCH   3   7
BRANCH   5  15
ATOM     14  O   UNL     1      38.259 -18.743 -21.819  0.00  0.00    -0.244 OA
ATOM     15  C   UNL     1      37.038 -18.768 -22.062  0.00  0.00    +0.345 C 
BRANCH  15  16
ATOM     16  O   UNL     1      36.560 -18.171 -23.200  0.00  0.00    -0.477 OA
ATOM     17  H   UNL     1      35.767 -17.671 -23.169  0.00  0.00    +0.295 HD
ENDBRANCH  15  16
ENDBRANCH   5  15
BRANCH   2  18
ATOM     18  N   UNL     1      34.029 -18.056 -21.953  0.00  0.00    -0.214 N 
ATOM     19  H   UNL     1      33.690 -18.292 -22.846  0.00  0.00    +0.174 HD
BRANCH  18  20
ATOM     20  S   UNL     1      33.794 -16.450 -21.422  0.00  0.00    +0.073 S 
ATOM     21  O   UNL     1      35.022 -15.966 -20.806  0.00  0.00    -0.150 OA
ATOM     22  O   UNL     1      32.538 -16.366 -20.688  0.00  0.00    -0.150 OA
BRANCH  20  23
ATOM     23  C   UNL     1      33.585 -15.615 -22.946  0.00  0.00    +0.121 C 
ATOM     24  C   UNL     1      33.015 -14.344 -23.001  0.00  0.00    -0.003 C 
ATOM     25  C   UNL     1      34.001 -16.245 -24.119  0.00  0.00    +0.020 C 
ATOM     26  C   UNL     1      32.861 -13.701 -24.229  0.00  0.00    -0.007 C 
ATOM     27  C   UNL     1      33.277 -14.330 -25.403  0.00  0.00    -0.022 C 
ATOM     28  C   UNL     1      33.846 -15.602 -25.348  0.00  0.00    -0.003 C 
ATOM     29  C   UNL     1      32.561 -13.643 -21.763  0.00  0.00    +0.032 C 
ATOM     30  C   UNL     1      33.111 -13.644 -26.717  0.00  0.00    +0.031 C 
ENDBRANCH  20  23
ENDBRANCH  18  20
ENDBRANCH   2  18
TORSDOF 7
ENDMDL
