MODEL 1
REMARK VINA RESULT:      -9.1      0.000      0.000
REMARK  Name = 11175137
REMARK  3 active torsions:
REMARK  status: ('A' for Active; 'I' for Inactive)
REMARK    1  A    between atoms: C_2  and  C_10
REMARK    2  A    between atoms: C_2  and  C_16
REMARK    3  A    between atoms: C_21  and  C_24
REMARK                            x       y       z     vdW  Elec       q    Type
REMARK                         _______ _______ _______ _____ _____    ______ ____
ROOT
ATOM      1  N   UNL     1      37.588 -24.855 -13.884  0.00  0.00    +0.384 N 
ATOM      2  C   UNL     1      34.948 -23.953 -15.039  0.00  0.00    +0.034 C 
ATOM      3  C   UNL     1      35.655 -23.337 -13.780  0.00  0.00    -0.015 C 
ATOM      4  C   UNL     1      35.509 -25.417 -15.118  0.00  0.00    -0.015 C 
ATOM      5  C   UNL     1      37.180 -23.457 -13.821  0.00  0.00    -0.081 C 
ATOM      6  C   UNL     1      37.039 -25.511 -15.065  0.00  0.00    -0.081 C 
ATOM      7  H   UNL     1      37.254 -25.337 -13.050  0.00  0.00    -0.085 HD
ATOM      8  H   UNL     1      38.607 -24.893 -13.937  0.00  0.00    -0.085 HD
ENDROOT
BRANCH   2  10
ATOM      9 CL   UNL     1      28.932 -24.309 -14.389  0.00  0.00    -0.082 Cl
ATOM     10  C   UNL     1      33.407 -24.043 -14.871  0.00  0.00    -0.019 C 
ATOM     11  C   UNL     1      32.852 -25.037 -14.067  0.00  0.00    -0.003 C 
ATOM     12  C   UNL     1      32.581 -23.131 -15.527  0.00  0.00    -0.003 C 
ATOM     13  C   UNL     1      31.467 -25.118 -13.917  0.00  0.00    +0.011 C 
ATOM     14  C   UNL     1      31.197 -23.213 -15.377  0.00  0.00    +0.011 C 
ATOM     15  C   UNL     1      30.640 -24.207 -14.573  0.00  0.00    +0.058 C 
ENDBRANCH   2  10
BRANCH   2  16
ATOM     16  C   UNL     1      35.236 -23.079 -16.288  0.00  0.00    -0.019 C 
ATOM     17  C   UNL     1      36.384 -22.291 -16.334  0.00  0.00    -0.004 C 
ATOM     18  C   UNL     1      34.344 -23.084 -17.359  0.00  0.00    -0.004 C 
ATOM     19  C   UNL     1      36.643 -21.505 -17.458  0.00  0.00    -0.000 C 
ATOM     20  C   UNL     1      34.604 -22.298 -18.482  0.00  0.00    -0.000 C 
ATOM     21  C   UNL     1      35.752 -21.509 -18.531  0.00  0.00    +0.003 C 
BRANCH  21  24
ATOM     22  N   UNL     1      35.727 -19.610 -21.551  0.00  0.00    -0.235 N 
ATOM     23  N   UNL     1      37.024 -19.401 -21.267  0.00  0.00    -0.180 NA
ATOM     24  C   UNL     1      36.017 -20.699 -19.687  0.00  0.00    +0.037 C 
ATOM     25  C   UNL     1      35.079 -20.383 -20.634  0.00  0.00    +0.081 C 
ATOM     26  C   UNL     1      37.196 -20.071 -20.124  0.00  0.00    +0.119 C 
ATOM     27  H   UNL     1      35.286 -19.238 -22.349  0.00  0.00    +0.174 HD
ENDBRANCH  21  24
ENDBRANCH   2  16
TORSDOF 3
ENDMDL
MODEL 2
REMARK VINA RESULT:      -9.1     14.385     17.881
REMARK  Name = 11175137
REMARK  3 active torsions:
REMARK  status: ('A' for Active; 'I' for Inactive)
REMARK    1  A    between atoms: C_2  and  C_10
REMARK    2  A    between atoms: C_2  and  C_16
REMARK    3  A    between atoms: C_21  and  C_24
REMARK                            x       y       z     vdW  Elec       q    Type
REMARK                         _______ _______ _______ _____ _____    ______ ____
ROOT
ATOM      1  N   UNL     1      31.075  -5.721 -21.049  0.00  0.00    +0.384 N 
ATOM      2  C   UNL     1      32.393  -7.697 -22.914  0.00  0.00    +0.034 C 
ATOM      3  C   UNL     1      30.858  -7.373 -22.859  0.00  0.00    -0.015 C 
ATOM      4  C   UNL     1      32.914  -7.331 -21.479  0.00  0.00    -0.015 C 
ATOM      5  C   UNL     1      30.555  -5.947 -22.392  0.00  0.00    -0.081 C 
ATOM      6  C   UNL     1      32.518  -5.928 -21.001  0.00  0.00    -0.081 C 
ATOM      7  H   UNL     1      30.623  -6.370 -20.404  0.00  0.00    -0.085 HD
ATOM      8  H   UNL     1      30.877  -4.755 -20.784  0.00  0.00    -0.085 HD
ENDROOT
BRANCH   2  10
ATOM      9 CL   UNL     1      33.497 -13.586 -23.834  0.00  0.00    -0.082 Cl
ATOM     10  C   UNL     1      32.674  -9.206 -23.150  0.00  0.00    -0.019 C 
ATOM     11  C   UNL     1      31.926 -10.167 -22.474  0.00  0.00    -0.003 C 
ATOM     12  C   UNL     1      33.677  -9.595 -24.038  0.00  0.00    -0.003 C 
ATOM     13  C   UNL     1      32.181 -11.522 -22.686  0.00  0.00    +0.011 C 
ATOM     14  C   UNL     1      33.930 -10.950 -24.250  0.00  0.00    +0.011 C 
ATOM     15  C   UNL     1      33.183 -11.914 -23.573  0.00  0.00    +0.058 C 
ENDBRANCH   2  10
BRANCH   2  16
ATOM     16  C   UNL     1      33.060  -6.905 -24.068  0.00  0.00    -0.019 C 
ATOM     17  C   UNL     1      34.425  -7.047 -24.310  0.00  0.00    -0.004 C 
ATOM     18  C   UNL     1      32.293  -6.052 -24.860  0.00  0.00    -0.004 C 
ATOM     19  C   UNL     1      35.025  -6.335 -25.349  0.00  0.00    -0.000 C 
ATOM     20  C   UNL     1      32.894  -5.340 -25.898  0.00  0.00    -0.000 C 
ATOM     21  C   UNL     1      34.259  -5.482 -26.142  0.00  0.00    +0.003 C 
BRANCH  21  24
ATOM     22  N   UNL     1      35.148  -3.377 -28.883  0.00  0.00    -0.235 N 
ATOM     23  N   UNL     1      36.370  -3.911 -28.716  0.00  0.00    -0.180 NA
ATOM     24  C   UNL     1      34.877  -4.747 -27.210  0.00  0.00    +0.037 C 
ATOM     25  C   UNL     1      34.217  -3.846 -28.004  0.00  0.00    +0.081 C 
ATOM     26  C   UNL     1      36.197  -4.750 -27.690  0.00  0.00    +0.119 C 
ATOM     27  H   UNL     1      34.945  -2.708 -29.576  0.00  0.00    +0.174 HD
ENDBRANCH  21  24
ENDBRANCH   2  16
TORSDOF 3
ENDMDL
MODEL 3
REMARK VINA RESULT:      -8.5     12.908     16.900
REMARK  Name = 11175137
REMARK  3 active torsions:
REMARK  status: ('A' for Active; 'I' for Inactive)
REMARK    1  A    between atoms: C_2  and  C_10
REMARK    2  A    between atoms: C_2  and  C_16
REMARK    3  A    between atoms: C_21  and  C_24
REMARK                            x       y       z     vdW  Elec       q    Type
REMARK                         _______ _______ _______ _____ _____    ______ ____
ROOT
ATOM      1  N   UNL     1      32.215  -7.310 -19.939  0.00  0.00    +0.384 N 
ATOM      2  C   UNL     1      32.954  -7.521 -22.859  0.00  0.00    +0.034 C 
ATOM      3  C   UNL     1      33.933  -7.146 -21.692  0.00  0.00    -0.015 C 
ATOM      4  C   UNL     1      31.537  -7.114 -22.318  0.00  0.00    -0.015 C 
ATOM      5  C   UNL     1      33.540  -7.761 -20.347  0.00  0.00    -0.081 C 
ATOM      6  C   UNL     1      31.207  -7.672 -20.928  0.00  0.00    -0.081 C 
ATOM      7  H   UNL     1      32.228  -6.295 -19.832  0.00  0.00    -0.085 HD
ATOM      8  H   UNL     1      31.977  -7.760 -19.054  0.00  0.00    -0.085 HD
ENDROOT
BRANCH   2  10
ATOM      9 CL   UNL     1      34.004  -4.310 -27.892  0.00  0.00    -0.082 Cl
ATOM     10  C   UNL     1      33.223  -6.699 -24.149  0.00  0.00    -0.019 C 
ATOM     11  C   UNL     1      34.489  -6.712 -24.730  0.00  0.00    -0.003 C 
ATOM     12  C   UNL     1      32.197  -5.949 -24.722  0.00  0.00    -0.003 C 
ATOM     13  C   UNL     1      34.731  -5.973 -25.889  0.00  0.00    +0.011 C 
ATOM     14  C   UNL     1      32.439  -5.211 -25.880  0.00  0.00    +0.011 C 
ATOM     15  C   UNL     1      33.706  -5.222 -26.464  0.00  0.00    +0.058 C 
ENDBRANCH   2  10
BRANCH   2  16
ATOM     16  C   UNL     1      33.105  -9.023 -23.215  0.00  0.00    -0.019 C 
ATOM     17  C   UNL     1      32.149  -9.939 -22.783  0.00  0.00    -0.004 C 
ATOM     18  C   UNL     1      34.200  -9.451 -23.964  0.00  0.00    -0.004 C 
ATOM     19  C   UNL     1      32.287 -11.291 -23.104  0.00  0.00    -0.000 C 
ATOM     20  C   UNL     1      34.337 -10.802 -24.284  0.00  0.00    -0.000 C 
ATOM     21  C   UNL     1      33.380 -11.721 -23.854  0.00  0.00    +0.003 C 
BRANCH  21  24
ATOM     22  N   UNL     1      34.033 -15.225 -24.029  0.00  0.00    -0.235 N 
ATOM     23  N   UNL     1      33.468 -15.128 -25.244  0.00  0.00    -0.180 NA
ATOM     24  C   UNL     1      33.523 -13.112 -24.182  0.00  0.00    +0.037 C 
ATOM     25  C   UNL     1      34.090 -14.042 -23.351  0.00  0.00    +0.081 C 
ATOM     26  C   UNL     1      33.157 -13.831 -25.332  0.00  0.00    +0.119 C 
ATOM     27  H   UNL     1      34.374 -16.072 -23.661  0.00  0.00    +0.174 HD
ENDBRANCH  21  24
ENDBRANCH   2  16
TORSDOF 3
ENDMDL
MODEL 4
REMARK VINA RESULT:      -8.4      2.885      4.543
REMARK  Name = 11175137
REMARK  3 active torsions:
REMARK  status: ('A' for Active; 'I' for Inactive)
REMARK    1  A    between atoms: C_2  and  C_10
REMARK    2  A    between atoms: C_2  and  C_16
REMARK    3  A    between atoms: C_21  and  C_24
REMARK                            x       y       z     vdW  Elec       q    Type
REMARK                         _______ _______ _______ _____ _____    ______ ____
ROOT
ATOM      1  N   UNL     1      31.879 -24.284 -13.488  0.00  0.00    +0.384 N 
ATOM      2  C   UNL     1      34.662 -24.285 -14.661  0.00  0.00    +0.034 C 
ATOM      3  C   UNL     1      33.631 -25.464 -14.750  0.00  0.00    -0.015 C 
ATOM      4  C   UNL     1      34.228 -23.491 -13.377  0.00  0.00    -0.015 C 
ATOM      5  C   UNL     1      32.173 -25.000 -14.724  0.00  0.00    -0.081 C 
ATOM      6  C   UNL     1      32.741 -23.118 -13.338  0.00  0.00    -0.081 C 
ATOM      7  H   UNL     1      32.027 -24.912 -12.697  0.00  0.00    -0.085 HD
ATOM      8  H   UNL     1      30.909 -23.969 -13.519  0.00  0.00    -0.085 HD
ENDROOT
BRANCH   2  10
ATOM      9 CL   UNL     1      40.344 -26.221 -13.814  0.00  0.00    -0.082 Cl
ATOM     10  C   UNL     1      36.117 -24.781 -14.442  0.00  0.00    -0.019 C 
ATOM     11  C   UNL     1      36.969 -24.085 -13.587  0.00  0.00    -0.003 C 
ATOM     12  C   UNL     1      36.569 -25.922 -15.105  0.00  0.00    -0.003 C 
ATOM     13  C   UNL     1      38.276 -24.531 -13.393  0.00  0.00    +0.011 C 
ATOM     14  C   UNL     1      37.876 -26.367 -14.909  0.00  0.00    +0.011 C 
ATOM     15  C   UNL     1      38.730 -25.672 -14.054  0.00  0.00    +0.058 C 
ENDBRANCH   2  10
BRANCH   2  16
ATOM     16  C   UNL     1      34.637 -23.459 -15.974  0.00  0.00    -0.019 C 
ATOM     17  C   UNL     1      35.758 -22.727 -16.356  0.00  0.00    -0.004 C 
ATOM     18  C   UNL     1      33.490 -23.451 -16.766  0.00  0.00    -0.004 C 
ATOM     19  C   UNL     1      35.735 -21.984 -17.537  0.00  0.00    -0.000 C 
ATOM     20  C   UNL     1      33.468 -22.709 -17.947  0.00  0.00    -0.000 C 
ATOM     21  C   UNL     1      34.589 -21.975 -18.332  0.00  0.00    +0.003 C 
BRANCH  21  24
ATOM     22  N   UNL     1      35.231 -20.169 -21.341  0.00  0.00    -0.235 N 
ATOM     23  N   UNL     1      33.899 -19.989 -21.352  0.00  0.00    -0.180 NA
ATOM     24  C   UNL     1      34.565 -21.210 -19.546  0.00  0.00    +0.037 C 
ATOM     25  C   UNL     1      35.680 -20.896 -20.278  0.00  0.00    +0.081 C 
ATOM     26  C   UNL     1      33.497 -20.629 -20.250  0.00  0.00    +0.119 C 
ATOM     27  H   UNL     1      35.827 -19.810 -22.037  0.00  0.00    +0.174 HD
ENDBRANCH  21  24
ENDBRANCH   2  16
TORSDOF 3
ENDMDL
MODEL 5
REMARK VINA RESULT:      -8.4      2.792      4.270
REMARK  Name = 11175137
REMARK  3 active torsions:
REMARK  status: ('A' for Active; 'I' for Inactive)
REMARK    1  A    between atoms: C_2  and  C_10
REMARK    2  A    between atoms: C_2  and  C_16
REMARK    3  A    between atoms: C_21  and  C_24
REMARK                            x       y       z     vdW  Elec       q    Type
REMARK                         _______ _______ _______ _____ _____    ______ ____
ROOT
ATOM      1  N   UNL     1      30.084 -23.923 -14.575  0.00  0.00    +0.384 N 
ATOM      2  C   UNL     1      33.078 -23.988 -14.962  0.00  0.00    +0.034 C 
ATOM      3  C   UNL     1      32.088 -25.161 -15.288  0.00  0.00    -0.015 C 
ATOM      4  C   UNL     1      32.332 -23.148 -13.865  0.00  0.00    -0.015 C 
ATOM      5  C   UNL     1      30.684 -24.682 -15.666  0.00  0.00    -0.081 C 
ATOM      6  C   UNL     1      30.895 -22.760 -14.235  0.00  0.00    -0.081 C 
ATOM      7  H   UNL     1      30.005 -24.526 -13.756  0.00  0.00    -0.085 HD
ATOM      8  H   UNL     1      29.163 -23.600 -14.874  0.00  0.00    -0.085 HD
ENDROOT
BRANCH   2  10
ATOM      9 CL   UNL     1      38.287 -25.952 -12.562  0.00  0.00    -0.082 Cl
ATOM     10  C   UNL     1      34.414 -24.490 -14.348  0.00  0.00    -0.019 C 
ATOM     11  C   UNL     1      35.253 -25.318 -15.091  0.00  0.00    -0.003 C 
ATOM     12  C   UNL     1      34.769 -24.113 -13.053  0.00  0.00    -0.003 C 
ATOM     13  C   UNL     1      36.451 -25.770 -14.538  0.00  0.00    +0.011 C 
ATOM     14  C   UNL     1      35.967 -24.564 -12.502  0.00  0.00    +0.011 C 
ATOM     15  C   UNL     1      36.809 -25.394 -13.244  0.00  0.00    +0.058 C 
ENDBRANCH   2  10
BRANCH   2  16
ATOM     16  C   UNL     1      33.419 -23.207 -16.257  0.00  0.00    -0.019 C 
ATOM     17  C   UNL     1      34.733 -22.824 -16.513  0.00  0.00    -0.004 C 
ATOM     18  C   UNL     1      32.407 -22.887 -17.162  0.00  0.00    -0.004 C 
ATOM     19  C   UNL     1      35.039 -22.121 -17.679  0.00  0.00    -0.000 C 
ATOM     20  C   UNL     1      32.713 -22.184 -18.326  0.00  0.00    -0.000 C 
ATOM     21  C   UNL     1      34.029 -21.801 -18.585  0.00  0.00    +0.003 C 
BRANCH  21  24
ATOM     22  N   UNL     1      34.108 -19.904 -21.606  0.00  0.00    -0.235 N 
ATOM     23  N   UNL     1      35.436 -20.090 -21.524  0.00  0.00    -0.180 NA
ATOM     24  C   UNL     1      34.343 -21.076 -19.784  0.00  0.00    +0.037 C 
ATOM     25  C   UNL     1      33.407 -20.477 -20.585  0.00  0.00    +0.081 C 
ATOM     26  C   UNL     1      35.574 -20.809 -20.406  0.00  0.00    +0.119 C 
ATOM     27  H   UNL     1      33.680 -19.401 -22.336  0.00  0.00    +0.174 HD
ENDBRANCH  21  24
ENDBRANCH   2  16
TORSDOF 3
ENDMDL
MODEL 6
REMARK VINA RESULT:      -8.1     13.935     18.005
REMARK  Name = 11175137
REMARK  3 active torsions:
REMARK  status: ('A' for Active; 'I' for Inactive)
REMARK    1  A    between atoms: C_2  and  C_10
REMARK    2  A    between atoms: C_2  and  C_16
REMARK    3  A    between atoms: C_21  and  C_24
REMARK                            x       y       z     vdW  Elec       q    Type
REMARK                         _______ _______ _______ _____ _____    ______ ____
ROOT
ATOM      1  N   UNL     1      30.750  -5.499 -21.099  0.00  0.00    +0.384 N 
ATOM      2  C   UNL     1      32.326  -6.345 -23.531  0.00  0.00    +0.034 C 
ATOM      3  C   UNL     1      32.923  -5.691 -22.236  0.00  0.00    -0.015 C 
ATOM      4  C   UNL     1      30.832  -5.863 -23.553  0.00  0.00    -0.015 C 
ATOM      5  C   UNL     1      32.114  -5.997 -20.973  0.00  0.00    -0.081 C 
ATOM      6  C   UNL     1      30.072  -6.101 -22.242  0.00  0.00    -0.081 C 
ATOM      7  H   UNL     1      30.776  -4.486 -21.222  0.00  0.00    -0.085 HD
ATOM      8  H   UNL     1      30.236  -5.744 -20.252  0.00  0.00    -0.085 HD
ENDROOT
BRANCH   2  10
ATOM      9 CL   UNL     1      34.994  -4.339 -28.592  0.00  0.00    -0.082 Cl
ATOM     10  C   UNL     1      33.010  -5.829 -24.827  0.00  0.00    -0.019 C 
ATOM     11  C   UNL     1      32.321  -4.973 -25.684  0.00  0.00    -0.003 C 
ATOM     12  C   UNL     1      34.311  -6.227 -25.131  0.00  0.00    -0.003 C 
ATOM     13  C   UNL     1      32.935  -4.512 -26.848  0.00  0.00    +0.011 C 
ATOM     14  C   UNL     1      34.925  -5.765 -26.295  0.00  0.00    +0.011 C 
ATOM     15  C   UNL     1      34.237  -4.907 -27.155  0.00  0.00    +0.058 C 
ENDBRANCH   2  10
BRANCH   2  16
ATOM     16  C   UNL     1      32.511  -7.884 -23.480  0.00  0.00    -0.019 C 
ATOM     17  C   UNL     1      33.754  -8.444 -23.761  0.00  0.00    -0.004 C 
ATOM     18  C   UNL     1      31.430  -8.702 -23.156  0.00  0.00    -0.004 C 
ATOM     19  C   UNL     1      33.920  -9.830 -23.715  0.00  0.00    -0.000 C 
ATOM     20  C   UNL     1      31.596 -10.086 -23.110  0.00  0.00    -0.000 C 
ATOM     21  C   UNL     1      32.840 -10.650 -23.390  0.00  0.00    +0.003 C 
BRANCH  21  24
ATOM     22  N   UNL     1      32.780 -14.160 -22.758  0.00  0.00    -0.235 N 
ATOM     23  N   UNL     1      33.694 -14.213 -23.741  0.00  0.00    -0.180 NA
ATOM     24  C   UNL     1      33.009 -12.075 -23.345  0.00  0.00    +0.037 C 
ATOM     25  C   UNL     1      32.337 -12.900 -22.482  0.00  0.00    +0.081 C 
ATOM     26  C   UNL     1      33.830 -12.932 -24.097  0.00  0.00    +0.119 C 
ATOM     27  H   UNL     1      32.458 -14.959 -22.280  0.00  0.00    +0.174 HD
ENDBRANCH  21  24
ENDBRANCH   2  16
TORSDOF 3
ENDMDL
MODEL 7
REMARK VINA RESULT:      -8.1     11.513     14.738
REMARK  Name = 11175137
REMARK  3 active torsions:
REMARK  status: ('A' for Active; 'I' for Inactive)
REMARK    1  A    between atoms: C_2  and  C_10
REMARK    2  A    between atoms: C_2  and  C_16
REMARK    3  A    between atoms: C_21  and  C_24
REMARK                            x       y       z     vdW  Elec       q    Type
REMARK                         _______ _______ _______ _____ _____    ______ ____
ROOT
ATOM      1  N   UNL     1      30.834 -10.781 -19.104  0.00  0.00    +0.384 N 
ATOM      2  C   UNL     1      31.966 -10.018 -21.797  0.00  0.00    +0.034 C 
ATOM      3  C   UNL     1      32.684  -9.826 -20.415  0.00  0.00    -0.015 C 
ATOM      4  C   UNL     1      30.438 -10.036 -21.438  0.00  0.00    -0.015 C 
ATOM      5  C   UNL     1      32.266 -10.858 -19.365  0.00  0.00    -0.081 C 
ATOM      6  C   UNL     1      30.063 -11.016 -20.319  0.00  0.00    -0.081 C 
ATOM      7  H   UNL     1      30.612  -9.853 -18.743  0.00  0.00    -0.085 HD
ATOM      8  H   UNL     1      30.590 -11.499 -18.421  0.00  0.00    -0.085 HD
ENDROOT
BRANCH   2  10
ATOM      9 CL   UNL     1      32.923  -5.374 -25.573  0.00  0.00    -0.082 Cl
ATOM     10  C   UNL     1      32.212  -8.829 -22.766  0.00  0.00    -0.019 C 
ATOM     11  C   UNL     1      33.485  -8.272 -22.874  0.00  0.00    -0.003 C 
ATOM     12  C   UNL     1      31.158  -8.320 -23.523  0.00  0.00    -0.003 C 
ATOM     13  C   UNL     1      33.705  -7.203 -23.743  0.00  0.00    +0.011 C 
ATOM     14  C   UNL     1      31.379  -7.252 -24.392  0.00  0.00    +0.011 C 
ATOM     15  C   UNL     1      32.652  -6.693 -24.502  0.00  0.00    +0.058 C 
ENDBRANCH   2  10
BRANCH   2  16
ATOM     16  C   UNL     1      32.486 -11.306 -22.489  0.00  0.00    -0.019 C 
ATOM     17  C   UNL     1      33.366 -11.210 -23.564  0.00  0.00    -0.004 C 
ATOM     18  C   UNL     1      32.068 -12.555 -22.033  0.00  0.00    -0.004 C 
ATOM     19  C   UNL     1      33.833 -12.368 -24.186  0.00  0.00    -0.000 C 
ATOM     20  C   UNL     1      32.535 -13.713 -22.655  0.00  0.00    -0.000 C 
ATOM     21  C   UNL     1      33.417 -13.619 -23.731  0.00  0.00    +0.003 C 
BRANCH  21  24
ATOM     22  N   UNL     1      34.997 -16.656 -24.736  0.00  0.00    -0.235 N 
ATOM     23  N   UNL     1      34.259 -16.509 -25.849  0.00  0.00    -0.180 NA
ATOM     24  C   UNL     1      33.896 -14.811 -24.372  0.00  0.00    +0.037 C 
ATOM     25  C   UNL     1      34.816 -15.663 -23.819  0.00  0.00    +0.081 C 
ATOM     26  C   UNL     1      33.586 -15.377 -25.620  0.00  0.00    +0.119 C 
ATOM     27  H   UNL     1      35.613 -17.412 -24.596  0.00  0.00    +0.174 HD
ENDBRANCH  21  24
ENDBRANCH   2  16
TORSDOF 3
ENDMDL
MODEL 8
REMARK VINA RESULT:      -7.7      7.852     12.349
REMARK  Name = 11175137
REMARK  3 active torsions:
REMARK  status: ('A' for Active; 'I' for Inactive)
REMARK    1  A    between atoms: C_2  and  C_10
REMARK    2  A    between atoms: C_2  and  C_16
REMARK    3  A    between atoms: C_21  and  C_24
REMARK                            x       y       z     vdW  Elec       q    Type
REMARK                         _______ _______ _______ _____ _____    ______ ____
ROOT
ATOM      1  N   UNL     1      33.389 -13.159 -27.011  0.00  0.00    +0.384 N 
ATOM      2  C   UNL     1      33.080 -13.059 -24.009  0.00  0.00    +0.034 C 
ATOM      3  C   UNL     1      31.960 -13.460 -25.031  0.00  0.00    -0.015 C 
ATOM      4  C   UNL     1      34.055 -12.153 -24.842  0.00  0.00    -0.015 C 
ATOM      5  C   UNL     1      32.505 -14.087 -26.316  0.00  0.00    -0.081 C 
ATOM      6  C   UNL     1      34.514 -12.772 -26.169  0.00  0.00    -0.081 C 
ATOM      7  H   UNL     1      32.860 -12.324 -27.265  0.00  0.00    -0.085 HD
ATOM      8  H   UNL     1      33.752 -13.621 -27.845  0.00  0.00    -0.085 HD
ENDROOT
BRANCH   2  10
ATOM      9 CL   UNL     1      30.953  -9.742 -19.403  0.00  0.00    -0.082 Cl
ATOM     10  C   UNL     1      32.534 -12.209 -22.830  0.00  0.00    -0.019 C 
ATOM     11  C   UNL     1      32.574 -10.818 -22.899  0.00  0.00    -0.003 C 
ATOM     12  C   UNL     1      32.007 -12.840 -21.704  0.00  0.00    -0.003 C 
ATOM     13  C   UNL     1      32.084 -10.055 -21.838  0.00  0.00    +0.011 C 
ATOM     14  C   UNL     1      31.517 -12.077 -20.644  0.00  0.00    +0.011 C 
ATOM     15  C   UNL     1      31.556 -10.684 -20.711  0.00  0.00    +0.058 C 
ENDBRANCH   2  10
BRANCH   2  16
ATOM     16  C   UNL     1      33.731 -14.333 -23.410  0.00  0.00    -0.019 C 
ATOM     17  C   UNL     1      33.787 -15.504 -24.163  0.00  0.00    -0.004 C 
ATOM     18  C   UNL     1      34.256 -14.304 -22.119  0.00  0.00    -0.004 C 
ATOM     19  C   UNL     1      34.373 -16.650 -23.624  0.00  0.00    -0.000 C 
ATOM     20  C   UNL     1      34.841 -15.450 -21.581  0.00  0.00    -0.000 C 
ATOM     21  C   UNL     1      34.899 -16.623 -22.333  0.00  0.00    +0.003 C 
BRANCH  21  24
ATOM     22  N   UNL     1      35.753 -19.657 -20.662  0.00  0.00    -0.235 N 
ATOM     23  N   UNL     1      36.962 -19.458 -21.214  0.00  0.00    -0.180 NA
ATOM     24  C   UNL     1      35.499 -17.803 -21.778  0.00  0.00    +0.037 C 
ATOM     25  C   UNL     1      34.840 -18.692 -20.971  0.00  0.00    +0.081 C 
ATOM     26  C   UNL     1      36.800 -18.320 -21.896  0.00  0.00    +0.119 C 
ATOM     27  H   UNL     1      35.546 -20.430 -20.089  0.00  0.00    +0.174 HD
ENDBRANCH  21  24
ENDBRANCH   2  16
TORSDOF 3
ENDMDL
MODEL 9
REMARK VINA RESULT:      -7.5      4.386      8.783
REMARK  Name = 11175137
REMARK  3 active torsions:
REMARK  status: ('A' for Active; 'I' for Inactive)
REMARK    1  A    between atoms: C_2  and  C_10
REMARK    2  A    between atoms: C_2  and  C_16
REMARK    3  A    between atoms: C_21  and  C_24
REMARK                            x       y       z     vdW  Elec       q    Type
REMARK                         _______ _______ _______ _____ _____    ______ ____
ROOT
ATOM      1  N   UNL     1      35.661 -19.374 -24.717  0.00  0.00    +0.384 N 
ATOM      2  C   UNL     1      34.451 -18.176 -22.224  0.00  0.00    +0.034 C 
ATOM      3  C   UNL     1      33.660 -18.605 -23.509  0.00  0.00    -0.015 C 
ATOM      4  C   UNL     1      35.905 -17.890 -22.743  0.00  0.00    -0.015 C 
ATOM      5  C   UNL     1      34.323 -19.752 -24.275  0.00  0.00    -0.081 C 
ATOM      6  C   UNL     1      36.509 -19.021 -23.585  0.00  0.00    -0.081 C 
ATOM      7  H   UNL     1      35.590 -18.572 -25.344  0.00  0.00    -0.085 HD
ATOM      8  H   UNL     1      36.080 -20.171 -25.199  0.00  0.00    -0.085 HD
ENDROOT
BRANCH   2  10
ATOM      9 CL   UNL     1      32.315 -13.057 -19.778  0.00  0.00    -0.082 Cl
ATOM     10  C   UNL     1      33.904 -16.863 -21.598  0.00  0.00    -0.019 C 
ATOM     11  C   UNL     1      34.716 -15.733 -21.533  0.00  0.00    -0.003 C 
ATOM     12  C   UNL     1      32.601 -16.821 -21.102  0.00  0.00    -0.003 C 
ATOM     13  C   UNL     1      34.224 -14.555 -20.970  0.00  0.00    +0.011 C 
ATOM     14  C   UNL     1      32.110 -15.643 -20.541  0.00  0.00    +0.011 C 
ATOM     15  C   UNL     1      32.921 -14.509 -20.473  0.00  0.00    +0.058 C 
ENDBRANCH   2  10
BRANCH   2  16
ATOM     16  C   UNL     1      34.354 -19.288 -21.147  0.00  0.00    -0.019 C 
ATOM     17  C   UNL     1      33.105 -19.733 -20.718  0.00  0.00    -0.004 C 
ATOM     18  C   UNL     1      35.517 -19.838 -20.610  0.00  0.00    -0.004 C 
ATOM     19  C   UNL     1      33.018 -20.734 -19.750  0.00  0.00    -0.000 C 
ATOM     20  C   UNL     1      35.429 -20.837 -19.641  0.00  0.00    -0.000 C 
ATOM     21  C   UNL     1      34.180 -21.285 -19.211  0.00  0.00    +0.003 C 
BRANCH  21  24
ATOM     22  N   UNL     1      33.279 -23.879 -16.933  0.00  0.00    -0.235 N 
ATOM     23  N   UNL     1      34.566 -23.801 -16.552  0.00  0.00    -0.180 NA
ATOM     24  C   UNL     1      34.091 -22.313 -18.213  0.00  0.00    +0.037 C 
ATOM     25  C   UNL     1      32.944 -23.007 -17.927  0.00  0.00    +0.081 C 
ATOM     26  C   UNL     1      35.057 -22.840 -17.340  0.00  0.00    +0.119 C 
ATOM     27  H   UNL     1      32.638 -24.508 -16.531  0.00  0.00    +0.174 HD
ENDBRANCH  21  24
ENDBRANCH   2  16
TORSDOF 3
ENDMDL
