MODEL 1
REMARK VINA RESULT:      -8.3      0.000      0.000
REMARK  Name = 6610318
REMARK  10 active torsions:
REMARK  status: ('A' for Active; 'I' for Inactive)
REMARK    1  A    between atoms: C_1  and  C_8
REMARK    2  A    between atoms: C_1  and  N_14
REMARK    3  A    between atoms: C_1  and  C_27
REMARK    4  A    between atoms: C_4  and  C_10
REMARK    5  A    between atoms: C_10  and  O_11
REMARK    6  A    between atoms: C_15  and  C_18
REMARK    7  A    between atoms: C_19  and  C_22
REMARK    8  A    between atoms: N_21  and  C_24
REMARK    9  A    between atoms: C_24  and  C_25
REMARK   10  A    between atoms: C_27  and  C_29
REMARK                            x       y       z     vdW  Elec       q    Type
REMARK                         _______ _______ _______ _____ _____    ______ ____
ROOT
ATOM      1  C   UNL     1      34.858 -23.291 -15.414  0.00  0.00    +0.149 C 
ENDROOT
BRANCH   1   8
ATOM      2  O   UNL     1      36.065 -25.313 -15.761  0.00  0.00    -0.273 OA
ATOM      3  N   UNL     1      36.586 -24.083 -13.871  0.00  0.00    -0.270 N 
ATOM      4  C   UNL     1      37.723 -24.893 -13.453  0.00  0.00    +0.175 C 
ATOM      5  C   UNL     1      38.447 -24.039 -12.419  0.00  0.00    +0.033 C 
ATOM      6  C   UNL     1      36.410 -22.929 -12.993  0.00  0.00    +0.094 C 
ATOM      7  C   UNL     1      37.331 -23.194 -11.811  0.00  0.00    +0.024 C 
ATOM      8  C   UNL     1      35.890 -24.326 -15.044  0.00  0.00    +0.244 C 
BRANCH   4  10
ATOM      9  O   UNL     1      36.620 -26.202 -11.758  0.00  0.00    -0.248 OA
ATOM     10  C   UNL     1      37.172 -26.151 -12.849  0.00  0.00    +0.335 C 
BRANCH  10  11
ATOM     11  O   UNL     1      37.388 -27.196 -13.698  0.00  0.00    -0.443 OA
ATOM     12  C   UNL     1      38.432 -27.001 -14.658  0.00  0.00    +0.256 C 
ENDBRANCH  10  11
ENDBRANCH   4  10
ENDBRANCH   1   8
BRANCH   1  14
ATOM     13  O   UNL     1      37.161 -21.704 -16.212  0.00  0.00    -0.272 OA
ATOM     14  N   UNL     1      35.197 -22.843 -16.733  0.00  0.00    -0.296 N 
ATOM     15  C   UNL     1      36.324 -22.086 -17.021  0.00  0.00    +0.253 C 
ATOM     16  H   UNL     1      34.599 -23.087 -17.476  0.00  0.00    +0.150 HD
BRANCH  15  18
ATOM     17  O   UNL     1      35.536 -22.399 -19.311  0.00  0.00    -0.335 OA
ATOM     18  C   UNL     1      36.480 -21.734 -18.463  0.00  0.00    +0.227 C 
ATOM     19  C   UNL     1      35.392 -20.980 -19.172  0.00  0.00    +0.227 C 
BRANCH  19  22
ATOM     20  O   UNL     1      36.844 -19.885 -20.629  0.00  0.00    -0.272 OA
ATOM     21  N   UNL     1      34.596 -20.036 -21.218  0.00  0.00    -0.302 N 
ATOM     22  C   UNL     1      35.694 -20.246 -20.407  0.00  0.00    +0.253 C 
ATOM     23  H   UNL     1      33.722 -20.380 -20.924  0.00  0.00    +0.150 HD
BRANCH  21  24
ATOM     24  C   UNL     1      34.668 -19.334 -22.480  0.00  0.00    +0.089 C 
BRANCH  24  25
ATOM     25  C   UNL     1      34.701 -17.821 -22.302  0.00  0.00    +0.021 C 
ATOM     26  C   UNL     1      35.048 -17.086 -23.589  0.00  0.00    +0.002 C 
ENDBRANCH  24  25
ENDBRANCH  21  24
ENDBRANCH  19  22
ENDBRANCH  15  18
ENDBRANCH   1  14
BRANCH   1  27
ATOM     27  C   UNL     1      33.428 -23.843 -15.279  0.00  0.00    +0.027 C 
ATOM     28  C   UNL     1      32.871 -23.491 -13.894  0.00  0.00    +0.002 C 
BRANCH  27  29
ATOM     29  C   UNL     1      32.489 -23.360 -16.407  0.00  0.00    +0.002 C 
ATOM     30  C   UNL     1      31.074 -23.057 -15.931  0.00  0.00    +0.000 C 
ENDBRANCH  27  29
ENDBRANCH   1  27
TORSDOF 10
ENDMDL
MODEL 2
REMARK VINA RESULT:      -7.8      3.052      5.954
REMARK  Name = 6610318
REMARK  10 active torsions:
REMARK  status: ('A' for Active; 'I' for Inactive)
REMARK    1  A    between atoms: C_1  and  C_8
REMARK    2  A    between atoms: C_1  and  N_14
REMARK    3  A    between atoms: C_1  and  C_27
REMARK    4  A    between atoms: C_4  and  C_10
REMARK    5  A    between atoms: C_10  and  O_11
REMARK    6  A    between atoms: C_15  and  C_18
REMARK    7  A    between atoms: C_19  and  C_22
REMARK    8  A    between atoms: N_21  and  C_24
REMARK    9  A    between atoms: C_24  and  C_25
REMARK   10  A    between atoms: C_27  and  C_29
REMARK                            x       y       z     vdW  Elec       q    Type
REMARK                         _______ _______ _______ _____ _____    ______ ____
ROOT
ATOM      1  C   UNL     1      35.240 -23.340 -15.751  0.00  0.00    +0.149 C 
ENDROOT
BRANCH   1   8
ATOM      2  O   UNL     1      35.663 -22.799 -13.472  0.00  0.00    -0.273 OA
ATOM      3  N   UNL     1      36.437 -24.842 -14.234  0.00  0.00    -0.270 N 
ATOM      4  C   UNL     1      36.885 -25.344 -12.941  0.00  0.00    +0.175 C 
ATOM      5  C   UNL     1      37.097 -26.837 -13.156  0.00  0.00    +0.033 C 
ATOM      6  C   UNL     1      36.611 -25.849 -15.277  0.00  0.00    +0.094 C 
ATOM      7  C   UNL     1      37.463 -26.934 -14.635  0.00  0.00    +0.024 C 
ATOM      8  C   UNL     1      35.791 -23.625 -14.377  0.00  0.00    +0.244 C 
BRANCH   4  10
ATOM      9  O   UNL     1      39.106 -24.530 -13.393  0.00  0.00    -0.248 OA
ATOM     10  C   UNL     1      38.168 -24.640 -12.614  0.00  0.00    +0.335 C 
BRANCH  10  11
ATOM     11  O   UNL     1      38.114 -24.162 -11.338  0.00  0.00    -0.443 OA
ATOM     12  C   UNL     1      36.803 -23.850 -10.856  0.00  0.00    +0.256 C 
ENDBRANCH  10  11
ENDBRANCH   4  10
ENDBRANCH   1   8
BRANCH   1  14
ATOM     13  O   UNL     1      33.067 -23.776 -17.635  0.00  0.00    -0.272 OA
ATOM     14  N   UNL     1      33.849 -23.039 -15.568  0.00  0.00    -0.296 N 
ATOM     15  C   UNL     1      32.878 -23.284 -16.529  0.00  0.00    +0.253 C 
ATOM     16  H   UNL     1      33.568 -22.637 -14.714  0.00  0.00    +0.150 HD
BRANCH  15  18
ATOM     17  O   UNL     1      30.644 -22.600 -17.237  0.00  0.00    -0.335 OA
ATOM     18  C   UNL     1      31.496 -22.893 -16.123  0.00  0.00    +0.227 C 
ATOM     19  C   UNL     1      30.333 -23.775 -16.478  0.00  0.00    +0.227 C 
BRANCH  19  22
ATOM     20  O   UNL     1      28.745 -24.563 -14.967  0.00  0.00    -0.272 OA
ATOM     21  N   UNL     1      28.371 -22.503 -15.987  0.00  0.00    -0.302 N 
ATOM     22  C   UNL     1      29.075 -23.664 -15.731  0.00  0.00    +0.253 C 
ATOM     23  H   UNL     1      28.748 -21.856 -16.626  0.00  0.00    +0.150 HD
BRANCH  21  24
ATOM     24  C   UNL     1      27.105 -22.192 -15.360  0.00  0.00    +0.089 C 
BRANCH  24  25
ATOM     25  C   UNL     1      26.042 -21.779 -16.371  0.00  0.00    +0.021 C 
ATOM     26  C   UNL     1      26.583 -21.696 -17.791  0.00  0.00    +0.002 C 
ENDBRANCH  24  25
ENDBRANCH  21  24
ENDBRANCH  19  22
ENDBRANCH  15  18
ENDBRANCH   1  14
BRANCH   1  27
ATOM     27  C   UNL     1      36.039 -22.237 -16.465  0.00  0.00    +0.027 C 
ATOM     28  C   UNL     1      37.539 -22.460 -16.236  0.00  0.00    +0.002 C 
BRANCH  27  29
ATOM     29  C   UNL     1      35.705 -22.131 -17.970  0.00  0.00    +0.002 C 
ATOM     30  C   UNL     1      36.744 -21.354 -18.770  0.00  0.00    +0.000 C 
ENDBRANCH  27  29
ENDBRANCH   1  27
TORSDOF 10
ENDMDL
MODEL 3
REMARK VINA RESULT:      -7.6      7.478     12.610
REMARK  Name = 6610318
REMARK  10 active torsions:
REMARK  status: ('A' for Active; 'I' for Inactive)
REMARK    1  A    between atoms: C_1  and  C_8
REMARK    2  A    between atoms: C_1  and  N_14
REMARK    3  A    between atoms: C_1  and  C_27
REMARK    4  A    between atoms: C_4  and  C_10
REMARK    5  A    between atoms: C_10  and  O_11
REMARK    6  A    between atoms: C_15  and  C_18
REMARK    7  A    between atoms: C_19  and  C_22
REMARK    8  A    between atoms: N_21  and  C_24
REMARK    9  A    between atoms: C_24  and  C_25
REMARK   10  A    between atoms: C_27  and  C_29
REMARK                            x       y       z     vdW  Elec       q    Type
REMARK                         _______ _______ _______ _____ _____    ______ ____
ROOT
ATOM      1  C   UNL     1      33.510 -14.463 -24.366  0.00  0.00    +0.149 C 
ENDROOT
BRANCH   1   8
ATOM      2  O   UNL     1      35.526 -15.664 -23.964  0.00  0.00    -0.273 OA
ATOM      3  N   UNL     1      33.995 -15.560 -22.232  0.00  0.00    -0.270 N 
ATOM      4  C   UNL     1      34.837 -16.196 -21.227  0.00  0.00    +0.175 C 
ATOM      5  C   UNL     1      34.151 -15.895 -19.900  0.00  0.00    +0.033 C 
ATOM      6  C   UNL     1      32.725 -15.126 -21.656  0.00  0.00    +0.094 C 
ATOM      7  C   UNL     1      32.678 -15.775 -20.280  0.00  0.00    +0.024 C 
ATOM      8  C   UNL     1      34.446 -15.281 -23.512  0.00  0.00    +0.244 C 
BRANCH   4  10
ATOM      9  O   UNL     1      34.195 -18.188 -22.419  0.00  0.00    -0.248 OA
ATOM     10  C   UNL     1      34.850 -17.665 -21.527  0.00  0.00    +0.335 C 
BRANCH  10  11
ATOM     11  O   UNL     1      35.689 -18.300 -20.660  0.00  0.00    -0.443 OA
ATOM     12  C   UNL     1      35.714 -19.727 -20.764  0.00  0.00    +0.256 C 
ENDBRANCH  10  11
ENDBRANCH   4  10
ENDBRANCH   1   8
BRANCH   1  14
ATOM     13  O   UNL     1      31.988 -12.427 -22.953  0.00  0.00    -0.272 OA
ATOM     14  N   UNL     1      33.871 -13.091 -24.153  0.00  0.00    -0.296 N 
ATOM     15  C   UNL     1      33.077 -12.188 -23.461  0.00  0.00    +0.253 C 
ATOM     16  H   UNL     1      34.730 -12.774 -24.516  0.00  0.00    +0.150 HD
BRANCH  15  18
ATOM     17  O   UNL     1      34.162 -10.322 -24.604  0.00  0.00    -0.335 OA
ATOM     18  C   UNL     1      33.652 -10.813 -23.358  0.00  0.00    +0.227 C 
ATOM     19  C   UNL     1      32.997  -9.672 -24.082  0.00  0.00    +0.227 C 
BRANCH  19  22
ATOM     20  O   UNL     1      34.340  -7.779 -23.880  0.00  0.00    -0.272 OA
ATOM     21  N   UNL     1      32.180  -7.697 -23.011  0.00  0.00    -0.302 N 
ATOM     22  C   UNL     1      33.250  -8.292 -23.653  0.00  0.00    +0.253 C 
ATOM     23  H   UNL     1      31.355  -8.221 -22.891  0.00  0.00    +0.150 HD
BRANCH  21  24
ATOM     24  C   UNL     1      32.215  -6.343 -22.506  0.00  0.00    +0.089 C 
BRANCH  24  25
ATOM     25  C   UNL     1      31.959  -6.276 -21.005  0.00  0.00    +0.021 C 
ATOM     26  C   UNL     1      32.588  -7.438 -20.249  0.00  0.00    +0.002 C 
ENDBRANCH  24  25
ENDBRANCH  21  24
ENDBRANCH  19  22
ENDBRANCH  15  18
ENDBRANCH   1  14
BRANCH   1  27
ATOM     27  C   UNL     1      33.552 -14.909 -25.838  0.00  0.00    +0.027 C 
ATOM     28  C   UNL     1      33.146 -16.384 -25.940  0.00  0.00    +0.002 C 
BRANCH  27  29
ATOM     29  C   UNL     1      32.688 -14.018 -26.760  0.00  0.00    +0.002 C 
ATOM     30  C   UNL     1      33.474 -12.899 -27.433  0.00  0.00    +0.000 C 
ENDBRANCH  27  29
ENDBRANCH   1  27
TORSDOF 10
ENDMDL
MODEL 4
REMARK VINA RESULT:      -7.4      3.333      6.104
REMARK  Name = 6610318
REMARK  10 active torsions:
REMARK  status: ('A' for Active; 'I' for Inactive)
REMARK    1  A    between atoms: C_1  and  C_8
REMARK    2  A    between atoms: C_1  and  N_14
REMARK    3  A    between atoms: C_1  and  C_27
REMARK    4  A    between atoms: C_4  and  C_10
REMARK    5  A    between atoms: C_10  and  O_11
REMARK    6  A    between atoms: C_15  and  C_18
REMARK    7  A    between atoms: C_19  and  C_22
REMARK    8  A    between atoms: N_21  and  C_24
REMARK    9  A    between atoms: C_24  and  C_25
REMARK   10  A    between atoms: C_27  and  C_29
REMARK                            x       y       z     vdW  Elec       q    Type
REMARK                         _______ _______ _______ _____ _____    ______ ____
ROOT
ATOM      1  C   UNL     1      32.748 -23.546 -16.463  0.00  0.00    +0.149 C 
ENDROOT
BRANCH   1   8
ATOM      2  O   UNL     1      31.280 -22.022 -17.554  0.00  0.00    -0.273 OA
ATOM      3  N   UNL     1      30.311 -23.756 -16.367  0.00  0.00    -0.270 N 
ATOM      4  C   UNL     1      28.938 -23.493 -16.778  0.00  0.00    +0.175 C 
ATOM      5  C   UNL     1      28.172 -24.754 -16.399  0.00  0.00    +0.033 C 
ATOM      6  C   UNL     1      30.391 -24.954 -15.536  0.00  0.00    +0.094 C 
ATOM      7  C   UNL     1      28.946 -25.293 -15.199  0.00  0.00    +0.024 C 
ATOM      8  C   UNL     1      31.387 -23.031 -16.854  0.00  0.00    +0.244 C 
BRANCH   4  10
ATOM      9  O   UNL     1      28.872 -22.002 -14.888  0.00  0.00    -0.248 OA
ATOM     10  C   UNL     1      28.465 -22.299 -16.004  0.00  0.00    +0.335 C 
BRANCH  10  11
ATOM     11  O   UNL     1      27.532 -21.624 -16.733  0.00  0.00    -0.443 OA
ATOM     12  C   UNL     1      26.180 -21.771 -16.287  0.00  0.00    +0.256 C 
ENDBRANCH  10  11
ENDBRANCH   4  10
ENDBRANCH   1   8
BRANCH   1  14
ATOM     13  O   UNL     1      33.882 -23.845 -19.125  0.00  0.00    -0.272 OA
ATOM     14  N   UNL     1      33.700 -22.689 -17.110  0.00  0.00    -0.296 N 
ATOM     15  C   UNL     1      34.186 -22.912 -18.390  0.00  0.00    +0.253 C 
ATOM     16  H   UNL     1      34.024 -21.900 -16.619  0.00  0.00    +0.150 HD
BRANCH  15  18
ATOM     17  O   UNL     1      35.785 -22.239 -20.109  0.00  0.00    -0.335 OA
ATOM     18  C   UNL     1      35.167 -21.891 -18.865  0.00  0.00    +0.227 C 
ATOM     19  C   UNL     1      34.894 -21.117 -20.122  0.00  0.00    +0.227 C 
BRANCH  19  22
ATOM     20  O   UNL     1      36.764 -19.730 -20.077  0.00  0.00    -0.272 OA
ATOM     21  N   UNL     1      34.767 -18.861 -20.901  0.00  0.00    -0.302 N 
ATOM     22  C   UNL     1      35.577 -19.841 -20.360  0.00  0.00    +0.253 C 
ATOM     23  H   UNL     1      33.824 -19.080 -21.083  0.00  0.00    +0.150 HD
BRANCH  21  24
ATOM     24  C   UNL     1      35.236 -17.530 -21.213  0.00  0.00    +0.089 C 
BRANCH  24  25
ATOM     25  C   UNL     1      34.106 -16.509 -21.247  0.00  0.00    +0.021 C 
ATOM     26  C   UNL     1      34.444 -15.232 -20.490  0.00  0.00    +0.002 C 
ENDBRANCH  24  25
ENDBRANCH  21  24
ENDBRANCH  19  22
ENDBRANCH  15  18
ENDBRANCH   1  14
BRANCH   1  27
ATOM     27  C   UNL     1      32.906 -23.629 -14.935  0.00  0.00    +0.027 C 
ATOM     28  C   UNL     1      34.395 -23.703 -14.575  0.00  0.00    +0.002 C 
BRANCH  27  29
ATOM     29  C   UNL     1      32.201 -22.470 -14.195  0.00  0.00    +0.002 C 
ATOM     30  C   UNL     1      31.478 -22.909 -12.928  0.00  0.00    +0.000 C 
ENDBRANCH  27  29
ENDBRANCH   1  27
TORSDOF 10
ENDMDL
MODEL 5
REMARK VINA RESULT:      -7.3      7.056     14.444
REMARK  Name = 6610318
REMARK  10 active torsions:
REMARK  status: ('A' for Active; 'I' for Inactive)
REMARK    1  A    between atoms: C_1  and  C_8
REMARK    2  A    between atoms: C_1  and  N_14
REMARK    3  A    between atoms: C_1  and  C_27
REMARK    4  A    between atoms: C_4  and  C_10
REMARK    5  A    between atoms: C_10  and  O_11
REMARK    6  A    between atoms: C_15  and  C_18
REMARK    7  A    between atoms: C_19  and  C_22
REMARK    8  A    between atoms: N_21  and  C_24
REMARK    9  A    between atoms: C_24  and  C_25
REMARK   10  A    between atoms: C_27  and  C_29
REMARK                            x       y       z     vdW  Elec       q    Type
REMARK                         _______ _______ _______ _____ _____    ______ ____
ROOT
ATOM      1  C   UNL     1      33.643 -12.349 -23.835  0.00  0.00    +0.149 C 
ENDROOT
BRANCH   1   8
ATOM      2  O   UNL     1      31.992 -11.431 -22.387  0.00  0.00    -0.273 OA
ATOM      3  N   UNL     1      33.514  -9.959 -23.322  0.00  0.00    -0.270 N 
ATOM      4  C   UNL     1      33.088  -8.782 -22.576  0.00  0.00    +0.175 C 
ATOM      5  C   UNL     1      34.211  -7.771 -22.773  0.00  0.00    +0.033 C 
ATOM      6  C   UNL     1      34.667  -9.659 -24.167  0.00  0.00    +0.094 C 
ATOM      7  C   UNL     1      34.788  -8.142 -24.137  0.00  0.00    +0.024 C 
ATOM      8  C   UNL     1      32.968 -11.215 -23.108  0.00  0.00    +0.244 C 
BRANCH   4  10
ATOM      9  O   UNL     1      31.403  -8.655 -24.293  0.00  0.00    -0.248 OA
ATOM     10  C   UNL     1      31.802  -8.312 -23.188  0.00  0.00    +0.335 C 
BRANCH  10  11
ATOM     11  O   UNL     1      31.173  -7.461 -22.328  0.00  0.00    -0.443 OA
ATOM     12  C   UNL     1      30.967  -6.133 -22.821  0.00  0.00    +0.256 C 
ENDBRANCH  10  11
ENDBRANCH   4  10
ENDBRANCH   1   8
BRANCH   1  14
ATOM     13  O   UNL     1      35.254 -14.761 -24.053  0.00  0.00    -0.272 OA
ATOM     14  N   UNL     1      33.736 -13.428 -22.894  0.00  0.00    -0.296 N 
ATOM     15  C   UNL     1      34.537 -14.545 -23.083  0.00  0.00    +0.253 C 
ATOM     16  H   UNL     1      33.203 -13.372 -22.068  0.00  0.00    +0.150 HD
BRANCH  15  18
ATOM     17  O   UNL     1      33.249 -16.274 -21.937  0.00  0.00    -0.335 OA
ATOM     18  C   UNL     1      34.480 -15.541 -21.973  0.00  0.00    +0.227 C 
ATOM     19  C   UNL     1      34.429 -17.009 -22.285  0.00  0.00    +0.227 C 
BRANCH  19  22
ATOM     20  O   UNL     1      35.655 -17.682 -20.423  0.00  0.00    -0.272 OA
ATOM     21  N   UNL     1      34.172 -19.205 -21.376  0.00  0.00    -0.302 N 
ATOM     22  C   UNL     1      34.820 -17.989 -21.266  0.00  0.00    +0.253 C 
ATOM     23  H   UNL     1      33.519 -19.323 -22.102  0.00  0.00    +0.150 HD
BRANCH  21  24
ATOM     24  C   UNL     1      34.409 -20.311 -20.476  0.00  0.00    +0.089 C 
BRANCH  24  25
ATOM     25  C   UNL     1      33.132 -20.794 -19.800  0.00  0.00    +0.021 C 
ATOM     26  C   UNL     1      33.356 -22.022 -18.930  0.00  0.00    +0.002 C 
ENDBRANCH  24  25
ENDBRANCH  21  24
ENDBRANCH  19  22
ENDBRANCH  15  18
ENDBRANCH   1  14
BRANCH   1  27
ATOM     27  C   UNL     1      32.905 -12.706 -25.137  0.00  0.00    +0.027 C 
ATOM     28  C   UNL     1      33.758 -12.286 -26.341  0.00  0.00    +0.002 C 
BRANCH  27  29
ATOM     29  C   UNL     1      32.511 -14.198 -25.215  0.00  0.00    +0.002 C 
ATOM     30  C   UNL     1      32.845 -14.846 -26.554  0.00  0.00    +0.000 C 
ENDBRANCH  27  29
ENDBRANCH   1  27
TORSDOF 10
ENDMDL
MODEL 6
REMARK VINA RESULT:      -7.3      3.049      5.380
REMARK  Name = 6610318
REMARK  10 active torsions:
REMARK  status: ('A' for Active; 'I' for Inactive)
REMARK    1  A    between atoms: C_1  and  C_8
REMARK    2  A    between atoms: C_1  and  N_14
REMARK    3  A    between atoms: C_1  and  C_27
REMARK    4  A    between atoms: C_4  and  C_10
REMARK    5  A    between atoms: C_10  and  O_11
REMARK    6  A    between atoms: C_15  and  C_18
REMARK    7  A    between atoms: C_19  and  C_22
REMARK    8  A    between atoms: N_21  and  C_24
REMARK    9  A    between atoms: C_24  and  C_25
REMARK   10  A    between atoms: C_27  and  C_29
REMARK                            x       y       z     vdW  Elec       q    Type
REMARK                         _______ _______ _______ _____ _____    ______ ____
ROOT
ATOM      1  C   UNL     1      33.592 -23.660 -16.720  0.00  0.00    +0.149 C 
ENDROOT
BRANCH   1   8
ATOM      2  O   UNL     1      31.726 -22.401 -17.494  0.00  0.00    -0.273 OA
ATOM      3  N   UNL     1      31.333 -23.954 -15.823  0.00  0.00    -0.270 N 
ATOM      4  C   UNL     1      29.882 -23.821 -15.810  0.00  0.00    +0.175 C 
ATOM      5  C   UNL     1      29.389 -25.032 -15.028  0.00  0.00    +0.033 C 
ATOM      6  C   UNL     1      31.775 -24.993 -14.898  0.00  0.00    +0.094 C 
ATOM      7  C   UNL     1      30.541 -25.332 -14.073  0.00  0.00    +0.024 C 
ATOM      8  C   UNL     1      32.135 -23.275 -16.727  0.00  0.00    +0.244 C 
BRANCH   4  10
ATOM      9  O   UNL     1      30.272 -22.031 -14.246  0.00  0.00    -0.248 OA
ATOM     10  C   UNL     1      29.562 -22.536 -15.106  0.00  0.00    +0.335 C 
BRANCH  10  11
ATOM     11  O   UNL     1      28.380 -22.043 -15.573  0.00  0.00    -0.443 OA
ATOM     12  C   UNL     1      28.018 -22.463 -16.892  0.00  0.00    +0.256 C 
ENDBRANCH  10  11
ENDBRANCH   4  10
ENDBRANCH   1   8
BRANCH   1  14
ATOM     13  O   UNL     1      34.195 -23.486 -19.560  0.00  0.00    -0.272 OA
ATOM     14  N   UNL     1      34.287 -22.608 -17.404  0.00  0.00    -0.296 N 
ATOM     15  C   UNL     1      34.529 -22.611 -18.770  0.00  0.00    +0.253 C 
ATOM     16  H   UNL     1      34.608 -21.842 -16.875  0.00  0.00    +0.150 HD
BRANCH  15  18
ATOM     17  O   UNL     1      36.094 -21.692 -20.405  0.00  0.00    -0.335 OA
ATOM     18  C   UNL     1      35.267 -21.412 -19.269  0.00  0.00    +0.227 C 
ATOM     19  C   UNL     1      34.955 -20.851 -20.626  0.00  0.00    +0.227 C 
BRANCH  19  22
ATOM     20  O   UNL     1      36.349 -18.990 -20.493  0.00  0.00    -0.272 OA
ATOM     21  N   UNL     1      34.405 -18.822 -21.763  0.00  0.00    -0.302 N 
ATOM     22  C   UNL     1      35.315 -19.465 -20.946  0.00  0.00    +0.253 C 
ATOM     23  H   UNL     1      33.609 -19.319 -22.061  0.00  0.00    +0.150 HD
BRANCH  21  24
ATOM     24  C   UNL     1      34.564 -17.453 -22.199  0.00  0.00    +0.089 C 
BRANCH  24  25
ATOM     25  C   UNL     1      34.963 -17.353 -23.666  0.00  0.00    +0.021 C 
ATOM     26  C   UNL     1      34.632 -18.614 -24.452  0.00  0.00    +0.002 C 
ENDBRANCH  24  25
ENDBRANCH  21  24
ENDBRANCH  19  22
ENDBRANCH  15  18
ENDBRANCH   1  14
BRANCH   1  27
ATOM     27  C   UNL     1      34.099 -23.932 -15.293  0.00  0.00    +0.027 C 
ATOM     28  C   UNL     1      35.010 -25.166 -15.298  0.00  0.00    +0.002 C 
BRANCH  27  29
ATOM     29  C   UNL     1      34.805 -22.709 -14.663  0.00  0.00    +0.002 C 
ATOM     30  C   UNL     1      36.191 -23.024 -14.115  0.00  0.00    +0.000 C 
ENDBRANCH  27  29
ENDBRANCH   1  27
TORSDOF 10
ENDMDL
MODEL 7
REMARK VINA RESULT:      -7.2      4.745      9.135
REMARK  Name = 6610318
REMARK  10 active torsions:
REMARK  status: ('A' for Active; 'I' for Inactive)
REMARK    1  A    between atoms: C_1  and  C_8
REMARK    2  A    between atoms: C_1  and  N_14
REMARK    3  A    between atoms: C_1  and  C_27
REMARK    4  A    between atoms: C_4  and  C_10
REMARK    5  A    between atoms: C_10  and  O_11
REMARK    6  A    between atoms: C_15  and  C_18
REMARK    7  A    between atoms: C_19  and  C_22
REMARK    8  A    between atoms: N_21  and  C_24
REMARK    9  A    between atoms: C_24  and  C_25
REMARK   10  A    between atoms: C_27  and  C_29
REMARK                            x       y       z     vdW  Elec       q    Type
REMARK                         _______ _______ _______ _____ _____    ______ ____
ROOT
ATOM      1  C   UNL     1      34.280 -17.868 -22.228  0.00  0.00    +0.149 C 
ENDROOT
BRANCH   1   8
ATOM      2  O   UNL     1      35.971 -18.233 -20.592  0.00  0.00    -0.273 OA
ATOM      3  N   UNL     1      34.202 -19.725 -20.635  0.00  0.00    -0.270 N 
ATOM      4  C   UNL     1      34.575 -20.461 -19.434  0.00  0.00    +0.175 C 
ATOM      5  C   UNL     1      33.333 -21.265 -19.070  0.00  0.00    +0.033 C 
ATOM      6  C   UNL     1      32.936 -20.211 -21.178  0.00  0.00    +0.094 C 
ATOM      7  C   UNL     1      32.653 -21.498 -20.416  0.00  0.00    +0.024 C 
ATOM      8  C   UNL     1      34.903 -18.614 -21.076  0.00  0.00    +0.244 C 
BRANCH   4  10
ATOM      9  O   UNL     1      36.313 -21.304 -20.874  0.00  0.00    -0.248 OA
ATOM     10  C   UNL     1      35.726 -21.351 -19.801  0.00  0.00    +0.335 C 
BRANCH  10  11
ATOM     11  O   UNL     1      35.996 -22.196 -18.766  0.00  0.00    -0.443 OA
ATOM     12  C   UNL     1      36.784 -21.640 -17.709  0.00  0.00    +0.256 C 
ENDBRANCH  10  11
ENDBRANCH   4  10
ENDBRANCH   1   8
BRANCH   1  14
ATOM     13  O   UNL     1      31.977 -16.708 -20.884  0.00  0.00    -0.272 OA
ATOM     14  N   UNL     1      34.117 -16.514 -21.785  0.00  0.00    -0.296 N 
ATOM     15  C   UNL     1      32.975 -16.048 -21.148  0.00  0.00    +0.253 C 
ATOM     16  H   UNL     1      34.854 -15.881 -21.941  0.00  0.00    +0.150 HD
BRANCH  15  18
ATOM     17  O   UNL     1      33.751 -13.802 -21.711  0.00  0.00    -0.335 OA
ATOM     18  C   UNL     1      33.024 -14.604 -20.772  0.00  0.00    +0.227 C 
ATOM     19  C   UNL     1      32.337 -13.583 -21.633  0.00  0.00    +0.227 C 
BRANCH  19  22
ATOM     20  O   UNL     1      31.799 -12.159 -19.870  0.00  0.00    -0.272 OA
ATOM     21  N   UNL     1      31.904 -11.264 -22.018  0.00  0.00    -0.302 N 
ATOM     22  C   UNL     1      31.987 -12.271 -21.076  0.00  0.00    +0.253 C 
ATOM     23  H   UNL     1      32.080 -11.487 -22.960  0.00  0.00    +0.150 HD
BRANCH  21  24
ATOM     24  C   UNL     1      31.571  -9.897 -21.686  0.00  0.00    +0.089 C 
BRANCH  24  25
ATOM     25  C   UNL     1      32.227  -8.894 -22.628  0.00  0.00    +0.021 C 
ATOM     26  C   UNL     1      31.212  -8.053 -23.389  0.00  0.00    +0.002 C 
ENDBRANCH  24  25
ENDBRANCH  21  24
ENDBRANCH  19  22
ENDBRANCH  15  18
ENDBRANCH   1  14
BRANCH   1  27
ATOM     27  C   UNL     1      35.111 -18.019 -23.515  0.00  0.00    +0.027 C 
ATOM     28  C   UNL     1      34.603 -19.225 -24.315  0.00  0.00    +0.002 C 
BRANCH  27  29
ATOM     29  C   UNL     1      35.126 -16.734 -24.374  0.00  0.00    +0.002 C 
ATOM     30  C   UNL     1      34.007 -16.682 -25.407  0.00  0.00    +0.000 C 
ENDBRANCH  27  29
ENDBRANCH   1  27
TORSDOF 10
ENDMDL
MODEL 8
REMARK VINA RESULT:      -7.2      2.282      4.722
REMARK  Name = 6610318
REMARK  10 active torsions:
REMARK  status: ('A' for Active; 'I' for Inactive)
REMARK    1  A    between atoms: C_1  and  C_8
REMARK    2  A    between atoms: C_1  and  N_14
REMARK    3  A    between atoms: C_1  and  C_27
REMARK    4  A    between atoms: C_4  and  C_10
REMARK    5  A    between atoms: C_10  and  O_11
REMARK    6  A    between atoms: C_15  and  C_18
REMARK    7  A    between atoms: C_19  and  C_22
REMARK    8  A    between atoms: N_21  and  C_24
REMARK    9  A    between atoms: C_24  and  C_25
REMARK   10  A    between atoms: C_27  and  C_29
REMARK                            x       y       z     vdW  Elec       q    Type
REMARK                         _______ _______ _______ _____ _____    ______ ____
ROOT
ATOM      1  C   UNL     1      34.725 -24.189 -15.566  0.00  0.00    +0.149 C 
ENDROOT
BRANCH   1   8
ATOM      2  O   UNL     1      33.999 -23.742 -13.344  0.00  0.00    -0.273 OA
ATOM      3  N   UNL     1      32.450 -23.455 -15.039  0.00  0.00    -0.270 N 
ATOM      4  C   UNL     1      31.399 -22.882 -14.209  0.00  0.00    +0.175 C 
ATOM      5  C   UNL     1      30.412 -22.274 -15.199  0.00  0.00    +0.033 C 
ATOM      6  C   UNL     1      32.057 -23.479 -16.445  0.00  0.00    +0.094 C 
ATOM      7  C   UNL     1      30.572 -23.146 -16.441  0.00  0.00    +0.024 C 
ATOM      8  C   UNL     1      33.703 -23.774 -14.540  0.00  0.00    +0.244 C 
BRANCH   4  10
ATOM      9  O   UNL     1      30.443 -23.925 -12.260  0.00  0.00    -0.248 OA
ATOM     10  C   UNL     1      30.785 -24.008 -13.432  0.00  0.00    +0.335 C 
BRANCH  10  11
ATOM     11  O   UNL     1      30.680 -25.109 -14.231  0.00  0.00    -0.443 OA
ATOM     12  C   UNL     1      29.350 -25.599 -14.428  0.00  0.00    +0.256 C 
ENDBRANCH  10  11
ENDBRANCH   4  10
ENDBRANCH   1   8
BRANCH   1  14
ATOM     13  O   UNL     1      34.227 -23.752 -18.398  0.00  0.00    -0.272 OA
ATOM     14  N   UNL     1      35.019 -23.015 -16.335  0.00  0.00    -0.296 N 
ATOM     15  C   UNL     1      34.743 -22.896 -17.690  0.00  0.00    +0.253 C 
ATOM     16  H   UNL     1      35.438 -22.251 -15.876  0.00  0.00    +0.150 HD
BRANCH  15  18
ATOM     17  O   UNL     1      36.550 -21.420 -18.413  0.00  0.00    -0.335 OA
ATOM     18  C   UNL     1      35.132 -21.583 -18.286  0.00  0.00    +0.227 C 
ATOM     19  C   UNL     1      35.801 -21.539 -19.629  0.00  0.00    +0.227 C 
BRANCH  19  22
ATOM     20  O   UNL     1      36.715 -19.514 -20.328  0.00  0.00    -0.272 OA
ATOM     21  N   UNL     1      34.658 -20.158 -21.210  0.00  0.00    -0.302 N 
ATOM     22  C   UNL     1      35.781 -20.302 -20.418  0.00  0.00    +0.253 C 
ATOM     23  H   UNL     1      33.977 -20.868 -21.191  0.00  0.00    +0.150 HD
BRANCH  21  24
ATOM     24  C   UNL     1      34.435 -19.014 -22.065  0.00  0.00    +0.089 C 
BRANCH  24  25
ATOM     25  C   UNL     1      34.956 -19.235 -23.480  0.00  0.00    +0.021 C 
ATOM     26  C   UNL     1      34.829 -17.996 -24.353  0.00  0.00    +0.002 C 
ENDBRANCH  24  25
ENDBRANCH  21  24
ENDBRANCH  19  22
ENDBRANCH  15  18
ENDBRANCH   1  14
BRANCH   1  27
ATOM     27  C   UNL     1      35.954 -24.842 -14.910  0.00  0.00    +0.027 C 
ATOM     28  C   UNL     1      36.126 -26.268 -15.446  0.00  0.00    +0.002 C 
BRANCH  27  29
ATOM     29  C   UNL     1      37.244 -24.010 -15.090  0.00  0.00    +0.002 C 
ATOM     30  C   UNL     1      38.513 -24.768 -14.720  0.00  0.00    +0.000 C 
ENDBRANCH  27  29
ENDBRANCH   1  27
TORSDOF 10
ENDMDL
MODEL 9
REMARK VINA RESULT:      -7.2      5.079     12.771
REMARK  Name = 6610318
REMARK  10 active torsions:
REMARK  status: ('A' for Active; 'I' for Inactive)
REMARK    1  A    between atoms: C_1  and  C_8
REMARK    2  A    between atoms: C_1  and  N_14
REMARK    3  A    between atoms: C_1  and  C_27
REMARK    4  A    between atoms: C_4  and  C_10
REMARK    5  A    between atoms: C_10  and  O_11
REMARK    6  A    between atoms: C_15  and  C_18
REMARK    7  A    between atoms: C_19  and  C_22
REMARK    8  A    between atoms: N_21  and  C_24
REMARK    9  A    between atoms: C_24  and  C_25
REMARK   10  A    between atoms: C_27  and  C_29
REMARK                            x       y       z     vdW  Elec       q    Type
REMARK                         _______ _______ _______ _____ _____    ______ ____
ROOT
ATOM      1  C   UNL     1      33.050 -14.948 -22.685  0.00  0.00    +0.149 C 
ENDROOT
BRANCH   1   8
ATOM      2  O   UNL     1      34.832 -13.373 -22.776  0.00  0.00    -0.273 OA
ATOM      3  N   UNL     1      33.545 -13.623 -24.683  0.00  0.00    -0.270 N 
ATOM      4  C   UNL     1      34.354 -12.770 -25.543  0.00  0.00    +0.175 C 
ATOM      5  C   UNL     1      33.884 -13.089 -26.958  0.00  0.00    +0.033 C 
ATOM      6  C   UNL     1      32.449 -14.236 -25.429  0.00  0.00    +0.094 C 
ATOM      7  C   UNL     1      32.429 -13.505 -26.763  0.00  0.00    +0.024 C 
ATOM      8  C   UNL     1      33.899 -13.912 -23.375  0.00  0.00    +0.244 C 
BRANCH   4  10
ATOM      9  O   UNL     1      32.993 -10.979 -24.681  0.00  0.00    -0.248 OA
ATOM     10  C   UNL     1      34.055 -11.350 -25.165  0.00  0.00    +0.335 C 
BRANCH  10  11
ATOM     11  O   UNL     1      35.135 -10.566 -25.445  0.00  0.00    -0.443 OA
ATOM     12  C   UNL     1      35.247  -9.373 -24.663  0.00  0.00    +0.256 C 
ENDBRANCH  10  11
ENDBRANCH   4  10
ENDBRANCH   1   8
BRANCH   1  14
ATOM     13  O   UNL     1      34.371 -17.113 -24.109  0.00  0.00    -0.272 OA
ATOM     14  N   UNL     1      33.961 -15.919 -22.151  0.00  0.00    -0.296 N 
ATOM     15  C   UNL     1      34.546 -16.922 -22.911  0.00  0.00    +0.253 C 
ATOM     16  H   UNL     1      34.183 -15.871 -21.193  0.00  0.00    +0.150 HD
BRANCH  15  18
ATOM     17  O   UNL     1      35.647 -17.412 -20.787  0.00  0.00    -0.335 OA
ATOM     18  C   UNL     1      35.464 -17.819 -22.149  0.00  0.00    +0.227 C 
ATOM     19  C   UNL     1      34.934 -18.636 -21.006  0.00  0.00    +0.227 C 
BRANCH  19  22
ATOM     20  O   UNL     1      36.893 -19.827 -20.597  0.00  0.00    -0.272 OA
ATOM     21  N   UNL     1      34.859 -20.844 -20.095  0.00  0.00    -0.302 N 
ATOM     22  C   UNL     1      35.669 -19.821 -20.549  0.00  0.00    +0.253 C 
ATOM     23  H   UNL     1      33.884 -20.712 -20.108  0.00  0.00    +0.150 HD
BRANCH  21  24
ATOM     24  C   UNL     1      35.376 -22.101 -19.602  0.00  0.00    +0.089 C 
BRANCH  24  25
ATOM     25  C   UNL     1      35.462 -22.137 -18.081  0.00  0.00    +0.021 C 
ATOM     26  C   UNL     1      36.842 -21.763 -17.561  0.00  0.00    +0.002 C 
ENDBRANCH  24  25
ENDBRANCH  21  24
ENDBRANCH  19  22
ENDBRANCH  15  18
ENDBRANCH   1  14
BRANCH   1  27
ATOM     27  C   UNL     1      32.117 -14.312 -21.640  0.00  0.00    +0.027 C 
ATOM     28  C   UNL     1      32.617 -14.652 -20.230  0.00  0.00    +0.002 C 
BRANCH  27  29
ATOM     29  C   UNL     1      31.952 -12.787 -21.831  0.00  0.00    +0.002 C 
ATOM     30  C   UNL     1      31.689 -12.038 -20.530  0.00  0.00    +0.000 C 
ENDBRANCH  27  29
ENDBRANCH   1  27
TORSDOF 10
ENDMDL
