MODEL 1
REMARK VINA RESULT:      -7.9      0.000      0.000
REMARK  Name = 501640
REMARK  13 active torsions:
REMARK  status: ('A' for Active; 'I' for Inactive)
REMARK    1  A    between atoms: N_1  and  C_14
REMARK    2  A    between atoms: C_2  and  C_23
REMARK    3  A    between atoms: C_3  and  O_8
REMARK    4  A    between atoms: C_4  and  O_10
REMARK    5  A    between atoms: C_6  and  O_12
REMARK    6  A    between atoms: C_14  and  C_15
REMARK    7  A    between atoms: C_15  and  C_16
REMARK    8  A    between atoms: C_16  and  C_17
REMARK    9  A    between atoms: C_17  and  C_18
REMARK   10  A    between atoms: C_18  and  C_19
REMARK   11  A    between atoms: C_19  and  C_20
REMARK   12  A    between atoms: C_20  and  C_21
REMARK   13  A    between atoms: C_23  and  O_24
REMARK                            x       y       z     vdW  Elec       q    Type
REMARK                         _______ _______ _______ _____ _____    ______ ____
ROOT
ATOM      1  N   UNL     1      35.912 -22.998 -14.113  0.00  0.00    +0.393 N 
ATOM      2  C   UNL     1      35.142 -24.124 -13.536  0.00  0.00    +0.002 C 
ATOM      3  C   UNL     1      35.178 -24.074 -11.989  0.00  0.00    +0.123 C 
ATOM      4  C   UNL     1      36.605 -24.004 -11.441  0.00  0.00    +0.160 C 
ATOM      5  C   UNL     1      37.306 -23.017 -13.644  0.00  0.00    -0.045 C 
ATOM      6  C   UNL     1      37.391 -22.895 -12.127  0.00  0.00    +0.119 C 
ATOM      7  H   UNL     1      35.450 -22.147 -13.791  0.00  0.00    -0.079 HD
ENDROOT
BRANCH   3   8
ATOM      8  O   UNL     1      34.561 -25.259 -11.479  0.00  0.00    -0.384 OA
ATOM      9  H   UNL     1      33.937 -25.606 -12.134  0.00  0.00    +0.210 HD
ENDBRANCH   3   8
BRANCH   4  10
ATOM     10  O   UNL     1      36.563 -23.713 -10.044  0.00  0.00    -0.380 OA
ATOM     11  H   UNL     1      35.693 -23.352  -9.813  0.00  0.00    +0.211 HD
ENDBRANCH   4  10
BRANCH   6  12
ATOM     12  O   UNL     1      38.765 -22.987 -11.751  0.00  0.00    -0.384 OA
ATOM     13  H   UNL     1      38.946 -23.874 -11.402  0.00  0.00    +0.210 HD
ENDBRANCH   6  12
BRANCH   1  14
ATOM     14  C   UNL     1      35.901 -22.998 -15.579  0.00  0.00    -0.077 C 
BRANCH  14  15
ATOM     15  C   UNL     1      37.025 -22.140 -16.160  0.00  0.00    -0.023 C 
BRANCH  15  16
ATOM     16  C   UNL     1      36.818 -21.676 -17.607  0.00  0.00    -0.002 C 
BRANCH  16  17
ATOM     17  C   UNL     1      35.472 -22.102 -18.195  0.00  0.00    -0.000 C 
BRANCH  17  18
ATOM     18  C   UNL     1      35.157 -21.328 -19.478  0.00  0.00    -0.000 C 
BRANCH  18  19
ATOM     19  C   UNL     1      33.663 -21.377 -19.806  0.00  0.00    -0.000 C 
BRANCH  19  20
ATOM     20  C   UNL     1      33.203 -20.088 -20.491  0.00  0.00    +0.000 C 
BRANCH  20  21
ATOM     21  C   UNL     1      34.361 -19.224 -20.994  0.00  0.00    +0.000 C 
ATOM     22  C   UNL     1      34.548 -19.276 -22.502  0.00  0.00    +0.000 C 
ENDBRANCH  20  21
ENDBRANCH  19  20
ENDBRANCH  18  19
ENDBRANCH  17  18
ENDBRANCH  16  17
ENDBRANCH  15  16
ENDBRANCH  14  15
ENDBRANCH   1  14
BRANCH   2  23
ATOM     23  C   UNL     1      33.674 -24.122 -13.999  0.00  0.00    +0.119 C 
BRANCH  23  24
ATOM     24  O   UNL     1      32.925 -23.366 -13.073  0.00  0.00    -0.384 OA
ATOM     25  H   UNL     1      32.278 -22.821 -13.547  0.00  0.00    +0.210 HD
ENDBRANCH  23  24
ENDBRANCH   2  23
TORSDOF 13
ENDMDL
MODEL 2
REMARK VINA RESULT:      -7.7      2.570      3.647
REMARK  Name = 501640
REMARK  13 active torsions:
REMARK  status: ('A' for Active; 'I' for Inactive)
REMARK    1  A    between atoms: N_1  and  C_14
REMARK    2  A    between atoms: C_2  and  C_23
REMARK    3  A    between atoms: C_3  and  O_8
REMARK    4  A    between atoms: C_4  and  O_10
REMARK    5  A    between atoms: C_6  and  O_12
REMARK    6  A    between atoms: C_14  and  C_15
REMARK    7  A    between atoms: C_15  and  C_16
REMARK    8  A    between atoms: C_16  and  C_17
REMARK    9  A    between atoms: C_17  and  C_18
REMARK   10  A    between atoms: C_18  and  C_19
REMARK   11  A    between atoms: C_19  and  C_20
REMARK   12  A    between atoms: C_20  and  C_21
REMARK   13  A    between atoms: C_23  and  O_24
REMARK                            x       y       z     vdW  Elec       q    Type
REMARK                         _______ _______ _______ _____ _____    ______ ____
ROOT
ATOM      1  N   UNL     1      35.290 -24.707 -14.027  0.00  0.00    +0.393 N 
ATOM      2  C   UNL     1      35.856 -25.189 -12.747  0.00  0.00    +0.002 C 
ATOM      3  C   UNL     1      37.336 -25.609 -12.928  0.00  0.00    +0.123 C 
ATOM      4  C   UNL     1      37.520 -26.618 -14.062  0.00  0.00    +0.160 C 
ATOM      5  C   UNL     1      35.393 -25.737 -15.071  0.00  0.00    -0.045 C 
ATOM      6  C   UNL     1      36.843 -26.128 -15.335  0.00  0.00    +0.119 C 
ATOM      7  H   UNL     1      35.843 -23.891 -14.290  0.00  0.00    -0.079 HD
ENDROOT
BRANCH   3   8
ATOM      8  O   UNL     1      37.791 -26.212 -11.714  0.00  0.00    -0.384 OA
ATOM      9  H   UNL     1      38.123 -27.104 -11.901  0.00  0.00    +0.210 HD
ENDBRANCH   3   8
BRANCH   4  10
ATOM     10  O   UNL     1      38.913 -26.773 -14.338  0.00  0.00    -0.380 OA
ATOM     11  H   UNL     1      39.374 -25.940 -14.157  0.00  0.00    +0.211 HD
ENDBRANCH   4  10
BRANCH   6  12
ATOM     12  O   UNL     1      36.850 -27.173 -16.307  0.00  0.00    -0.384 OA
ATOM     13  H   UNL     1      37.565 -27.798 -16.105  0.00  0.00    +0.210 HD
ENDBRANCH   6  12
BRANCH   1  14
ATOM     14  C   UNL     1      33.889 -24.290 -13.904  0.00  0.00    -0.077 C 
BRANCH  14  15
ATOM     15  C   UNL     1      33.539 -23.166 -14.881  0.00  0.00    -0.023 C 
BRANCH  15  16
ATOM     16  C   UNL     1      32.173 -23.293 -15.567  0.00  0.00    -0.002 C 
BRANCH  16  17
ATOM     17  C   UNL     1      32.242 -23.155 -17.089  0.00  0.00    -0.000 C 
BRANCH  17  18
ATOM     18  C   UNL     1      33.675 -22.895 -17.558  0.00  0.00    -0.000 C 
BRANCH  18  19
ATOM     19  C   UNL     1      33.710 -22.445 -19.020  0.00  0.00    -0.000 C 
BRANCH  19  20
ATOM     20  C   UNL     1      35.128 -22.057 -19.447  0.00  0.00    +0.000 C 
BRANCH  20  21
ATOM     21  C   UNL     1      35.204 -20.687 -20.124  0.00  0.00    +0.000 C 
ATOM     22  C   UNL     1      33.849 -20.142 -20.545  0.00  0.00    +0.000 C 
ENDBRANCH  20  21
ENDBRANCH  19  20
ENDBRANCH  18  19
ENDBRANCH  17  18
ENDBRANCH  16  17
ENDBRANCH  15  16
ENDBRANCH  14  15
ENDBRANCH   1  14
BRANCH   2  23
ATOM     23  C   UNL     1      35.774 -24.125 -11.637  0.00  0.00    +0.119 C 
BRANCH  23  24
ATOM     24  O   UNL     1      35.434 -24.777 -10.433  0.00  0.00    -0.384 OA
ATOM     25  H   UNL     1      34.930 -24.170  -9.868  0.00  0.00    +0.210 HD
ENDBRANCH  23  24
ENDBRANCH   2  23
TORSDOF 13
ENDMDL
MODEL 3
REMARK VINA RESULT:      -7.5      3.874      5.606
REMARK  Name = 501640
REMARK  13 active torsions:
REMARK  status: ('A' for Active; 'I' for Inactive)
REMARK    1  A    between atoms: N_1  and  C_14
REMARK    2  A    between atoms: C_2  and  C_23
REMARK    3  A    between atoms: C_3  and  O_8
REMARK    4  A    between atoms: C_4  and  O_10
REMARK    5  A    between atoms: C_6  and  O_12
REMARK    6  A    between atoms: C_14  and  C_15
REMARK    7  A    between atoms: C_15  and  C_16
REMARK    8  A    between atoms: C_16  and  C_17
REMARK    9  A    between atoms: C_17  and  C_18
REMARK   10  A    between atoms: C_18  and  C_19
REMARK   11  A    between atoms: C_19  and  C_20
REMARK   12  A    between atoms: C_20  and  C_21
REMARK   13  A    between atoms: C_23  and  O_24
REMARK                            x       y       z     vdW  Elec       q    Type
REMARK                         _______ _______ _______ _____ _____    ______ ____
ROOT
ATOM      1  N   UNL     1      35.637 -24.391 -14.061  0.00  0.00    +0.393 N 
ATOM      2  C   UNL     1      36.238 -24.837 -12.784  0.00  0.00    +0.002 C 
ATOM      3  C   UNL     1      37.648 -25.431 -13.022  0.00  0.00    +0.123 C 
ATOM      4  C   UNL     1      37.643 -26.536 -14.079  0.00  0.00    +0.160 C 
ATOM      5  C   UNL     1      35.555 -25.501 -15.022  0.00  0.00    -0.045 C 
ATOM      6  C   UNL     1      36.934 -26.070 -15.344  0.00  0.00    +0.119 C 
ATOM      7  H   UNL     1      36.254 -23.663 -14.424  0.00  0.00    -0.079 HD
ENDROOT
BRANCH   3   8
ATOM      8  O   UNL     1      38.122 -25.989 -11.794  0.00  0.00    -0.384 OA
ATOM      9  H   UNL     1      38.623 -26.799 -11.978  0.00  0.00    +0.210 HD
ENDBRANCH   3   8
BRANCH   4  10
ATOM     10  O   UNL     1      38.988 -26.866 -14.428  0.00  0.00    -0.380 OA
ATOM     11  H   UNL     1      39.150 -26.631 -15.354  0.00  0.00    +0.211 HD
ENDBRANCH   4  10
BRANCH   6  12
ATOM     12  O   UNL     1      36.761 -27.179 -16.225  0.00  0.00    -0.384 OA
ATOM     13  H   UNL     1      36.971 -28.001 -15.756  0.00  0.00    +0.210 HD
ENDBRANCH   6  12
BRANCH   1  14
ATOM     14  C   UNL     1      34.301 -23.812 -13.886  0.00  0.00    -0.077 C 
BRANCH  14  15
ATOM     15  C   UNL     1      33.761 -23.213 -15.186  0.00  0.00    -0.023 C 
BRANCH  15  16
ATOM     16  C   UNL     1      32.248 -23.346 -15.393  0.00  0.00    -0.002 C 
BRANCH  16  17
ATOM     17  C   UNL     1      31.426 -22.854 -14.201  0.00  0.00    -0.000 C 
BRANCH  17  18
ATOM     18  C   UNL     1      30.719 -24.016 -13.498  0.00  0.00    -0.000 C 
BRANCH  18  19
ATOM     19  C   UNL     1      30.375 -25.136 -14.483  0.00  0.00    -0.000 C 
BRANCH  19  20
ATOM     20  C   UNL     1      28.921 -25.036 -14.950  0.00  0.00    +0.000 C 
BRANCH  20  21
ATOM     21  C   UNL     1      28.756 -24.246 -16.251  0.00  0.00    +0.000 C 
ATOM     22  C   UNL     1      27.921 -22.985 -16.094  0.00  0.00    +0.000 C 
ENDBRANCH  20  21
ENDBRANCH  19  20
ENDBRANCH  18  19
ENDBRANCH  17  18
ENDBRANCH  16  17
ENDBRANCH  15  16
ENDBRANCH  14  15
ENDBRANCH   1  14
BRANCH   2  23
ATOM     23  C   UNL     1      36.348 -23.690 -11.762  0.00  0.00    +0.119 C 
BRANCH  23  24
ATOM     24  O   UNL     1      36.326 -24.255 -10.469  0.00  0.00    -0.384 OA
ATOM     25  H   UNL     1      35.991 -23.601  -9.836  0.00  0.00    +0.210 HD
ENDBRANCH  23  24
ENDBRANCH   2  23
TORSDOF 13
ENDMDL
MODEL 4
REMARK VINA RESULT:      -7.5      1.394      2.697
REMARK  Name = 501640
REMARK  13 active torsions:
REMARK  status: ('A' for Active; 'I' for Inactive)
REMARK    1  A    between atoms: N_1  and  C_14
REMARK    2  A    between atoms: C_2  and  C_23
REMARK    3  A    between atoms: C_3  and  O_8
REMARK    4  A    between atoms: C_4  and  O_10
REMARK    5  A    between atoms: C_6  and  O_12
REMARK    6  A    between atoms: C_14  and  C_15
REMARK    7  A    between atoms: C_15  and  C_16
REMARK    8  A    between atoms: C_16  and  C_17
REMARK    9  A    between atoms: C_17  and  C_18
REMARK   10  A    between atoms: C_18  and  C_19
REMARK   11  A    between atoms: C_19  and  C_20
REMARK   12  A    between atoms: C_20  and  C_21
REMARK   13  A    between atoms: C_23  and  O_24
REMARK                            x       y       z     vdW  Elec       q    Type
REMARK                         _______ _______ _______ _____ _____    ______ ____
ROOT
ATOM      1  N   UNL     1      36.641 -24.225 -14.490  0.00  0.00    +0.393 N 
ATOM      2  C   UNL     1      37.658 -24.228 -13.414  0.00  0.00    +0.002 C 
ATOM      3  C   UNL     1      37.091 -24.878 -12.128  0.00  0.00    +0.123 C 
ATOM      4  C   UNL     1      35.776 -24.235 -11.683  0.00  0.00    +0.160 C 
ATOM      5  C   UNL     1      35.426 -23.514 -14.066  0.00  0.00    -0.045 C 
ATOM      6  C   UNL     1      34.790 -24.166 -12.842  0.00  0.00    +0.119 C 
ATOM      7  H   UNL     1      36.423 -25.205 -14.674  0.00  0.00    -0.079 HD
ENDROOT
BRANCH   3   8
ATOM      8  O   UNL     1      38.046 -24.717 -11.076  0.00  0.00    -0.384 OA
ATOM      9  H   UNL     1      38.651 -23.993 -11.297  0.00  0.00    +0.210 HD
ENDBRANCH   3   8
BRANCH   4  10
ATOM     10  O   UNL     1      35.185 -25.029 -10.652  0.00  0.00    -0.380 OA
ATOM     11  H   UNL     1      34.621 -24.469 -10.096  0.00  0.00    +0.211 HD
ENDBRANCH   4  10
BRANCH   6  12
ATOM     12  O   UNL     1      33.662 -23.382 -12.457  0.00  0.00    -0.384 OA
ATOM     13  H   UNL     1      33.092 -23.235 -13.228  0.00  0.00    +0.210 HD
ENDBRANCH   6  12
BRANCH   1  14
ATOM     14  C   UNL     1      37.135 -23.626 -15.734  0.00  0.00    -0.077 C 
BRANCH  14  15
ATOM     15  C   UNL     1      36.888 -22.117 -15.780  0.00  0.00    -0.023 C 
BRANCH  15  16
ATOM     16  C   UNL     1      36.865 -21.497 -17.183  0.00  0.00    -0.002 C 
BRANCH  16  17
ATOM     17  C   UNL     1      35.774 -22.076 -18.085  0.00  0.00    -0.000 C 
BRANCH  17  18
ATOM     18  C   UNL     1      35.636 -21.267 -19.377  0.00  0.00    -0.000 C 
BRANCH  18  19
ATOM     19  C   UNL     1      34.184 -21.235 -19.862  0.00  0.00    -0.000 C 
BRANCH  19  20
ATOM     20  C   UNL     1      33.878 -19.933 -20.607  0.00  0.00    +0.000 C 
BRANCH  20  21
ATOM     21  C   UNL     1      35.068 -19.399 -21.407  0.00  0.00    +0.000 C 
ATOM     22  C   UNL     1      34.792 -19.276 -22.898  0.00  0.00    +0.000 C 
ENDBRANCH  20  21
ENDBRANCH  19  20
ENDBRANCH  18  19
ENDBRANCH  17  18
ENDBRANCH  16  17
ENDBRANCH  15  16
ENDBRANCH  14  15
ENDBRANCH   1  14
BRANCH   2  23
ATOM     23  C   UNL     1      38.938 -24.978 -13.827  0.00  0.00    +0.119 C 
BRANCH  23  24
ATOM     24  O   UNL     1      38.723 -26.356 -13.614  0.00  0.00    -0.384 OA
ATOM     25  H   UNL     1      38.368 -26.494 -12.722  0.00  0.00    +0.210 HD
ENDBRANCH  23  24
ENDBRANCH   2  23
TORSDOF 13
ENDMDL
MODEL 5
REMARK VINA RESULT:      -7.4      7.198     11.335
REMARK  Name = 501640
REMARK  13 active torsions:
REMARK  status: ('A' for Active; 'I' for Inactive)
REMARK    1  A    between atoms: N_1  and  C_14
REMARK    2  A    between atoms: C_2  and  C_23
REMARK    3  A    between atoms: C_3  and  O_8
REMARK    4  A    between atoms: C_4  and  O_10
REMARK    5  A    between atoms: C_6  and  O_12
REMARK    6  A    between atoms: C_14  and  C_15
REMARK    7  A    between atoms: C_15  and  C_16
REMARK    8  A    between atoms: C_16  and  C_17
REMARK    9  A    between atoms: C_17  and  C_18
REMARK   10  A    between atoms: C_18  and  C_19
REMARK   11  A    between atoms: C_19  and  C_20
REMARK   12  A    between atoms: C_20  and  C_21
REMARK   13  A    between atoms: C_23  and  O_24
REMARK                            x       y       z     vdW  Elec       q    Type
REMARK                         _______ _______ _______ _____ _____    ______ ____
ROOT
ATOM      1  N   UNL     1      34.520 -17.009 -23.360  0.00  0.00    +0.393 N 
ATOM      2  C   UNL     1      34.595 -15.787 -22.527  0.00  0.00    +0.002 C 
ATOM      3  C   UNL     1      33.513 -14.767 -22.959  0.00  0.00    +0.123 C 
ATOM      4  C   UNL     1      33.570 -14.455 -24.455  0.00  0.00    +0.160 C 
ATOM      5  C   UNL     1      34.678 -16.687 -24.786  0.00  0.00    -0.045 C 
ATOM      6  C   UNL     1      33.586 -15.740 -25.273  0.00  0.00    +0.119 C 
ATOM      7  H   UNL     1      33.595 -17.407 -23.194  0.00  0.00    -0.079 HD
ENDROOT
BRANCH   3   8
ATOM      8  O   UNL     1      33.722 -13.548 -22.240  0.00  0.00    -0.384 OA
ATOM      9  H   UNL     1      32.890 -13.270 -21.826  0.00  0.00    +0.210 HD
ENDBRANCH   3   8
BRANCH   4  10
ATOM     10  O   UNL     1      32.409 -13.712 -24.830  0.00  0.00    -0.380 OA
ATOM     11  H   UNL     1      31.717 -13.832 -24.161  0.00  0.00    +0.211 HD
ENDBRANCH   4  10
BRANCH   6  12
ATOM     12  O   UNL     1      33.848 -15.427 -26.640  0.00  0.00    -0.384 OA
ATOM     13  H   UNL     1      34.525 -16.029 -26.986  0.00  0.00    +0.210 HD
ENDBRANCH   6  12
BRANCH   1  14
ATOM     14  C   UNL     1      35.522 -18.011 -22.983  0.00  0.00    -0.077 C 
BRANCH  14  15
ATOM     15  C   UNL     1      34.891 -19.376 -22.704  0.00  0.00    -0.023 C 
BRANCH  15  16
ATOM     16  C   UNL     1      34.693 -19.719 -21.223  0.00  0.00    -0.002 C 
BRANCH  16  17
ATOM     17  C   UNL     1      33.222 -19.814 -20.812  0.00  0.00    -0.000 C 
BRANCH  17  18
ATOM     18  C   UNL     1      33.021 -20.852 -19.705  0.00  0.00    -0.000 C 
BRANCH  18  19
ATOM     19  C   UNL     1      34.301 -21.653 -19.453  0.00  0.00    -0.000 C 
BRANCH  19  20
ATOM     20  C   UNL     1      34.012 -22.919 -18.643  0.00  0.00    +0.000 C 
BRANCH  20  21
ATOM     21  C   UNL     1      32.805 -22.780 -17.713  0.00  0.00    +0.000 C 
ATOM     22  C   UNL     1      33.051 -23.325 -16.314  0.00  0.00    +0.000 C 
ENDBRANCH  20  21
ENDBRANCH  19  20
ENDBRANCH  18  19
ENDBRANCH  17  18
ENDBRANCH  16  17
ENDBRANCH  15  16
ENDBRANCH  14  15
ENDBRANCH   1  14
BRANCH   2  23
ATOM     23  C   UNL     1      34.420 -16.093 -21.029  0.00  0.00    +0.119 C 
BRANCH  23  24
ATOM     24  O   UNL     1      34.963 -15.015 -20.297  0.00  0.00    -0.384 OA
ATOM     25  H   UNL     1      34.961 -15.232 -19.352  0.00  0.00    +0.210 HD
ENDBRANCH  23  24
ENDBRANCH   2  23
TORSDOF 13
ENDMDL
MODEL 6
REMARK VINA RESULT:      -7.4      2.248      2.771
REMARK  Name = 501640
REMARK  13 active torsions:
REMARK  status: ('A' for Active; 'I' for Inactive)
REMARK    1  A    between atoms: N_1  and  C_14
REMARK    2  A    between atoms: C_2  and  C_23
REMARK    3  A    between atoms: C_3  and  O_8
REMARK    4  A    between atoms: C_4  and  O_10
REMARK    5  A    between atoms: C_6  and  O_12
REMARK    6  A    between atoms: C_14  and  C_15
REMARK    7  A    between atoms: C_15  and  C_16
REMARK    8  A    between atoms: C_16  and  C_17
REMARK    9  A    between atoms: C_17  and  C_18
REMARK   10  A    between atoms: C_18  and  C_19
REMARK   11  A    between atoms: C_19  and  C_20
REMARK   12  A    between atoms: C_20  and  C_21
REMARK   13  A    between atoms: C_23  and  O_24
REMARK                            x       y       z     vdW  Elec       q    Type
REMARK                         _______ _______ _______ _____ _____    ______ ____
ROOT
ATOM      1  N   UNL     1      35.820 -24.036 -14.441  0.00  0.00    +0.393 N 
ATOM      2  C   UNL     1      36.800 -25.122 -14.672  0.00  0.00    +0.002 C 
ATOM      3  C   UNL     1      37.446 -25.567 -13.337  0.00  0.00    +0.123 C 
ATOM      4  C   UNL     1      38.049 -24.395 -12.562  0.00  0.00    +0.160 C 
ATOM      5  C   UNL     1      36.454 -22.884 -13.783  0.00  0.00    -0.045 C 
ATOM      6  C   UNL     1      37.041 -23.262 -12.427  0.00  0.00    +0.119 C 
ATOM      7  H   UNL     1      35.102 -24.430 -13.832  0.00  0.00    -0.079 HD
ENDROOT
BRANCH   3   8
ATOM      8  O   UNL     1      38.492 -26.499 -13.624  0.00  0.00    -0.384 OA
ATOM      9  H   UNL     1      39.244 -26.333 -13.035  0.00  0.00    +0.210 HD
ENDBRANCH   3   8
BRANCH   4  10
ATOM     10  O   UNL     1      38.402 -24.826 -11.247  0.00  0.00    -0.380 OA
ATOM     11  H   UNL     1      37.993 -24.239 -10.592  0.00  0.00    +0.211 HD
ENDBRANCH   4  10
BRANCH   6  12
ATOM     12  O   UNL     1      37.691 -22.111 -11.889  0.00  0.00    -0.384 OA
ATOM     13  H   UNL     1      37.213 -21.808 -11.101  0.00  0.00    +0.210 HD
ENDBRANCH   6  12
BRANCH   1  14
ATOM     14  C   UNL     1      35.174 -23.585 -15.677  0.00  0.00    -0.077 C 
BRANCH  14  15
ATOM     15  C   UNL     1      33.657 -23.471 -15.523  0.00  0.00    -0.023 C 
BRANCH  15  16
ATOM     16  C   UNL     1      32.893 -23.080 -16.794  0.00  0.00    -0.002 C 
BRANCH  16  17
ATOM     17  C   UNL     1      33.671 -23.361 -18.081  0.00  0.00    -0.000 C 
BRANCH  17  18
ATOM     18  C   UNL     1      33.892 -22.078 -18.886  0.00  0.00    -0.000 C 
BRANCH  18  19
ATOM     19  C   UNL     1      35.376 -21.863 -19.194  0.00  0.00    -0.000 C 
BRANCH  19  20
ATOM     20  C   UNL     1      35.573 -20.732 -20.207  0.00  0.00    +0.000 C 
BRANCH  20  21
ATOM     21  C   UNL     1      34.259 -20.100 -20.672  0.00  0.00    +0.000 C 
ATOM     22  C   UNL     1      34.402 -19.256 -21.929  0.00  0.00    +0.000 C 
ENDBRANCH  20  21
ENDBRANCH  19  20
ENDBRANCH  18  19
ENDBRANCH  17  18
ENDBRANCH  16  17
ENDBRANCH  15  16
ENDBRANCH  14  15
ENDBRANCH   1  14
BRANCH   2  23
ATOM     23  C   UNL     1      36.160 -26.348 -15.348  0.00  0.00    +0.119 C 
BRANCH  23  24
ATOM     24  O   UNL     1      37.151 -26.984 -16.125  0.00  0.00    -0.384 OA
ATOM     25  H   UNL     1      36.921 -26.912 -17.065  0.00  0.00    +0.210 HD
ENDBRANCH  23  24
ENDBRANCH   2  23
TORSDOF 13
ENDMDL
MODEL 7
REMARK VINA RESULT:      -7.3      1.975      2.473
REMARK  Name = 501640
REMARK  13 active torsions:
REMARK  status: ('A' for Active; 'I' for Inactive)
REMARK    1  A    between atoms: N_1  and  C_14
REMARK    2  A    between atoms: C_2  and  C_23
REMARK    3  A    between atoms: C_3  and  O_8
REMARK    4  A    between atoms: C_4  and  O_10
REMARK    5  A    between atoms: C_6  and  O_12
REMARK    6  A    between atoms: C_14  and  C_15
REMARK    7  A    between atoms: C_15  and  C_16
REMARK    8  A    between atoms: C_16  and  C_17
REMARK    9  A    between atoms: C_17  and  C_18
REMARK   10  A    between atoms: C_18  and  C_19
REMARK   11  A    between atoms: C_19  and  C_20
REMARK   12  A    between atoms: C_20  and  C_21
REMARK   13  A    between atoms: C_23  and  O_24
REMARK                            x       y       z     vdW  Elec       q    Type
REMARK                         _______ _______ _______ _____ _____    ______ ____
ROOT
ATOM      1  N   UNL     1      36.664 -23.539 -14.365  0.00  0.00    +0.393 N 
ATOM      2  C   UNL     1      36.157 -24.592 -13.456  0.00  0.00    +0.002 C 
ATOM      3  C   UNL     1      37.331 -25.314 -12.750  0.00  0.00    +0.123 C 
ATOM      4  C   UNL     1      38.365 -25.850 -13.741  0.00  0.00    +0.160 C 
ATOM      5  C   UNL     1      37.580 -24.103 -15.368  0.00  0.00    -0.045 C 
ATOM      6  C   UNL     1      38.791 -24.762 -14.717  0.00  0.00    +0.119 C 
ATOM      7  H   UNL     1      37.164 -22.874 -13.775  0.00  0.00    -0.079 HD
ENDROOT
BRANCH   3   8
ATOM      8  O   UNL     1      36.807 -26.419 -12.009  0.00  0.00    -0.384 OA
ATOM      9  H   UNL     1      37.510 -26.806 -11.464  0.00  0.00    +0.210 HD
ENDBRANCH   3   8
BRANCH   4  10
ATOM     10  O   UNL     1      39.527 -26.279 -13.028  0.00  0.00    -0.380 OA
ATOM     11  H   UNL     1      39.324 -27.090 -12.536  0.00  0.00    +0.211 HD
ENDBRANCH   4  10
BRANCH   6  12
ATOM     12  O   UNL     1      39.590 -25.339 -15.749  0.00  0.00    -0.384 OA
ATOM     13  H   UNL     1      39.014 -25.719 -16.430  0.00  0.00    +0.210 HD
ENDBRANCH   6  12
BRANCH   1  14
ATOM     14  C   UNL     1      35.587 -22.819 -15.053  0.00  0.00    -0.077 C 
BRANCH  14  15
ATOM     15  C   UNL     1      34.810 -23.727 -16.008  0.00  0.00    -0.023 C 
BRANCH  15  16
ATOM     16  C   UNL     1      33.983 -23.003 -17.078  0.00  0.00    -0.002 C 
BRANCH  16  17
ATOM     17  C   UNL     1      34.833 -22.393 -18.193  0.00  0.00    -0.000 C 
BRANCH  17  18
ATOM     18  C   UNL     1      34.032 -22.258 -19.491  0.00  0.00    -0.000 C 
BRANCH  18  19
ATOM     19  C   UNL     1      32.982 -21.151 -19.385  0.00  0.00    -0.000 C 
BRANCH  19  20
ATOM     20  C   UNL     1      33.050 -20.206 -20.587  0.00  0.00    +0.000 C 
BRANCH  20  21
ATOM     21  C   UNL     1      34.481 -19.863 -21.007  0.00  0.00    +0.000 C 
ATOM     22  C   UNL     1      34.555 -18.894 -22.177  0.00  0.00    +0.000 C 
ENDBRANCH  20  21
ENDBRANCH  19  20
ENDBRANCH  18  19
ENDBRANCH  17  18
ENDBRANCH  16  17
ENDBRANCH  15  16
ENDBRANCH  14  15
ENDBRANCH   1  14
BRANCH   2  23
ATOM     23  C   UNL     1      35.205 -24.027 -12.386  0.00  0.00    +0.119 C 
BRANCH  23  24
ATOM     24  O   UNL     1      34.202 -24.988 -12.144  0.00  0.00    -0.384 OA
ATOM     25  H   UNL     1      34.212 -25.238 -11.207  0.00  0.00    +0.210 HD
ENDBRANCH  23  24
ENDBRANCH   2  23
TORSDOF 13
ENDMDL
MODEL 8
REMARK VINA RESULT:      -7.3      9.240     12.903
REMARK  Name = 501640
REMARK  13 active torsions:
REMARK  status: ('A' for Active; 'I' for Inactive)
REMARK    1  A    between atoms: N_1  and  C_14
REMARK    2  A    between atoms: C_2  and  C_23
REMARK    3  A    between atoms: C_3  and  O_8
REMARK    4  A    between atoms: C_4  and  O_10
REMARK    5  A    between atoms: C_6  and  O_12
REMARK    6  A    between atoms: C_14  and  C_15
REMARK    7  A    between atoms: C_15  and  C_16
REMARK    8  A    between atoms: C_16  and  C_17
REMARK    9  A    between atoms: C_17  and  C_18
REMARK   10  A    between atoms: C_18  and  C_19
REMARK   11  A    between atoms: C_19  and  C_20
REMARK   12  A    between atoms: C_20  and  C_21
REMARK   13  A    between atoms: C_23  and  O_24
REMARK                            x       y       z     vdW  Elec       q    Type
REMARK                         _______ _______ _______ _____ _____    ______ ____
ROOT
ATOM      1  N   UNL     1      33.796 -15.307 -23.526  0.00  0.00    +0.393 N 
ATOM      2  C   UNL     1      34.802 -16.257 -24.053  0.00  0.00    +0.002 C 
ATOM      3  C   UNL     1      35.029 -17.421 -23.057  0.00  0.00    +0.123 C 
ATOM      4  C   UNL     1      35.378 -16.925 -21.653  0.00  0.00    +0.160 C 
ATOM      5  C   UNL     1      34.209 -14.773 -22.220  0.00  0.00    -0.045 C 
ATOM      6  C   UNL     1      34.373 -15.881 -21.185  0.00  0.00    +0.119 C 
ATOM      7  H   UNL     1      32.932 -15.840 -23.425  0.00  0.00    -0.079 HD
ENDROOT
BRANCH   3   8
ATOM      8  O   UNL     1      36.115 -18.222 -23.531  0.00  0.00    -0.384 OA
ATOM      9  H   UNL     1      36.921 -17.685 -23.568  0.00  0.00    +0.210 HD
ENDBRANCH   3   8
BRANCH   4  10
ATOM     10  O   UNL     1      35.331 -18.020 -20.738  0.00  0.00    -0.380 OA
ATOM     11  H   UNL     1      34.897 -18.777 -21.160  0.00  0.00    +0.211 HD
ENDBRANCH   4  10
BRANCH   6  12
ATOM     12  O   UNL     1      34.836 -15.289 -19.971  0.00  0.00    -0.384 OA
ATOM     13  H   UNL     1      34.443 -15.752 -19.215  0.00  0.00    +0.210 HD
ENDBRANCH   6  12
BRANCH   1  14
ATOM     14  C   UNL     1      33.540 -14.190 -24.440  0.00  0.00    -0.077 C 
BRANCH  14  15
ATOM     15  C   UNL     1      33.821 -12.837 -23.783  0.00  0.00    -0.023 C 
BRANCH  15  16
ATOM     16  C   UNL     1      33.909 -11.645 -24.744  0.00  0.00    -0.002 C 
BRANCH  16  17
ATOM     17  C   UNL     1      33.745 -10.292 -24.049  0.00  0.00    -0.000 C 
BRANCH  17  18
ATOM     18  C   UNL     1      34.953  -9.387 -24.304  0.00  0.00    -0.000 C 
BRANCH  18  19
ATOM     19  C   UNL     1      34.810  -8.048 -23.577  0.00  0.00    -0.000 C 
BRANCH  19  20
ATOM     20  C   UNL     1      34.413  -6.932 -24.547  0.00  0.00    +0.000 C 
BRANCH  20  21
ATOM     21  C   UNL     1      32.991  -6.413 -24.325  0.00  0.00    +0.000 C 
ATOM     22  C   UNL     1      32.459  -6.678 -22.924  0.00  0.00    +0.000 C 
ENDBRANCH  20  21
ENDBRANCH  19  20
ENDBRANCH  18  19
ENDBRANCH  17  18
ENDBRANCH  16  17
ENDBRANCH  15  16
ENDBRANCH  14  15
ENDBRANCH   1  14
BRANCH   2  23
ATOM     23  C   UNL     1      34.390 -16.843 -25.416  0.00  0.00    +0.119 C 
BRANCH  23  24
ATOM     24  O   UNL     1      33.952 -18.168 -25.207  0.00  0.00    -0.384 OA
ATOM     25  H   UNL     1      33.993 -18.659 -26.043  0.00  0.00    +0.210 HD
ENDBRANCH  23  24
ENDBRANCH   2  23
TORSDOF 13
ENDMDL
MODEL 9
REMARK VINA RESULT:      -7.3      2.317      3.046
REMARK  Name = 501640
REMARK  13 active torsions:
REMARK  status: ('A' for Active; 'I' for Inactive)
REMARK    1  A    between atoms: N_1  and  C_14
REMARK    2  A    between atoms: C_2  and  C_23
REMARK    3  A    between atoms: C_3  and  O_8
REMARK    4  A    between atoms: C_4  and  O_10
REMARK    5  A    between atoms: C_6  and  O_12
REMARK    6  A    between atoms: C_14  and  C_15
REMARK    7  A    between atoms: C_15  and  C_16
REMARK    8  A    between atoms: C_16  and  C_17
REMARK    9  A    between atoms: C_17  and  C_18
REMARK   10  A    between atoms: C_18  and  C_19
REMARK   11  A    between atoms: C_19  and  C_20
REMARK   12  A    between atoms: C_20  and  C_21
REMARK   13  A    between atoms: C_23  and  O_24
REMARK                            x       y       z     vdW  Elec       q    Type
REMARK                         _______ _______ _______ _____ _____    ______ ____
ROOT
ATOM      1  N   UNL     1      37.708 -23.340 -14.503  0.00  0.00    +0.393 N 
ATOM      2  C   UNL     1      37.230 -24.209 -13.403  0.00  0.00    +0.002 C 
ATOM      3  C   UNL     1      38.402 -25.023 -12.803  0.00  0.00    +0.123 C 
ATOM      4  C   UNL     1      39.175 -25.804 -13.867  0.00  0.00    +0.160 C 
ATOM      5  C   UNL     1      38.358 -24.132 -15.557  0.00  0.00    -0.045 C 
ATOM      6  C   UNL     1      39.567 -24.895 -15.024  0.00  0.00    +0.119 C 
ATOM      7  H   UNL     1      38.383 -22.701 -14.083  0.00  0.00    -0.079 HD
ENDROOT
BRANCH   3   8
ATOM      8  O   UNL     1      37.872 -25.958 -11.858  0.00  0.00    -0.384 OA
ATOM      9  H   UNL     1      37.700 -25.506 -11.018  0.00  0.00    +0.210 HD
ENDBRANCH   3   8
BRANCH   4  10
ATOM     10  O   UNL     1      40.374 -26.327 -13.294  0.00  0.00    -0.380 OA
ATOM     11  H   UNL     1      41.080 -25.665 -13.360  0.00  0.00    +0.211 HD
ENDBRANCH   4  10
BRANCH   6  12
ATOM     12  O   UNL     1      40.097 -25.685 -16.087  0.00  0.00    -0.384 OA
ATOM     13  H   UNL     1      39.916 -25.250 -16.935  0.00  0.00    +0.210 HD
ENDBRANCH   6  12
BRANCH   1  14
ATOM     14  C   UNL     1      36.633 -22.542 -15.100  0.00  0.00    -0.077 C 
BRANCH  14  15
ATOM     15  C   UNL     1      37.010 -22.021 -16.488  0.00  0.00    -0.023 C 
BRANCH  15  16
ATOM     16  C   UNL     1      35.924 -22.162 -17.562  0.00  0.00    -0.002 C 
BRANCH  16  17
ATOM     17  C   UNL     1      34.684 -22.915 -17.077  0.00  0.00    -0.000 C 
BRANCH  17  18
ATOM     18  C   UNL     1      33.516 -22.747 -18.051  0.00  0.00    -0.000 C 
BRANCH  18  19
ATOM     19  C   UNL     1      33.982 -22.153 -19.383  0.00  0.00    -0.000 C 
BRANCH  19  20
ATOM     20  C   UNL     1      33.155 -20.921 -19.759  0.00  0.00    +0.000 C 
BRANCH  20  21
ATOM     21  C   UNL     1      33.885 -19.970 -20.711  0.00  0.00    +0.000 C 
ATOM     22  C   UNL     1      35.400 -20.085 -20.642  0.00  0.00    +0.000 C 
ENDBRANCH  20  21
ENDBRANCH  19  20
ENDBRANCH  18  19
ENDBRANCH  17  18
ENDBRANCH  16  17
ENDBRANCH  15  16
ENDBRANCH  14  15
ENDBRANCH   1  14
BRANCH   2  23
ATOM     23  C   UNL     1      36.555 -23.404 -12.278  0.00  0.00    +0.119 C 
BRANCH  23  24
ATOM     24  O   UNL     1      37.546 -23.058 -11.335  0.00  0.00    -0.384 OA
ATOM     25  H   UNL     1      38.301 -23.661 -11.423  0.00  0.00    +0.210 HD
ENDBRANCH  23  24
ENDBRANCH   2  23
TORSDOF 13
ENDMDL
