MODEL 1
REMARK VINA RESULT:      -5.7      0.000      0.000
REMARK  Name = 8193
REMARK  11 active torsions:
REMARK  status: ('A' for Active; 'I' for Inactive)
REMARK    1  A    between atoms: C_1  and  C_2
REMARK    2  A    between atoms: C_1  and  C_8
REMARK    3  A    between atoms: C_2  and  C_3
REMARK    4  A    between atoms: C_3  and  C_4
REMARK    5  A    between atoms: C_4  and  C_5
REMARK    6  A    between atoms: C_5  and  C_6
REMARK    7  A    between atoms: C_8  and  C_9
REMARK    8  A    between atoms: C_9  and  C_10
REMARK    9  A    between atoms: C_10  and  C_11
REMARK   10  A    between atoms: C_11  and  C_12
REMARK   11  A    between atoms: C_12  and  O_13
REMARK                            x       y       z     vdW  Elec       q    Type
REMARK                         _______ _______ _______ _____ _____    ______ ____
ROOT
ATOM      1  C   UNL     1      34.394 -18.320 -25.048  0.00  0.00    +0.000 C 
ENDROOT
BRANCH   1   2
ATOM      2  C   UNL     1      34.844 -16.858 -24.944  0.00  0.00    +0.000 C 
BRANCH   2   3
ATOM      3  C   UNL     1      33.804 -15.808 -25.350  0.00  0.00    +0.000 C 
BRANCH   3   4
ATOM      4  C   UNL     1      33.462 -14.825 -24.227  0.00  0.00    +0.000 C 
BRANCH   4   5
ATOM      5  C   UNL     1      34.374 -14.959 -23.003  0.00  0.00    +0.000 C 
BRANCH   5   6
ATOM      6  C   UNL     1      33.636 -14.812 -21.673  0.00  0.00    +0.000 C 
ATOM      7  C   UNL     1      34.491 -15.292 -20.509  0.00  0.00    +0.000 C 
ENDBRANCH   5   6
ENDBRANCH   4   5
ENDBRANCH   3   4
ENDBRANCH   2   3
ENDBRANCH   1   2
BRANCH   1   8
ATOM      8  C   UNL     1      34.845 -19.178 -23.863  0.00  0.00    +0.000 C 
BRANCH   8   9
ATOM      9  C   UNL     1      35.656 -18.397 -22.824  0.00  0.00    +0.000 C 
BRANCH   9  10
ATOM     10  C   UNL     1      35.307 -18.768 -21.380  0.00  0.00    +0.003 C 
BRANCH  10  11
ATOM     11  C   UNL     1      33.918 -19.409 -21.293  0.00  0.00    +0.032 C 
BRANCH  11  12
ATOM     12  C   UNL     1      33.863 -20.526 -20.258  0.00  0.00    +0.137 C 
BRANCH  12  13
ATOM     13  O   UNL     1      32.583 -20.552 -19.641  0.00  0.00    -0.382 OA
ATOM     14  H   UNL     1      31.898 -20.626 -20.324  0.00  0.00    +0.210 HD
ENDBRANCH  12  13
ENDBRANCH  11  12
ENDBRANCH  10  11
ENDBRANCH   9  10
ENDBRANCH   8   9
ENDBRANCH   1   8
TORSDOF 11
ENDMDL
MODEL 2
REMARK VINA RESULT:      -5.7      1.632      4.636
REMARK  Name = 8193
REMARK  11 active torsions:
REMARK  status: ('A' for Active; 'I' for Inactive)
REMARK    1  A    between atoms: C_1  and  C_2
REMARK    2  A    between atoms: C_1  and  C_8
REMARK    3  A    between atoms: C_2  and  C_3
REMARK    4  A    between atoms: C_3  and  C_4
REMARK    5  A    between atoms: C_4  and  C_5
REMARK    6  A    between atoms: C_5  and  C_6
REMARK    7  A    between atoms: C_8  and  C_9
REMARK    8  A    between atoms: C_9  and  C_10
REMARK    9  A    between atoms: C_10  and  C_11
REMARK   10  A    between atoms: C_11  and  C_12
REMARK   11  A    between atoms: C_12  and  O_13
REMARK                            x       y       z     vdW  Elec       q    Type
REMARK                         _______ _______ _______ _____ _____    ______ ____
ROOT
ATOM      1  C   UNL     1      34.491 -18.223 -24.800  0.00  0.00    +0.000 C 
ENDROOT
BRANCH   1   2
ATOM      2  C   UNL     1      34.930 -19.186 -23.691  0.00  0.00    +0.000 C 
BRANCH   2   3
ATOM      3  C   UNL     1      35.636 -18.548 -22.489  0.00  0.00    +0.000 C 
BRANCH   3   4
ATOM      4  C   UNL     1      35.024 -18.946 -21.144  0.00  0.00    +0.000 C 
BRANCH   4   5
ATOM      5  C   UNL     1      33.586 -19.461 -21.258  0.00  0.00    +0.000 C 
BRANCH   5   6
ATOM      6  C   UNL     1      33.216 -20.485 -20.185  0.00  0.00    +0.000 C 
ATOM      7  C   UNL     1      34.436 -21.268 -19.723  0.00  0.00    +0.000 C 
ENDBRANCH   5   6
ENDBRANCH   4   5
ENDBRANCH   3   4
ENDBRANCH   2   3
ENDBRANCH   1   2
BRANCH   1   8
ATOM      8  C   UNL     1      34.938 -16.779 -24.560  0.00  0.00    +0.000 C 
BRANCH   8   9
ATOM      9  C   UNL     1      33.832 -15.752 -24.817  0.00  0.00    +0.000 C 
BRANCH   9  10
ATOM     10  C   UNL     1      33.438 -14.959 -23.568  0.00  0.00    +0.003 C 
BRANCH  10  11
ATOM     11  C   UNL     1      34.575 -14.947 -22.540  0.00  0.00    +0.032 C 
BRANCH  11  12
ATOM     12  C   UNL     1      34.058 -14.814 -21.112  0.00  0.00    +0.137 C 
BRANCH  12  13
ATOM     13  O   UNL     1      34.899 -15.538 -20.224  0.00  0.00    -0.382 OA
ATOM     14  H   UNL     1      35.788 -15.608 -20.606  0.00  0.00    +0.210 HD
ENDBRANCH  12  13
ENDBRANCH  11  12
ENDBRANCH  10  11
ENDBRANCH   9  10
ENDBRANCH   8   9
ENDBRANCH   1   8
TORSDOF 11
ENDMDL
MODEL 3
REMARK VINA RESULT:      -5.6      1.420      2.274
REMARK  Name = 8193
REMARK  11 active torsions:
REMARK  status: ('A' for Active; 'I' for Inactive)
REMARK    1  A    between atoms: C_1  and  C_2
REMARK    2  A    between atoms: C_1  and  C_8
REMARK    3  A    between atoms: C_2  and  C_3
REMARK    4  A    between atoms: C_3  and  C_4
REMARK    5  A    between atoms: C_4  and  C_5
REMARK    6  A    between atoms: C_5  and  C_6
REMARK    7  A    between atoms: C_8  and  C_9
REMARK    8  A    between atoms: C_9  and  C_10
REMARK    9  A    between atoms: C_10  and  C_11
REMARK   10  A    between atoms: C_11  and  C_12
REMARK   11  A    between atoms: C_12  and  O_13
REMARK                            x       y       z     vdW  Elec       q    Type
REMARK                         _______ _______ _______ _____ _____    ______ ____
ROOT
ATOM      1  C   UNL     1      35.553 -18.547 -22.577  0.00  0.00    +0.000 C 
ENDROOT
BRANCH   1   2
ATOM      2  C   UNL     1      34.996 -18.495 -24.005  0.00  0.00    +0.000 C 
BRANCH   2   3
ATOM      3  C   UNL     1      34.598 -17.106 -24.518  0.00  0.00    +0.000 C 
BRANCH   3   4
ATOM      4  C   UNL     1      34.931 -15.978 -23.539  0.00  0.00    +0.000 C 
BRANCH   4   5
ATOM      5  C   UNL     1      33.691 -15.268 -22.985  0.00  0.00    +0.000 C 
BRANCH   5   6
ATOM      6  C   UNL     1      33.356 -15.660 -21.545  0.00  0.00    +0.000 C 
ATOM      7  C   UNL     1      34.538 -15.423 -20.617  0.00  0.00    +0.000 C 
ENDBRANCH   5   6
ENDBRANCH   4   5
ENDBRANCH   3   4
ENDBRANCH   2   3
ENDBRANCH   1   2
BRANCH   1   8
ATOM      8  C   UNL     1      34.973 -19.690 -21.742  0.00  0.00    +0.000 C 
BRANCH   8   9
ATOM      9  C   UNL     1      33.691 -19.305 -20.997  0.00  0.00    +0.000 C 
BRANCH   9  10
ATOM     10  C   UNL     1      33.118 -20.444 -20.148  0.00  0.00    +0.003 C 
BRANCH  10  11
ATOM     11  C   UNL     1      34.224 -21.398 -19.684  0.00  0.00    +0.032 C 
BRANCH  11  12
ATOM     12  C   UNL     1      33.702 -22.462 -18.726  0.00  0.00    +0.137 C 
BRANCH  12  13
ATOM     13  O   UNL     1      34.720 -22.825 -17.803  0.00  0.00    -0.382 OA
ATOM     14  H   UNL     1      35.588 -22.609 -18.179  0.00  0.00    +0.210 HD
ENDBRANCH  12  13
ENDBRANCH  11  12
ENDBRANCH  10  11
ENDBRANCH   9  10
ENDBRANCH   8   9
ENDBRANCH   1   8
TORSDOF 11
ENDMDL
MODEL 4
REMARK VINA RESULT:      -5.5      1.317      3.251
REMARK  Name = 8193
REMARK  11 active torsions:
REMARK  status: ('A' for Active; 'I' for Inactive)
REMARK    1  A    between atoms: C_1  and  C_2
REMARK    2  A    between atoms: C_1  and  C_8
REMARK    3  A    between atoms: C_2  and  C_3
REMARK    4  A    between atoms: C_3  and  C_4
REMARK    5  A    between atoms: C_4  and  C_5
REMARK    6  A    between atoms: C_5  and  C_6
REMARK    7  A    between atoms: C_8  and  C_9
REMARK    8  A    between atoms: C_9  and  C_10
REMARK    9  A    between atoms: C_10  and  C_11
REMARK   10  A    between atoms: C_11  and  C_12
REMARK   11  A    between atoms: C_12  and  O_13
REMARK                            x       y       z     vdW  Elec       q    Type
REMARK                         _______ _______ _______ _____ _____    ______ ____
ROOT
ATOM      1  C   UNL     1      34.132 -17.228 -21.150  0.00  0.00    +0.000 C 
ENDROOT
BRANCH   1   2
ATOM      2  C   UNL     1      34.584 -15.767 -21.047  0.00  0.00    +0.000 C 
BRANCH   2   3
ATOM      3  C   UNL     1      34.569 -14.967 -22.355  0.00  0.00    +0.000 C 
BRANCH   3   4
ATOM      4  C   UNL     1      33.904 -15.713 -23.515  0.00  0.00    +0.000 C 
BRANCH   4   5
ATOM      5  C   UNL     1      34.896 -16.492 -24.385  0.00  0.00    +0.000 C 
BRANCH   5   6
ATOM      6  C   UNL     1      34.243 -17.598 -25.215  0.00  0.00    +0.000 C 
ATOM      7  C   UNL     1      34.563 -18.975 -24.653  0.00  0.00    +0.000 C 
ENDBRANCH   5   6
ENDBRANCH   4   5
ENDBRANCH   3   4
ENDBRANCH   2   3
ENDBRANCH   1   2
BRANCH   1   8
ATOM      8  C   UNL     1      35.289 -18.227 -21.075  0.00  0.00    +0.000 C 
BRANCH   8   9
ATOM      9  C   UNL     1      34.828 -19.688 -21.068  0.00  0.00    +0.000 C 
BRANCH   9  10
ATOM     10  C   UNL     1      33.342 -19.853 -20.738  0.00  0.00    +0.003 C 
BRANCH  10  11
ATOM     11  C   UNL     1      33.128 -20.941 -19.680  0.00  0.00    +0.032 C 
BRANCH  11  12
ATOM     12  C   UNL     1      34.371 -21.799 -19.477  0.00  0.00    +0.137 C 
BRANCH  12  13
ATOM     13  O   UNL     1      34.010 -23.173 -19.441  0.00  0.00    -0.382 OA
ATOM     14  H   UNL     1      34.028 -23.487 -18.523  0.00  0.00    +0.210 HD
ENDBRANCH  12  13
ENDBRANCH  11  12
ENDBRANCH  10  11
ENDBRANCH   9  10
ENDBRANCH   8   9
ENDBRANCH   1   8
TORSDOF 11
ENDMDL
MODEL 5
REMARK VINA RESULT:      -5.5      2.341      5.572
REMARK  Name = 8193
REMARK  11 active torsions:
REMARK  status: ('A' for Active; 'I' for Inactive)
REMARK    1  A    between atoms: C_1  and  C_2
REMARK    2  A    between atoms: C_1  and  C_8
REMARK    3  A    between atoms: C_2  and  C_3
REMARK    4  A    between atoms: C_3  and  C_4
REMARK    5  A    between atoms: C_4  and  C_5
REMARK    6  A    between atoms: C_5  and  C_6
REMARK    7  A    between atoms: C_8  and  C_9
REMARK    8  A    between atoms: C_9  and  C_10
REMARK    9  A    between atoms: C_10  and  C_11
REMARK   10  A    between atoms: C_11  and  C_12
REMARK   11  A    between atoms: C_12  and  O_13
REMARK                            x       y       z     vdW  Elec       q    Type
REMARK                         _______ _______ _______ _____ _____    ______ ____
ROOT
ATOM      1  C   UNL     1      34.479 -15.614 -20.833  0.00  0.00    +0.000 C 
ENDROOT
BRANCH   1   2
ATOM      2  C   UNL     1      33.969 -17.054 -20.967  0.00  0.00    +0.000 C 
BRANCH   2   3
ATOM      3  C   UNL     1      35.034 -18.118 -21.256  0.00  0.00    +0.000 C 
BRANCH   3   4
ATOM      4  C   UNL     1      34.447 -19.497 -21.567  0.00  0.00    +0.000 C 
BRANCH   4   5
ATOM      5  C   UNL     1      33.158 -19.797 -20.794  0.00  0.00    +0.000 C 
BRANCH   5   6
ATOM      6  C   UNL     1      33.288 -20.968 -19.820  0.00  0.00    +0.000 C 
ATOM      7  C   UNL     1      34.744 -21.362 -19.619  0.00  0.00    +0.000 C 
ENDBRANCH   5   6
ENDBRANCH   4   5
ENDBRANCH   3   4
ENDBRANCH   2   3
ENDBRANCH   1   2
BRANCH   1   8
ATOM      8  C   UNL     1      33.370 -14.565 -20.947  0.00  0.00    +0.000 C 
BRANCH   8   9
ATOM      9  C   UNL     1      32.851 -14.387 -22.377  0.00  0.00    +0.000 C 
BRANCH   9  10
ATOM     10  C   UNL     1      33.965 -14.356 -23.427  0.00  0.00    +0.003 C 
BRANCH  10  11
ATOM     11  C   UNL     1      33.683 -15.346 -24.563  0.00  0.00    +0.032 C 
BRANCH  11  12
ATOM     12  C   UNL     1      34.724 -16.457 -24.630  0.00  0.00    +0.137 C 
BRANCH  12  13
ATOM     13  O   UNL     1      34.605 -17.158 -25.860  0.00  0.00    -0.382 OA
ATOM     14  H   UNL     1      33.878 -17.797 -25.798  0.00  0.00    +0.210 HD
ENDBRANCH  12  13
ENDBRANCH  11  12
ENDBRANCH  10  11
ENDBRANCH   9  10
ENDBRANCH   8   9
ENDBRANCH   1   8
TORSDOF 11
ENDMDL
MODEL 6
REMARK VINA RESULT:      -5.5      1.667      2.368
REMARK  Name = 8193
REMARK  11 active torsions:
REMARK  status: ('A' for Active; 'I' for Inactive)
REMARK    1  A    between atoms: C_1  and  C_2
REMARK    2  A    between atoms: C_1  and  C_8
REMARK    3  A    between atoms: C_2  and  C_3
REMARK    4  A    between atoms: C_3  and  C_4
REMARK    5  A    between atoms: C_4  and  C_5
REMARK    6  A    between atoms: C_5  and  C_6
REMARK    7  A    between atoms: C_8  and  C_9
REMARK    8  A    between atoms: C_9  and  C_10
REMARK    9  A    between atoms: C_10  and  C_11
REMARK   10  A    between atoms: C_11  and  C_12
REMARK   11  A    between atoms: C_12  and  O_13
REMARK                            x       y       z     vdW  Elec       q    Type
REMARK                         _______ _______ _______ _____ _____    ______ ____
ROOT
ATOM      1  C   UNL     1      35.386 -18.437 -23.132  0.00  0.00    +0.000 C 
ENDROOT
BRANCH   1   2
ATOM      2  C   UNL     1      35.345 -17.083 -22.415  0.00  0.00    +0.000 C 
BRANCH   2   3
ATOM      3  C   UNL     1      34.942 -15.881 -23.277  0.00  0.00    +0.000 C 
BRANCH   3   4
ATOM      4  C   UNL     1      34.492 -14.668 -22.457  0.00  0.00    +0.000 C 
BRANCH   4   5
ATOM      5  C   UNL     1      34.318 -14.974 -20.966  0.00  0.00    +0.000 C 
BRANCH   5   6
ATOM      6  C   UNL     1      32.888 -14.776 -20.465  0.00  0.00    +0.000 C 
ATOM      7  C   UNL     1      32.258 -13.527 -21.065  0.00  0.00    +0.000 C 
ENDBRANCH   5   6
ENDBRANCH   4   5
ENDBRANCH   3   4
ENDBRANCH   2   3
ENDBRANCH   1   2
BRANCH   1   8
ATOM      8  C   UNL     1      34.404 -19.459 -22.553  0.00  0.00    +0.000 C 
BRANCH   8   9
ATOM      9  C   UNL     1      34.309 -19.408 -21.025  0.00  0.00    +0.000 C 
BRANCH   9  10
ATOM     10  C   UNL     1      33.065 -20.108 -20.471  0.00  0.00    +0.003 C 
BRANCH  10  11
ATOM     11  C   UNL     1      33.447 -21.327 -19.624  0.00  0.00    +0.032 C 
BRANCH  11  12
ATOM     12  C   UNL     1      34.957 -21.506 -19.520  0.00  0.00    +0.137 C 
BRANCH  12  13
ATOM     13  O   UNL     1      35.267 -22.391 -18.452  0.00  0.00    -0.382 OA
ATOM     14  H   UNL     1      34.995 -21.990 -17.612  0.00  0.00    +0.210 HD
ENDBRANCH  12  13
ENDBRANCH  11  12
ENDBRANCH  10  11
ENDBRANCH   9  10
ENDBRANCH   8   9
ENDBRANCH   1   8
TORSDOF 11
ENDMDL
MODEL 7
REMARK VINA RESULT:      -5.5      2.386      4.488
REMARK  Name = 8193
REMARK  11 active torsions:
REMARK  status: ('A' for Active; 'I' for Inactive)
REMARK    1  A    between atoms: C_1  and  C_2
REMARK    2  A    between atoms: C_1  and  C_8
REMARK    3  A    between atoms: C_2  and  C_3
REMARK    4  A    between atoms: C_3  and  C_4
REMARK    5  A    between atoms: C_4  and  C_5
REMARK    6  A    between atoms: C_5  and  C_6
REMARK    7  A    between atoms: C_8  and  C_9
REMARK    8  A    between atoms: C_9  and  C_10
REMARK    9  A    between atoms: C_10  and  C_11
REMARK   10  A    between atoms: C_11  and  C_12
REMARK   11  A    between atoms: C_12  and  O_13
REMARK                            x       y       z     vdW  Elec       q    Type
REMARK                         _______ _______ _______ _____ _____    ______ ____
ROOT
ATOM      1  C   UNL     1      34.318 -18.857 -21.673  0.00  0.00    +0.000 C 
ENDROOT
BRANCH   1   2
ATOM      2  C   UNL     1      35.329 -18.761 -22.822  0.00  0.00    +0.000 C 
BRANCH   2   3
ATOM      3  C   UNL     1      34.853 -19.291 -24.179  0.00  0.00    +0.000 C 
BRANCH   3   4
ATOM      4  C   UNL     1      34.195 -18.221 -25.053  0.00  0.00    +0.000 C 
BRANCH   4   5
ATOM      5  C   UNL     1      34.874 -16.851 -24.950  0.00  0.00    +0.000 C 
BRANCH   5   6
ATOM      6  C   UNL     1      33.906 -15.713 -24.626  0.00  0.00    +0.000 C 
ATOM      7  C   UNL     1      33.286 -15.135 -25.890  0.00  0.00    +0.000 C 
ENDBRANCH   5   6
ENDBRANCH   4   5
ENDBRANCH   3   4
ENDBRANCH   2   3
ENDBRANCH   1   2
BRANCH   1   8
ATOM      8  C   UNL     1      33.819 -17.493 -21.190  0.00  0.00    +0.000 C 
BRANCH   8   9
ATOM      9  C   UNL     1      34.930 -16.443 -21.089  0.00  0.00    +0.000 C 
BRANCH   9  10
ATOM     10  C   UNL     1      34.401 -15.010 -20.978  0.00  0.00    +0.003 C 
BRANCH  10  11
ATOM     11  C   UNL     1      32.873 -14.974 -21.090  0.00  0.00    +0.032 C 
BRANCH  11  12
ATOM     12  C   UNL     1      32.347 -13.566 -21.343  0.00  0.00    +0.137 C 
BRANCH  12  13
ATOM     13  O   UNL     1      31.974 -13.426 -22.707  0.00  0.00    -0.382 OA
ATOM     14  H   UNL     1      31.202 -13.985 -22.889  0.00  0.00    +0.210 HD
ENDBRANCH  12  13
ENDBRANCH  11  12
ENDBRANCH  10  11
ENDBRANCH   9  10
ENDBRANCH   8   9
ENDBRANCH   1   8
TORSDOF 11
ENDMDL
MODEL 8
REMARK VINA RESULT:      -5.4      2.814      4.178
REMARK  Name = 8193
REMARK  11 active torsions:
REMARK  status: ('A' for Active; 'I' for Inactive)
REMARK    1  A    between atoms: C_1  and  C_2
REMARK    2  A    between atoms: C_1  and  C_8
REMARK    3  A    between atoms: C_2  and  C_3
REMARK    4  A    between atoms: C_3  and  C_4
REMARK    5  A    between atoms: C_4  and  C_5
REMARK    6  A    between atoms: C_5  and  C_6
REMARK    7  A    between atoms: C_8  and  C_9
REMARK    8  A    between atoms: C_9  and  C_10
REMARK    9  A    between atoms: C_10  and  C_11
REMARK   10  A    between atoms: C_11  and  C_12
REMARK   11  A    between atoms: C_12  and  O_13
REMARK                            x       y       z     vdW  Elec       q    Type
REMARK                         _______ _______ _______ _____ _____    ______ ____
ROOT
ATOM      1  C   UNL     1      33.169 -19.493 -20.793  0.00  0.00    +0.000 C 
ENDROOT
BRANCH   1   2
ATOM      2  C   UNL     1      34.360 -19.019 -21.635  0.00  0.00    +0.000 C 
BRANCH   2   3
ATOM      3  C   UNL     1      35.147 -17.829 -21.073  0.00  0.00    +0.000 C 
BRANCH   3   4
ATOM      4  C   UNL     1      34.719 -16.484 -21.664  0.00  0.00    +0.000 C 
BRANCH   4   5
ATOM      5  C   UNL     1      34.396 -15.428 -20.601  0.00  0.00    +0.000 C 
BRANCH   5   6
ATOM      6  C   UNL     1      32.908 -15.090 -20.509  0.00  0.00    +0.000 C 
ATOM      7  C   UNL     1      32.450 -14.271 -21.707  0.00  0.00    +0.000 C 
ENDBRANCH   5   6
ENDBRANCH   4   5
ENDBRANCH   3   4
ENDBRANCH   2   3
ENDBRANCH   1   2
BRANCH   1   8
ATOM      8  C   UNL     1      33.463 -20.760 -19.986  0.00  0.00    +0.000 C 
BRANCH   8   9
ATOM      9  C   UNL     1      34.958 -21.077 -19.882  0.00  0.00    +0.000 C 
BRANCH   9  10
ATOM     10  C   UNL     1      35.308 -21.951 -18.675  0.00  0.00    +0.003 C 
BRANCH  10  11
ATOM     11  C   UNL     1      36.733 -21.670 -18.183  0.00  0.00    +0.032 C 
BRANCH  11  12
ATOM     12  C   UNL     1      36.869 -21.857 -16.676  0.00  0.00    +0.137 C 
BRANCH  12  13
ATOM     13  O   UNL     1      37.459 -23.120 -16.397  0.00  0.00    -0.382 OA
ATOM     14  H   UNL     1      36.868 -23.826 -16.704  0.00  0.00    +0.210 HD
ENDBRANCH  12  13
ENDBRANCH  11  12
ENDBRANCH  10  11
ENDBRANCH   9  10
ENDBRANCH   8   9
ENDBRANCH   1   8
TORSDOF 11
ENDMDL
MODEL 9
REMARK VINA RESULT:      -5.4      2.390      5.422
REMARK  Name = 8193
REMARK  11 active torsions:
REMARK  status: ('A' for Active; 'I' for Inactive)
REMARK    1  A    between atoms: C_1  and  C_2
REMARK    2  A    between atoms: C_1  and  C_8
REMARK    3  A    between atoms: C_2  and  C_3
REMARK    4  A    between atoms: C_3  and  C_4
REMARK    5  A    between atoms: C_4  and  C_5
REMARK    6  A    between atoms: C_5  and  C_6
REMARK    7  A    between atoms: C_8  and  C_9
REMARK    8  A    between atoms: C_9  and  C_10
REMARK    9  A    between atoms: C_10  and  C_11
REMARK   10  A    between atoms: C_11  and  C_12
REMARK   11  A    between atoms: C_12  and  O_13
REMARK                            x       y       z     vdW  Elec       q    Type
REMARK                         _______ _______ _______ _____ _____    ______ ____
ROOT
ATOM      1  C   UNL     1      35.071 -18.889 -23.762  0.00  0.00    +0.000 C 
ENDROOT
BRANCH   1   2
ATOM      2  C   UNL     1      34.839 -18.081 -22.479  0.00  0.00    +0.000 C 
BRANCH   2   3
ATOM      3  C   UNL     1      35.569 -18.585 -21.229  0.00  0.00    +0.000 C 
BRANCH   3   4
ATOM      4  C   UNL     1      35.138 -19.990 -20.799  0.00  0.00    +0.000 C 
BRANCH   4   5
ATOM      5  C   UNL     1      33.626 -20.126 -20.594  0.00  0.00    +0.000 C 
BRANCH   5   6
ATOM      6  C   UNL     1      33.242 -21.190 -19.567  0.00  0.00    +0.000 C 
ATOM      7  C   UNL     1      34.440 -22.045 -19.180  0.00  0.00    +0.000 C 
ENDBRANCH   5   6
ENDBRANCH   4   5
ENDBRANCH   3   4
ENDBRANCH   2   3
ENDBRANCH   1   2
BRANCH   1   8
ATOM      8  C   UNL     1      34.448 -18.246 -25.004  0.00  0.00    +0.000 C 
BRANCH   8   9
ATOM      9  C   UNL     1      34.732 -16.744 -25.114  0.00  0.00    +0.000 C 
BRANCH   9  10
ATOM     10  C   UNL     1      33.537 -15.939 -25.633  0.00  0.00    +0.003 C 
BRANCH  10  11
ATOM     11  C   UNL     1      33.419 -14.594 -24.907  0.00  0.00    +0.032 C 
BRANCH  11  12
ATOM     12  C   UNL     1      33.462 -14.753 -23.391  0.00  0.00    +0.137 C 
BRANCH  12  13
ATOM     13  O   UNL     1      34.530 -13.984 -22.855  0.00  0.00    -0.382 OA
ATOM     14  H   UNL     1      35.197 -14.578 -22.475  0.00  0.00    +0.210 HD
ENDBRANCH  12  13
ENDBRANCH  11  12
ENDBRANCH  10  11
ENDBRANCH   9  10
ENDBRANCH   8   9
ENDBRANCH   1   8
TORSDOF 11
ENDMDL
