MODEL 1
REMARK VINA RESULT:      -3.8      0.000      0.000
REMARK  Name = 82153
REMARK  4 active torsions:
REMARK  status: ('A' for Active; 'I' for Inactive)
REMARK    1  A    between atoms: C_8  and  C_30
REMARK    2  A    between atoms: C_13  and  O_27
REMARK    3  A    between atoms: C_30  and  C_31
REMARK    4  A    between atoms: C_31  and  O_32
REMARK                            x       y       z     vdW  Elec       q    Type
REMARK                         _______ _______ _______ _____ _____    ______ ____
ROOT
ATOM      1  F   UNL     1      32.172 -22.464 -18.100  0.00  0.00    -0.233 F 
ATOM      2  O   UNL     1      34.259 -15.898 -20.940  0.00  0.00    -0.330 OA
ATOM      3  O   UNL     1      31.948 -15.965 -21.365  0.00  0.00    -0.334 OA
ATOM      4  O   UNL     1      36.111 -22.814 -15.201  0.00  0.00    -0.287 OA
ATOM      5  C   UNL     1      34.684 -18.167 -21.837  0.00  0.00    +0.034 C 
ATOM      6  C   UNL     1      33.663 -18.745 -20.831  0.00  0.00    +0.005 C 
ATOM      7  C   UNL     1      33.948 -20.202 -20.442  0.00  0.00    +0.006 C 
ATOM      8  C   UNL     1      34.066 -16.762 -22.057  0.00  0.00    +0.173 C 
ATOM      9  C   UNL     1      35.362 -20.272 -19.764  0.00  0.00    +0.034 C 
ATOM     10  C   UNL     1      32.557 -17.013 -22.114  0.00  0.00    +0.149 C 
ATOM     11  C   UNL     1      32.309 -18.383 -21.445  0.00  0.00    +0.033 C 
ATOM     12  C   UNL     1      36.067 -18.193 -21.155  0.00  0.00    +0.032 C 
ATOM     13  C   UNL     1      36.464 -19.595 -20.642  0.00  0.00    +0.111 C 
ATOM     14  C   UNL     1      35.694 -21.721 -19.225  0.00  0.00    +0.039 C 
ATOM     15  C   UNL     1      32.855 -20.730 -19.497  0.00  0.00    +0.040 C 
ATOM     16  C   UNL     1      34.720 -18.934 -23.187  0.00  0.00    +0.003 C 
ATOM     17  C   UNL     1      33.163 -22.126 -18.976  0.00  0.00    +0.180 C 
ATOM     18  C   UNL     1      32.995 -15.282 -20.673  0.00  0.00    +0.188 C 
ATOM     19  C   UNL     1      34.526 -22.156 -18.330  0.00  0.00    -0.006 C 
ATOM     20  C   UNL     1      35.868 -22.781 -20.336  0.00  0.00    +0.009 C 
ATOM     21  C   UNL     1      37.004 -21.699 -18.451  0.00  0.00    -0.020 C 
ATOM     22  C   UNL     1      33.043 -13.835 -21.151  0.00  0.00    +0.061 C 
ATOM     23  C   UNL     1      32.710 -15.337 -19.175  0.00  0.00    +0.061 C 
ATOM     24  C   UNL     1      34.668 -22.502 -17.041  0.00  0.00    +0.036 C 
ATOM     25  C   UNL     1      37.150 -22.042 -17.168  0.00  0.00    +0.038 C 
ATOM     26  C   UNL     1      35.988 -22.482 -16.376  0.00  0.00    +0.195 C 
ENDROOT
BRANCH  13  27
ATOM     27  O   UNL     1      36.822 -20.420 -21.743  0.00  0.00    -0.384 OA
ATOM     28  H   UNL     1      36.019 -20.725 -22.193  0.00  0.00    +0.210 HD
ENDBRANCH  13  27
BRANCH   8  30
ATOM     29  O   UNL     1      35.806 -15.731 -23.319  0.00  0.00    -0.291 OA
ATOM     30  C   UNL     1      34.615 -16.034 -23.247  0.00  0.00    +0.207 C 
BRANCH  30  31
ATOM     31  C   UNL     1      33.626 -15.698 -24.344  0.00  0.00    +0.204 C 
BRANCH  31  32
ATOM     32  O   UNL     1      33.972 -16.355 -25.545  0.00  0.00    -0.375 OA
ATOM     33  H   UNL     1      34.687 -15.869 -25.985  0.00  0.00    +0.211 HD
ENDBRANCH  31  32
ENDBRANCH  30  31
ENDBRANCH   8  30
TORSDOF 4
ENDMDL
MODEL 2
REMARK VINA RESULT:      -1.8      8.308     11.746
REMARK  Name = 82153
REMARK  4 active torsions:
REMARK  status: ('A' for Active; 'I' for Inactive)
REMARK    1  A    between atoms: C_8  and  C_30
REMARK    2  A    between atoms: C_13  and  O_27
REMARK    3  A    between atoms: C_30  and  C_31
REMARK    4  A    between atoms: C_31  and  O_32
REMARK                            x       y       z     vdW  Elec       q    Type
REMARK                         _______ _______ _______ _____ _____    ______ ____
ROOT
ATOM      1  F   UNL     1      36.298 -10.590 -26.502  0.00  0.00    -0.233 F 
ATOM      2  O   UNL     1      30.905  -6.495 -23.391  0.00  0.00    -0.330 OA
ATOM      3  O   UNL     1      32.664  -4.960 -23.668  0.00  0.00    -0.334 OA
ATOM      4  O   UNL     1      33.193 -14.037 -28.092  0.00  0.00    -0.287 OA
ATOM      5  C   UNL     1      32.325  -8.226 -22.334  0.00  0.00    +0.034 C 
ATOM      6  C   UNL     1      33.244  -8.217 -23.577  0.00  0.00    +0.005 C 
ATOM      7  C   UNL     1      33.960  -9.553 -23.816  0.00  0.00    +0.006 C 
ATOM      8  C   UNL     1      31.847  -6.751 -22.354  0.00  0.00    +0.173 C 
ATOM      9  C   UNL     1      32.878 -10.668 -24.043  0.00  0.00    +0.034 C 
ATOM     10  C   UNL     1      33.093  -5.950 -22.737  0.00  0.00    +0.149 C 
ATOM     11  C   UNL     1      34.071  -6.942 -23.403  0.00  0.00    +0.033 C 
ATOM     12  C   UNL     1      31.235  -9.288 -22.575  0.00  0.00    +0.032 C 
ATOM     13  C   UNL     1      31.811 -10.685 -22.901  0.00  0.00    +0.111 C 
ATOM     14  C   UNL     1      33.526 -12.062 -24.410  0.00  0.00    +0.039 C 
ATOM     15  C   UNL     1      34.906  -9.448 -25.023  0.00  0.00    +0.040 C 
ATOM     16  C   UNL     1      33.086  -8.506 -21.009  0.00  0.00    +0.003 C 
ATOM     17  C   UNL     1      35.539 -10.785 -25.384  0.00  0.00    +0.180 C 
ATOM     18  C   UNL     1      31.324  -5.291 -24.041  0.00  0.00    +0.188 C 
ATOM     19  C   UNL     1      34.472 -11.829 -25.596  0.00  0.00    -0.006 C 
ATOM     20  C   UNL     1      34.342 -12.699 -23.263  0.00  0.00    +0.009 C 
ATOM     21  C   UNL     1      32.436 -13.065 -24.762  0.00  0.00    -0.020 C 
ATOM     22  C   UNL     1      30.397  -4.156 -23.619  0.00  0.00    +0.061 C 
ATOM     23  C   UNL     1      31.270  -5.484 -25.553  0.00  0.00    +0.061 C 
ATOM     24  C   UNL     1      34.357 -12.465 -26.773  0.00  0.00    +0.036 C 
ATOM     25  C   UNL     1      32.317 -13.698 -25.932  0.00  0.00    +0.038 C 
ATOM     26  C   UNL     1      33.282 -13.449 -27.018  0.00  0.00    +0.195 C 
ENDROOT
BRANCH  13  27
ATOM     27  O   UNL     1      32.335 -11.271 -21.716  0.00  0.00    -0.384 OA
ATOM     28  H   UNL     1      32.541 -10.574 -21.075  0.00  0.00    +0.210 HD
ENDBRANCH  13  27
BRANCH   8  30
ATOM     29  O   UNL     1      30.208  -5.571 -21.088  0.00  0.00    -0.291 OA
ATOM     30  C   UNL     1      31.195  -6.305 -21.079  0.00  0.00    +0.207 C 
BRANCH  30  31
ATOM     31  C   UNL     1      31.821  -6.806 -19.794  0.00  0.00    +0.204 C 
BRANCH  31  32
ATOM     32  O   UNL     1      32.734  -5.859 -19.281  0.00  0.00    -0.375 OA
ATOM     33  H   UNL     1      32.496  -5.644 -18.365  0.00  0.00    +0.211 HD
ENDBRANCH  31  32
ENDBRANCH  30  31
ENDBRANCH   8  30
TORSDOF 4
ENDMDL
MODEL 3
REMARK VINA RESULT:      -1.5      1.542      1.964
REMARK  Name = 82153
REMARK  4 active torsions:
REMARK  status: ('A' for Active; 'I' for Inactive)
REMARK    1  A    between atoms: C_8  and  C_30
REMARK    2  A    between atoms: C_13  and  O_27
REMARK    3  A    between atoms: C_30  and  C_31
REMARK    4  A    between atoms: C_31  and  O_32
REMARK                            x       y       z     vdW  Elec       q    Type
REMARK                         _______ _______ _______ _____ _____    ______ ____
ROOT
ATOM      1  F   UNL     1      30.822 -22.228 -17.372  0.00  0.00    -0.233 F 
ATOM      2  O   UNL     1      35.303 -17.326 -20.751  0.00  0.00    -0.330 OA
ATOM      3  O   UNL     1      33.171 -16.773 -21.575  0.00  0.00    -0.334 OA
ATOM      4  O   UNL     1      34.032 -23.160 -13.784  0.00  0.00    -0.287 OA
ATOM      5  C   UNL     1      35.059 -19.749 -21.198  0.00  0.00    +0.034 C 
ATOM      6  C   UNL     1      33.788 -19.773 -20.320  0.00  0.00    +0.005 C 
ATOM      7  C   UNL     1      33.523 -21.137 -19.668  0.00  0.00    +0.006 C 
ATOM      8  C   UNL     1      34.974 -18.298 -21.739  0.00  0.00    +0.173 C 
ATOM      9  C   UNL     1      34.738 -21.493 -18.740  0.00  0.00    +0.034 C 
ATOM     10  C   UNL     1      33.487 -18.086 -22.032  0.00  0.00    +0.149 C 
ATOM     11  C   UNL     1      32.718 -19.150 -21.219  0.00  0.00    +0.033 C 
ATOM     12  C   UNL     1      36.259 -20.053 -20.280  0.00  0.00    +0.032 C 
ATOM     13  C   UNL     1      36.102 -21.375 -19.495  0.00  0.00    +0.111 C 
ATOM     14  C   UNL     1      34.502 -22.833 -17.935  0.00  0.00    +0.039 C 
ATOM     15  C   UNL     1      32.209 -21.105 -18.869  0.00  0.00    +0.040 C 
ATOM     16  C   UNL     1      35.005 -20.748 -22.386  0.00  0.00    +0.003 C 
ATOM     17  C   UNL     1      31.970 -22.392 -18.093  0.00  0.00    +0.180 C 
ATOM     18  C   UNL     1      34.292 -16.315 -20.817  0.00  0.00    +0.188 C 
ATOM     19  C   UNL     1      33.155 -22.702 -17.212  0.00  0.00    -0.006 C 
ATOM     20  C   UNL     1      34.451 -24.098 -18.821  0.00  0.00    +0.009 C 
ATOM     21  C   UNL     1      35.639 -23.053 -16.948  0.00  0.00    -0.020 C 
ATOM     22  C   UNL     1      34.876 -15.079 -21.492  0.00  0.00    +0.061 C 
ATOM     23  C   UNL     1      33.823 -15.974 -19.405  0.00  0.00    +0.061 C 
ATOM     24  C   UNL     1      33.013 -22.806 -15.882  0.00  0.00    +0.036 C 
ATOM     25  C   UNL     1      35.503 -23.155 -15.622  0.00  0.00    +0.038 C 
ATOM     26  C   UNL     1      34.172 -23.051 -14.998  0.00  0.00    +0.195 C 
ENDROOT
BRANCH  13  27
ATOM     27  O   UNL     1      36.300 -22.476 -20.373  0.00  0.00    -0.384 OA
ATOM     28  H   UNL     1      37.085 -22.973 -20.096  0.00  0.00    +0.210 HD
ENDBRANCH  13  27
BRANCH   8  30
ATOM     29  O   UNL     1      37.101 -18.049 -22.786  0.00  0.00    -0.291 OA
ATOM     30  C   UNL     1      35.877 -18.029 -22.906  0.00  0.00    +0.207 C 
BRANCH  30  31
ATOM     31  C   UNL     1      35.196 -17.734 -24.227  0.00  0.00    +0.204 C 
BRANCH  31  32
ATOM     32  O   UNL     1      35.372 -16.379 -24.586  0.00  0.00    -0.375 OA
ATOM     33  H   UNL     1      35.593 -16.322 -25.530  0.00  0.00    +0.211 HD
ENDBRANCH  31  32
ENDBRANCH  30  31
ENDBRANCH   8  30
TORSDOF 4
ENDMDL
MODEL 4
REMARK VINA RESULT:      -1.4      8.830     12.486
REMARK  Name = 82153
REMARK  4 active torsions:
REMARK  status: ('A' for Active; 'I' for Inactive)
REMARK    1  A    between atoms: C_8  and  C_30
REMARK    2  A    between atoms: C_13  and  O_27
REMARK    3  A    between atoms: C_30  and  C_31
REMARK    4  A    between atoms: C_31  and  O_32
REMARK                            x       y       z     vdW  Elec       q    Type
REMARK                         _______ _______ _______ _____ _____    ______ ____
ROOT
ATOM      1  F   UNL     1      36.589 -10.381 -25.966  0.00  0.00    -0.233 F 
ATOM      2  O   UNL     1      30.938  -5.675 -24.763  0.00  0.00    -0.330 OA
ATOM      3  O   UNL     1      32.813  -4.261 -24.858  0.00  0.00    -0.334 OA
ATOM      4  O   UNL     1      33.677 -13.927 -27.696  0.00  0.00    -0.287 OA
ATOM      5  C   UNL     1      31.977  -7.267 -23.177  0.00  0.00    +0.034 C 
ATOM      6  C   UNL     1      33.141  -7.482 -24.171  0.00  0.00    +0.005 C 
ATOM      7  C   UNL     1      33.801  -8.862 -24.049  0.00  0.00    +0.006 C 
ATOM      8  C   UNL     1      31.614  -5.798 -23.515  0.00  0.00    +0.173 C 
ATOM      9  C   UNL     1      32.722  -9.962 -24.348  0.00  0.00    +0.034 C 
ATOM     10  C   UNL     1      32.965  -5.108 -23.722  0.00  0.00    +0.149 C 
ATOM     11  C   UNL     1      33.995  -6.224 -24.002  0.00  0.00    +0.033 C 
ATOM     12  C   UNL     1      30.896  -8.317 -23.500  0.00  0.00    +0.032 C 
ATOM     13  C   UNL     1      31.434  -9.766 -23.484  0.00  0.00    +0.111 C 
ATOM     14  C   UNL     1      33.339 -11.417 -24.357  0.00  0.00    +0.039 C 
ATOM     15  C   UNL     1      34.990  -8.977 -25.016  0.00  0.00    +0.040 C 
ATOM     16  C   UNL     1      32.414  -7.363 -21.689  0.00  0.00    +0.003 C 
ATOM     17  C   UNL     1      35.595 -10.374 -25.030  0.00  0.00    +0.180 C 
ATOM     18  C   UNL     1      31.567  -4.601 -25.469  0.00  0.00    +0.188 C 
ATOM     19  C   UNL     1      34.532 -11.403 -25.322  0.00  0.00    -0.006 C 
ATOM     20  C   UNL     1      33.844 -11.895 -22.977  0.00  0.00    +0.009 C 
ATOM     21  C   UNL     1      32.287 -12.425 -24.795  0.00  0.00    -0.020 C 
ATOM     22  C   UNL     1      30.648  -3.385 -25.433  0.00  0.00    +0.061 C 
ATOM     23  C   UNL     1      31.828  -5.025 -26.911  0.00  0.00    +0.061 C 
ATOM     24  C   UNL     1      34.631 -12.209 -26.391  0.00  0.00    +0.036 C 
ATOM     25  C   UNL     1      32.381 -13.228 -25.859  0.00  0.00    +0.038 C 
ATOM     26  C   UNL     1      33.572 -13.184 -26.725  0.00  0.00    +0.195 C 
ENDROOT
BRANCH  13  27
ATOM     27  O   UNL     1      31.650 -10.178 -22.141  0.00  0.00    -0.384 OA
ATOM     28  H   UNL     1      32.564  -9.981 -21.885  0.00  0.00    +0.210 HD
ENDBRANCH  13  27
BRANCH   8  30
ATOM     29  O   UNL     1      29.727  -5.696 -22.063  0.00  0.00    -0.291 OA
ATOM     30  C   UNL     1      30.734  -5.138 -22.496  0.00  0.00    +0.207 C 
BRANCH  30  31
ATOM     31  C   UNL     1      31.156  -3.756 -22.039  0.00  0.00    +0.204 C 
BRANCH  31  32
ATOM     32  O   UNL     1      30.082  -2.846 -22.149  0.00  0.00    -0.375 OA
ATOM     33  H   UNL     1      29.681  -2.925 -23.029  0.00  0.00    +0.211 HD
ENDBRANCH  31  32
ENDBRANCH  30  31
ENDBRANCH   8  30
TORSDOF 4
ENDMDL
MODEL 5
REMARK VINA RESULT:      -0.8      9.815     15.280
REMARK  Name = 82153
REMARK  4 active torsions:
REMARK  status: ('A' for Active; 'I' for Inactive)
REMARK    1  A    between atoms: C_8  and  C_30
REMARK    2  A    between atoms: C_13  and  O_27
REMARK    3  A    between atoms: C_30  and  C_31
REMARK    4  A    between atoms: C_31  and  O_32
REMARK                            x       y       z     vdW  Elec       q    Type
REMARK                         _______ _______ _______ _____ _____    ______ ____
ROOT
ATOM      1  F   UNL     1      30.063  -2.541 -22.107  0.00  0.00    -0.233 F 
ATOM      2  O   UNL     1      32.372  -9.368 -24.001  0.00  0.00    -0.330 OA
ATOM      3  O   UNL     1      32.484  -9.387 -21.653  0.00  0.00    -0.334 OA
ATOM      4  O   UNL     1      27.787  -1.786 -26.383  0.00  0.00    -0.287 OA
ATOM      5  C   UNL     1      33.578  -7.217 -24.233  0.00  0.00    +0.034 C 
ATOM      6  C   UNL     1      32.518  -6.538 -23.337  0.00  0.00    +0.005 C 
ATOM      7  C   UNL     1      32.344  -5.040 -23.625  0.00  0.00    +0.006 C 
ATOM      8  C   UNL     1      33.546  -8.647 -23.635  0.00  0.00    +0.173 C 
ATOM      9  C   UNL     1      31.876  -4.868 -25.114  0.00  0.00    +0.034 C 
ATOM     10  C   UNL     1      33.427  -8.428 -22.125  0.00  0.00    +0.149 C 
ATOM     11  C   UNL     1      32.896  -6.992 -21.926  0.00  0.00    +0.033 C 
ATOM     12  C   UNL     1      33.097  -7.089 -25.692  0.00  0.00    +0.032 C 
ATOM     13  C   UNL     1      32.810  -5.629 -26.110  0.00  0.00    +0.111 C 
ATOM     14  C   UNL     1      31.561  -3.361 -25.469  0.00  0.00    +0.039 C 
ATOM     15  C   UNL     1      31.328  -4.420 -22.652  0.00  0.00    +0.040 C 
ATOM     16  C   UNL     1      35.001  -6.617 -24.065  0.00  0.00    +0.003 C 
ATOM     17  C   UNL     1      31.020  -2.967 -22.983  0.00  0.00    +0.180 C 
ATOM     18  C   UNL     1      31.867  -9.966 -22.804  0.00  0.00    +0.188 C 
ATOM     19  C   UNL     1      30.572  -2.839 -24.418  0.00  0.00    -0.006 C 
ATOM     20  C   UNL     1      32.801  -2.440 -25.461  0.00  0.00    +0.009 C 
ATOM     21  C   UNL     1      30.975  -3.269 -26.871  0.00  0.00    -0.020 C 
ATOM     22  C   UNL     1      32.173 -11.460 -22.833  0.00  0.00    +0.061 C 
ATOM     23  C   UNL     1      30.360  -9.737 -22.719  0.00  0.00    +0.061 C 
ATOM     24  C   UNL     1      29.364  -2.338 -24.719  0.00  0.00    +0.036 C 
ATOM     25  C   UNL     1      29.772  -2.773 -27.175  0.00  0.00    +0.038 C 
ATOM     26  C   UNL     1      28.887  -2.259 -26.115  0.00  0.00    +0.195 C 
ENDROOT
BRANCH  13  27
ATOM     27  O   UNL     1      34.039  -4.937 -26.293  0.00  0.00    -0.384 OA
ATOM     28  H   UNL     1      34.403  -4.691 -25.428  0.00  0.00    +0.210 HD
ENDBRANCH  13  27
BRANCH   8  30
ATOM     29  O   UNL     1      35.828  -9.332 -23.569  0.00  0.00    -0.291 OA
ATOM     30  C   UNL     1      34.707  -9.505 -24.044  0.00  0.00    +0.207 C 
BRANCH  30  31
ATOM     31  C   UNL     1      34.416 -10.585 -25.065  0.00  0.00    +0.204 C 
BRANCH  31  32
ATOM     32  O   UNL     1      35.393 -10.581 -26.085  0.00  0.00    -0.375 OA
ATOM     33  H   UNL     1      35.587  -9.666 -26.343  0.00  0.00    +0.211 HD
ENDBRANCH  31  32
ENDBRANCH  30  31
ENDBRANCH   8  30
TORSDOF 4
ENDMDL
