MODEL 1
REMARK VINA RESULT:      -8.7      0.000      0.000
REMARK  Name = 447739
REMARK  7 active torsions:
REMARK  status: ('A' for Active; 'I' for Inactive)
REMARK    1  A    between atoms: C_4  and  C_14
REMARK    2  A    between atoms: C_5  and  C_11
REMARK    3  A    between atoms: C_7  and  C_19
REMARK    4  A    between atoms: C_11  and  C_12
REMARK    5  A    between atoms: C_14  and  C_16
REMARK    6  A    between atoms: C_16  and  O_17
REMARK    7  A    between atoms: C_19  and  C_22
REMARK                            x       y       z     vdW  Elec       q    Type
REMARK                         _______ _______ _______ _____ _____    ______ ____
ROOT
ATOM      1  N   UNL     1      34.405 -23.478 -13.722  0.00  0.00    -0.316 N 
ATOM      2  C   UNL     1      33.967 -23.284 -15.012  0.00  0.00    +0.045 C 
ATOM      3  C   UNL     1      35.098 -23.073 -15.804  0.00  0.00    +0.014 C 
ATOM      4  C   UNL     1      32.668 -23.279 -15.534  0.00  0.00    +0.002 C 
ATOM      5  C   UNL     1      33.635 -22.838 -17.720  0.00  0.00    -0.022 C 
ATOM      6  C   UNL     1      34.927 -22.846 -17.183  0.00  0.00    -0.003 C 
ATOM      7  C   UNL     1      35.771 -23.398 -13.670  0.00  0.00    +0.035 C 
ATOM      8  C   UNL     1      32.524 -23.051 -16.906  0.00  0.00    -0.007 C 
ATOM      9  C   UNL     1      36.229 -23.148 -14.944  0.00  0.00    +0.012 C 
ATOM     10  H   UNL     1      33.822 -23.650 -12.948  0.00  0.00    +0.152 HD
ENDROOT
BRANCH   5  11
ATOM     11  C   UNL     1      33.447 -22.598 -19.181  0.00  0.00    +0.026 C 
BRANCH  11  12
ATOM     12  C   UNL     1      34.076 -21.276 -19.637  0.00  0.00    +0.005 C 
ATOM     13  C   UNL     1      33.056 -20.359 -20.295  0.00  0.00    +0.000 C 
ENDBRANCH  11  12
ENDBRANCH   5  11
BRANCH   4  14
ATOM     14  C   UNL     1      31.457 -23.503 -14.692  0.00  0.00    +0.137 C 
BRANCH  14  16
ATOM     15  O   UNL     1      30.505 -25.741 -14.823  0.00  0.00    -0.250 OA
ATOM     16  C   UNL     1      31.265 -24.949 -14.282  0.00  0.00    +0.318 C 
BRANCH  16  17
ATOM     17  O   UNL     1      32.048 -25.283 -13.222  0.00  0.00    -0.480 OA
ATOM     18  H   UNL     1      31.850 -26.048 -12.717  0.00  0.00    +0.295 HD
ENDBRANCH  16  17
ENDBRANCH  14  16
ENDBRANCH   4  14
BRANCH   7  19
ATOM     19  C   UNL     1      36.501 -23.569 -12.400  0.00  0.00    +0.126 C 
BRANCH  19  22
ATOM     20  O   UNL     1      35.378 -25.031 -10.840  0.00  0.00    -0.275 OA
ATOM     21  N   UNL     1      36.808 -25.985 -12.365  0.00  0.00    -0.328 N 
ATOM     22  C   UNL     1      36.167 -24.919 -11.775  0.00  0.00    +0.225 C 
ATOM     23  H   UNL     1      36.656 -26.897 -12.030  0.00  0.00    +0.145 HD
ATOM     24  H   UNL     1      37.418 -25.834 -13.123  0.00  0.00    +0.145 HD
ENDBRANCH  19  22
ENDBRANCH   7  19
TORSDOF 7
ENDMDL
MODEL 2
REMARK VINA RESULT:      -8.6      8.911     12.206
REMARK  Name = 447739
REMARK  7 active torsions:
REMARK  status: ('A' for Active; 'I' for Inactive)
REMARK    1  A    between atoms: C_4  and  C_14
REMARK    2  A    between atoms: C_5  and  C_11
REMARK    3  A    between atoms: C_7  and  C_19
REMARK    4  A    between atoms: C_11  and  C_12
REMARK    5  A    between atoms: C_14  and  C_16
REMARK    6  A    between atoms: C_16  and  O_17
REMARK    7  A    between atoms: C_19  and  C_22
REMARK                            x       y       z     vdW  Elec       q    Type
REMARK                         _______ _______ _______ _____ _____    ______ ____
ROOT
ATOM      1  N   UNL     1      34.704 -15.758 -23.241  0.00  0.00    -0.316 N 
ATOM      2  C   UNL     1      33.863 -14.721 -22.907  0.00  0.00    +0.045 C 
ATOM      3  C   UNL     1      33.556 -14.859 -21.552  0.00  0.00    +0.014 C 
ATOM      4  C   UNL     1      33.356 -13.680 -23.695  0.00  0.00    +0.002 C 
ATOM      5  C   UNL     1      32.185 -12.870 -21.726  0.00  0.00    -0.022 C 
ATOM      6  C   UNL     1      32.700 -13.915 -20.951  0.00  0.00    -0.003 C 
ATOM      7  C   UNL     1      34.940 -16.546 -22.145  0.00  0.00    +0.035 C 
ATOM      8  C   UNL     1      32.509 -12.756 -23.076  0.00  0.00    -0.007 C 
ATOM      9  C   UNL     1      34.242 -16.014 -21.085  0.00  0.00    +0.012 C 
ATOM     10  H   UNL     1      35.083 -15.912 -24.136  0.00  0.00    +0.152 HD
ENDROOT
BRANCH   5  11
ATOM     11  C   UNL     1      31.279 -11.865 -21.095  0.00  0.00    +0.026 C 
BRANCH  11  12
ATOM     12  C   UNL     1      31.644 -11.594 -19.630  0.00  0.00    +0.005 C 
ATOM     13  C   UNL     1      31.747 -10.105 -19.337  0.00  0.00    +0.000 C 
ENDBRANCH  11  12
ENDBRANCH   5  11
BRANCH   4  14
ATOM     14  C   UNL     1      33.681 -13.530 -25.143  0.00  0.00    +0.137 C 
BRANCH  14  16
ATOM     15  O   UNL     1      33.796 -15.725 -26.191  0.00  0.00    -0.250 OA
ATOM     16  C   UNL     1      33.188 -14.681 -25.996  0.00  0.00    +0.318 C 
BRANCH  16  17
ATOM     17  O   UNL     1      31.967 -14.425 -26.536  0.00  0.00    -0.480 OA
ATOM     18  H   UNL     1      31.854 -14.445 -27.466  0.00  0.00    +0.295 HD
ENDBRANCH  16  17
ENDBRANCH  14  16
ENDBRANCH   4  14
BRANCH   7  19
ATOM     19  C   UNL     1      35.812 -17.732 -22.228  0.00  0.00    +0.126 C 
BRANCH  19  22
ATOM     20  O   UNL     1      34.105 -19.431 -22.043  0.00  0.00    -0.275 OA
ATOM     21  N   UNL     1      35.781 -19.418 -20.471  0.00  0.00    -0.328 N 
ATOM     22  C   UNL     1      35.132 -18.935 -21.584  0.00  0.00    +0.225 C 
ATOM     23  H   UNL     1      35.417 -20.194 -19.987  0.00  0.00    +0.145 HD
ATOM     24  H   UNL     1      36.610 -18.989 -20.160  0.00  0.00    +0.145 HD
ENDBRANCH  19  22
ENDBRANCH   7  19
TORSDOF 7
ENDMDL
MODEL 3
REMARK VINA RESULT:      -8.4      2.379      4.387
REMARK  Name = 447739
REMARK  7 active torsions:
REMARK  status: ('A' for Active; 'I' for Inactive)
REMARK    1  A    between atoms: C_4  and  C_14
REMARK    2  A    between atoms: C_5  and  C_11
REMARK    3  A    between atoms: C_7  and  C_19
REMARK    4  A    between atoms: C_11  and  C_12
REMARK    5  A    between atoms: C_14  and  C_16
REMARK    6  A    between atoms: C_16  and  O_17
REMARK    7  A    between atoms: C_19  and  C_22
REMARK                            x       y       z     vdW  Elec       q    Type
REMARK                         _______ _______ _______ _____ _____    ______ ____
ROOT
ATOM      1  N   UNL     1      33.893 -23.289 -15.726  0.00  0.00    -0.316 N 
ATOM      2  C   UNL     1      34.697 -22.752 -16.705  0.00  0.00    +0.045 C 
ATOM      3  C   UNL     1      33.896 -22.551 -17.831  0.00  0.00    +0.014 C 
ATOM      4  C   UNL     1      36.059 -22.430 -16.680  0.00  0.00    +0.002 C 
ATOM      5  C   UNL     1      35.842 -21.678 -18.980  0.00  0.00    -0.022 C 
ATOM      6  C   UNL     1      34.481 -22.004 -18.991  0.00  0.00    -0.003 C 
ATOM      7  C   UNL     1      32.613 -23.435 -16.193  0.00  0.00    +0.035 C 
ATOM      8  C   UNL     1      36.617 -21.889 -17.842  0.00  0.00    -0.007 C 
ATOM      9  C   UNL     1      32.585 -22.986 -17.494  0.00  0.00    +0.012 C 
ATOM     10  H   UNL     1      34.192 -23.534 -14.821  0.00  0.00    +0.152 HD
ENDROOT
BRANCH   5  11
ATOM     11  C   UNL     1      36.468 -21.097 -20.205  0.00  0.00    +0.026 C 
BRANCH  11  12
ATOM     12  C   UNL     1      35.552 -20.079 -20.896  0.00  0.00    +0.005 C 
ATOM     13  C   UNL     1      36.270 -18.767 -21.173  0.00  0.00    +0.000 C 
ENDBRANCH  11  12
ENDBRANCH   5  11
BRANCH   4  14
ATOM     14  C   UNL     1      36.918 -22.644 -15.478  0.00  0.00    +0.137 C 
BRANCH  14  16
ATOM     15  O   UNL     1      36.737 -25.064 -15.282  0.00  0.00    -0.250 OA
ATOM     16  C   UNL     1      37.436 -24.062 -15.350  0.00  0.00    +0.318 C 
BRANCH  16  17
ATOM     17  O   UNL     1      38.794 -24.105 -15.318  0.00  0.00    -0.480 OA
ATOM     18  H   UNL     1      39.281 -24.096 -16.119  0.00  0.00    +0.295 HD
ENDBRANCH  16  17
ENDBRANCH  14  16
ENDBRANCH   4  14
BRANCH   7  19
ATOM     19  C   UNL     1      31.546 -23.992 -15.342  0.00  0.00    +0.126 C 
BRANCH  19  22
ATOM     20  O   UNL     1      32.069 -23.119 -13.152  0.00  0.00    -0.275 OA
ATOM     21  N   UNL     1      32.361 -25.371 -13.507  0.00  0.00    -0.328 N 
ATOM     22  C   UNL     1      32.020 -24.095 -13.897  0.00  0.00    +0.225 C 
ATOM     23  H   UNL     1      32.680 -25.536 -12.591  0.00  0.00    +0.145 HD
ATOM     24  H   UNL     1      32.286 -26.116 -14.145  0.00  0.00    +0.145 HD
ENDBRANCH  19  22
ENDBRANCH   7  19
TORSDOF 7
ENDMDL
MODEL 4
REMARK VINA RESULT:      -8.4     10.039     13.152
REMARK  Name = 447739
REMARK  7 active torsions:
REMARK  status: ('A' for Active; 'I' for Inactive)
REMARK    1  A    between atoms: C_4  and  C_14
REMARK    2  A    between atoms: C_5  and  C_11
REMARK    3  A    between atoms: C_7  and  C_19
REMARK    4  A    between atoms: C_11  and  C_12
REMARK    5  A    between atoms: C_14  and  C_16
REMARK    6  A    between atoms: C_16  and  O_17
REMARK    7  A    between atoms: C_19  and  C_22
REMARK                            x       y       z     vdW  Elec       q    Type
REMARK                         _______ _______ _______ _____ _____    ______ ____
ROOT
ATOM      1  N   UNL     1      32.093 -12.895 -22.563  0.00  0.00    -0.316 N 
ATOM      2  C   UNL     1      32.875 -14.025 -22.483  0.00  0.00    +0.045 C 
ATOM      3  C   UNL     1      33.003 -14.342 -21.129  0.00  0.00    +0.014 C 
ATOM      4  C   UNL     1      33.474 -14.783 -23.496  0.00  0.00    +0.002 C 
ATOM      5  C   UNL     1      34.370 -16.237 -21.768  0.00  0.00    -0.022 C 
ATOM      6  C   UNL     1      33.765 -15.470 -20.766  0.00  0.00    -0.003 C 
ATOM      7  C   UNL     1      31.721 -12.488 -21.309  0.00  0.00    +0.035 C 
ATOM      8  C   UNL     1      34.225 -15.897 -23.112  0.00  0.00    -0.007 C 
ATOM      9  C   UNL     1      32.269 -13.365 -20.401  0.00  0.00    +0.012 C 
ATOM     10  H   UNL     1      31.837 -12.444 -23.400  0.00  0.00    +0.152 HD
ENDROOT
BRANCH   5  11
ATOM     11  C   UNL     1      35.178 -17.434 -21.390  0.00  0.00    +0.026 C 
BRANCH  11  12
ATOM     12  C   UNL     1      34.602 -18.730 -21.974  0.00  0.00    +0.005 C 
ATOM     13  C   UNL     1      33.617 -19.392 -21.023  0.00  0.00    +0.000 C 
ENDBRANCH  11  12
ENDBRANCH   5  11
BRANCH   4  14
ATOM     14  C   UNL     1      33.341 -14.446 -24.944  0.00  0.00    +0.137 C 
BRANCH  14  16
ATOM     15  O   UNL     1      34.498 -16.346 -25.934  0.00  0.00    -0.250 OA
ATOM     16  C   UNL     1      33.500 -15.643 -25.860  0.00  0.00    +0.318 C 
BRANCH  16  17
ATOM     17  O   UNL     1      32.387 -15.858 -26.610  0.00  0.00    -0.480 OA
ATOM     18  H   UNL     1      31.908 -16.658 -26.516  0.00  0.00    +0.295 HD
ENDBRANCH  16  17
ENDBRANCH  14  16
ENDBRANCH   4  14
BRANCH   7  19
ATOM     19  C   UNL     1      30.876 -11.296 -21.110  0.00  0.00    +0.126 C 
BRANCH  19  22
ATOM     20  O   UNL     1      31.705  -9.824 -22.835  0.00  0.00    -0.275 OA
ATOM     21  N   UNL     1      32.046  -9.211 -20.646  0.00  0.00    -0.328 N 
ATOM     22  C   UNL     1      31.584 -10.052 -21.633  0.00  0.00    +0.225 C 
ATOM     23  H   UNL     1      32.516  -8.381 -20.888  0.00  0.00    +0.145 HD
ATOM     24  H   UNL     1      31.904  -9.440 -19.700  0.00  0.00    +0.145 HD
ENDBRANCH  19  22
ENDBRANCH   7  19
TORSDOF 7
ENDMDL
MODEL 5
REMARK VINA RESULT:      -8.4      6.917      9.949
REMARK  Name = 447739
REMARK  7 active torsions:
REMARK  status: ('A' for Active; 'I' for Inactive)
REMARK    1  A    between atoms: C_4  and  C_14
REMARK    2  A    between atoms: C_5  and  C_11
REMARK    3  A    between atoms: C_7  and  C_19
REMARK    4  A    between atoms: C_11  and  C_12
REMARK    5  A    between atoms: C_14  and  C_16
REMARK    6  A    between atoms: C_16  and  O_17
REMARK    7  A    between atoms: C_19  and  C_22
REMARK                            x       y       z     vdW  Elec       q    Type
REMARK                         _______ _______ _______ _____ _____    ______ ____
ROOT
ATOM      1  N   UNL     1      35.128 -18.028 -20.996  0.00  0.00    -0.316 N 
ATOM      2  C   UNL     1      34.756 -17.262 -22.077  0.00  0.00    +0.045 C 
ATOM      3  C   UNL     1      34.817 -18.083 -23.205  0.00  0.00    +0.014 C 
ATOM      4  C   UNL     1      34.374 -15.916 -22.143  0.00  0.00    +0.002 C 
ATOM      5  C   UNL     1      34.098 -16.195 -24.541  0.00  0.00    -0.022 C 
ATOM      6  C   UNL     1      34.481 -17.538 -24.460  0.00  0.00    -0.003 C 
ATOM      7  C   UNL     1      35.421 -19.304 -21.400  0.00  0.00    +0.035 C 
ATOM      8  C   UNL     1      34.046 -15.398 -23.398  0.00  0.00    -0.007 C 
ATOM      9  C   UNL     1      35.237 -19.368 -22.762  0.00  0.00    +0.012 C 
ATOM     10  H   UNL     1      35.177 -17.707 -20.067  0.00  0.00    +0.152 HD
ENDROOT
BRANCH   5  11
ATOM     11  C   UNL     1      33.740 -15.611 -25.867  0.00  0.00    +0.026 C 
BRANCH  11  12
ATOM     12  C   UNL     1      33.043 -14.251 -25.733  0.00  0.00    +0.005 C 
ATOM     13  C   UNL     1      33.219 -13.398 -26.979  0.00  0.00    +0.000 C 
ENDBRANCH  11  12
ENDBRANCH   5  11
BRANCH   4  14
ATOM     14  C   UNL     1      34.309 -15.035 -20.940  0.00  0.00    +0.137 C 
BRANCH  14  16
ATOM     15  O   UNL     1      32.513 -13.445 -20.519  0.00  0.00    -0.250 OA
ATOM     16  C   UNL     1      32.901 -14.604 -20.582  0.00  0.00    +0.318 C 
BRANCH  16  17
ATOM     17  O   UNL     1      32.094 -15.669 -20.334  0.00  0.00    -0.480 OA
ATOM     18  H   UNL     1      32.468 -16.518 -20.200  0.00  0.00    +0.295 HD
ENDBRANCH  16  17
ENDBRANCH  14  16
ENDBRANCH   4  14
BRANCH   7  19
ATOM     19  C   UNL     1      35.849 -20.333 -20.435  0.00  0.00    +0.126 C 
BRANCH  19  22
ATOM     20  O   UNL     1      33.493 -20.583 -19.966  0.00  0.00    -0.275 OA
ATOM     21  N   UNL     1      34.934 -22.144 -19.087  0.00  0.00    -0.328 N 
ATOM     22  C   UNL     1      34.635 -21.011 -19.810  0.00  0.00    +0.225 C 
ATOM     23  H   UNL     1      34.214 -22.650 -18.646  0.00  0.00    +0.145 HD
ATOM     24  H   UNL     1      35.867 -22.447 -19.012  0.00  0.00    +0.145 HD
ENDBRANCH  19  22
ENDBRANCH   7  19
TORSDOF 7
ENDMDL
MODEL 6
REMARK VINA RESULT:      -8.3      8.413     11.991
REMARK  Name = 447739
REMARK  7 active torsions:
REMARK  status: ('A' for Active; 'I' for Inactive)
REMARK    1  A    between atoms: C_4  and  C_14
REMARK    2  A    between atoms: C_5  and  C_11
REMARK    3  A    between atoms: C_7  and  C_19
REMARK    4  A    between atoms: C_11  and  C_12
REMARK    5  A    between atoms: C_14  and  C_16
REMARK    6  A    between atoms: C_16  and  O_17
REMARK    7  A    between atoms: C_19  and  C_22
REMARK                            x       y       z     vdW  Elec       q    Type
REMARK                         _______ _______ _______ _____ _____    ______ ____
ROOT
ATOM      1  N   UNL     1      33.999 -15.580 -23.868  0.00  0.00    -0.316 N 
ATOM      2  C   UNL     1      34.518 -16.477 -22.962  0.00  0.00    +0.045 C 
ATOM      3  C   UNL     1      34.774 -17.661 -23.656  0.00  0.00    +0.014 C 
ATOM      4  C   UNL     1      34.778 -16.333 -21.594  0.00  0.00    +0.002 C 
ATOM      5  C   UNL     1      35.581 -18.626 -21.586  0.00  0.00    -0.022 C 
ATOM      6  C   UNL     1      35.316 -18.756 -22.954  0.00  0.00    -0.003 C 
ATOM      7  C   UNL     1      33.918 -16.154 -25.108  0.00  0.00    +0.035 C 
ATOM      8  C   UNL     1      35.315 -17.432 -20.919  0.00  0.00    -0.007 C 
ATOM      9  C   UNL     1      34.391 -17.443 -25.009  0.00  0.00    +0.012 C 
ATOM     10  H   UNL     1      33.725 -14.659 -23.655  0.00  0.00    +0.152 HD
ENDROOT
BRANCH   5  11
ATOM     11  C   UNL     1      36.156 -19.782 -20.836  0.00  0.00    +0.026 C 
BRANCH  11  12
ATOM     12  C   UNL     1      35.070 -20.645 -20.180  0.00  0.00    +0.005 C 
ATOM     13  C   UNL     1      35.648 -21.591 -19.140  0.00  0.00    +0.000 C 
ENDBRANCH  11  12
ENDBRANCH   5  11
BRANCH   4  14
ATOM     14  C   UNL     1      34.505 -15.069 -20.848  0.00  0.00    +0.137 C 
BRANCH  14  16
ATOM     15  O   UNL     1      32.282 -15.189 -19.862  0.00  0.00    -0.250 OA
ATOM     16  C   UNL     1      33.029 -14.747 -20.724  0.00  0.00    +0.318 C 
BRANCH  16  17
ATOM     17  O   UNL     1      32.613 -13.895 -21.697  0.00  0.00    -0.480 OA
ATOM     18  H   UNL     1      32.176 -14.229 -22.456  0.00  0.00    +0.295 HD
ENDBRANCH  16  17
ENDBRANCH  14  16
ENDBRANCH   4  14
BRANCH   7  19
ATOM     19  C   UNL     1      33.393 -15.407 -26.266  0.00  0.00    +0.126 C 
BRANCH  19  22
ATOM     20  O   UNL     1      32.629 -13.683 -24.757  0.00  0.00    -0.275 OA
ATOM     21  N   UNL     1      33.340 -13.043 -26.847  0.00  0.00    -0.328 N 
ATOM     22  C   UNL     1      33.071 -13.971 -25.867  0.00  0.00    +0.225 C 
ATOM     23  H   UNL     1      33.164 -12.088 -26.682  0.00  0.00    +0.145 HD
ATOM     24  H   UNL     1      33.709 -13.333 -27.712  0.00  0.00    +0.145 HD
ENDBRANCH  19  22
ENDBRANCH   7  19
TORSDOF 7
ENDMDL
MODEL 7
REMARK VINA RESULT:      -8.2      3.579      6.662
REMARK  Name = 447739
REMARK  7 active torsions:
REMARK  status: ('A' for Active; 'I' for Inactive)
REMARK    1  A    between atoms: C_4  and  C_14
REMARK    2  A    between atoms: C_5  and  C_11
REMARK    3  A    between atoms: C_7  and  C_19
REMARK    4  A    between atoms: C_11  and  C_12
REMARK    5  A    between atoms: C_14  and  C_16
REMARK    6  A    between atoms: C_16  and  O_17
REMARK    7  A    between atoms: C_19  and  C_22
REMARK                            x       y       z     vdW  Elec       q    Type
REMARK                         _______ _______ _______ _____ _____    ______ ____
ROOT
ATOM      1  N   UNL     1      30.515 -22.637 -16.633  0.00  0.00    -0.316 N 
ATOM      2  C   UNL     1      31.787 -23.036 -16.289  0.00  0.00    +0.045 C 
ATOM      3  C   UNL     1      31.720 -23.556 -14.995  0.00  0.00    +0.014 C 
ATOM      4  C   UNL     1      32.981 -22.976 -17.018  0.00  0.00    +0.002 C 
ATOM      5  C   UNL     1      34.101 -23.987 -15.113  0.00  0.00    -0.022 C 
ATOM      6  C   UNL     1      32.900 -24.040 -14.397  0.00  0.00    -0.003 C 
ATOM      7  C   UNL     1      29.648 -22.887 -15.603  0.00  0.00    +0.035 C 
ATOM      8  C   UNL     1      34.138 -23.462 -16.404  0.00  0.00    -0.007 C 
ATOM      9  C   UNL     1      30.365 -23.456 -14.576  0.00  0.00    +0.012 C 
ATOM     10  H   UNL     1      30.265 -22.231 -17.494  0.00  0.00    +0.152 HD
ENDROOT
BRANCH   5  11
ATOM     11  C   UNL     1      35.355 -24.499 -14.486  0.00  0.00    +0.026 C 
BRANCH  11  12
ATOM     12  C   UNL     1      36.131 -23.395 -13.756  0.00  0.00    +0.005 C 
ATOM     13  C   UNL     1      36.011 -23.521 -12.246  0.00  0.00    +0.000 C 
ENDBRANCH  11  12
ENDBRANCH   5  11
BRANCH   4  14
ATOM     14  C   UNL     1      33.057 -22.420 -18.401  0.00  0.00    +0.137 C 
BRANCH  14  16
ATOM     15  O   UNL     1      35.289 -22.373 -19.373  0.00  0.00    -0.250 OA
ATOM     16  C   UNL     1      34.225 -22.954 -19.204  0.00  0.00    +0.318 C 
BRANCH  16  17
ATOM     17  O   UNL     1      33.960 -24.179 -19.730  0.00  0.00    -0.480 OA
ATOM     18  H   UNL     1      33.923 -24.290 -20.660  0.00  0.00    +0.295 HD
ENDBRANCH  16  17
ENDBRANCH  14  16
ENDBRANCH   4  14
BRANCH   7  19
ATOM     19  C   UNL     1      28.215 -22.554 -15.710  0.00  0.00    +0.126 C 
BRANCH  19  22
ATOM     20  O   UNL     1      27.869 -24.091 -17.541  0.00  0.00    -0.275 OA
ATOM     21  N   UNL     1      26.940 -21.995 -17.708  0.00  0.00    -0.328 N 
ATOM     22  C   UNL     1      27.675 -22.971 -17.073  0.00  0.00    +0.225 C 
ATOM     23  H   UNL     1      26.550 -22.173 -18.594  0.00  0.00    +0.145 HD
ATOM     24  H   UNL     1      26.804 -21.122 -17.276  0.00  0.00    +0.145 HD
ENDBRANCH  19  22
ENDBRANCH   7  19
TORSDOF 7
ENDMDL
MODEL 8
REMARK VINA RESULT:      -8.2     10.965     13.745
REMARK  Name = 447739
REMARK  7 active torsions:
REMARK  status: ('A' for Active; 'I' for Inactive)
REMARK    1  A    between atoms: C_4  and  C_14
REMARK    2  A    between atoms: C_5  and  C_11
REMARK    3  A    between atoms: C_7  and  C_19
REMARK    4  A    between atoms: C_11  and  C_12
REMARK    5  A    between atoms: C_14  and  C_16
REMARK    6  A    between atoms: C_16  and  O_17
REMARK    7  A    between atoms: C_19  and  C_22
REMARK                            x       y       z     vdW  Elec       q    Type
REMARK                         _______ _______ _______ _____ _____    ______ ____
ROOT
ATOM      1  N   UNL     1      32.039 -13.067 -23.113  0.00  0.00    -0.316 N 
ATOM      2  C   UNL     1      32.883 -14.140 -23.282  0.00  0.00    +0.045 C 
ATOM      3  C   UNL     1      33.359 -14.494 -22.018  0.00  0.00    +0.014 C 
ATOM      4  C   UNL     1      33.259 -14.820 -24.448  0.00  0.00    +0.002 C 
ATOM      5  C   UNL     1      34.638 -16.265 -23.065  0.00  0.00    -0.022 C 
ATOM      6  C   UNL     1      34.254 -15.577 -21.908  0.00  0.00    -0.003 C 
ATOM      7  C   UNL     1      31.964 -12.730 -21.787  0.00  0.00    +0.035 C 
ATOM      8  C   UNL     1      34.147 -15.890 -24.314  0.00  0.00    -0.007 C 
ATOM      9  C   UNL     1      32.771 -13.596 -21.085  0.00  0.00    +0.012 C 
ATOM     10  H   UNL     1      31.558 -12.607 -23.838  0.00  0.00    +0.152 HD
ENDROOT
BRANCH   5  11
ATOM     11  C   UNL     1      35.585 -17.414 -22.956  0.00  0.00    +0.026 C 
BRANCH  11  12
ATOM     12  C   UNL     1      35.406 -18.190 -21.644  0.00  0.00    +0.005 C 
ATOM     13  C   UNL     1      34.549 -19.432 -21.832  0.00  0.00    +0.000 C 
ENDBRANCH  11  12
ENDBRANCH   5  11
BRANCH   4  14
ATOM     14  C   UNL     1      32.753 -14.444 -25.801  0.00  0.00    +0.137 C 
BRANCH  14  16
ATOM     15  O   UNL     1      33.697 -12.200 -25.827  0.00  0.00    -0.250 OA
ATOM     16  C   UNL     1      33.470 -13.254 -26.405  0.00  0.00    +0.318 C 
BRANCH  16  17
ATOM     17  O   UNL     1      33.844 -13.487 -27.690  0.00  0.00    -0.480 OA
ATOM     18  H   UNL     1      34.333 -14.258 -27.902  0.00  0.00    +0.295 HD
ENDBRANCH  16  17
ENDBRANCH  14  16
ENDBRANCH   4  14
BRANCH   7  19
ATOM     19  C   UNL     1      31.125 -11.608 -21.328  0.00  0.00    +0.126 C 
BRANCH  19  22
ATOM     20  O   UNL     1      32.011 -10.022 -22.919  0.00  0.00    -0.275 OA
ATOM     21  N   UNL     1      31.943  -9.400 -20.707  0.00  0.00    -0.328 N 
ATOM     22  C   UNL     1      31.742 -10.279 -21.748  0.00  0.00    +0.225 C 
ATOM     23  H   UNL     1      32.337  -8.515 -20.881  0.00  0.00    +0.145 HD
ATOM     24  H   UNL     1      31.692  -9.656 -19.791  0.00  0.00    +0.145 HD
ENDBRANCH  19  22
ENDBRANCH   7  19
TORSDOF 7
ENDMDL
MODEL 9
REMARK VINA RESULT:      -8.1     11.893     14.774
REMARK  Name = 447739
REMARK  7 active torsions:
REMARK  status: ('A' for Active; 'I' for Inactive)
REMARK    1  A    between atoms: C_4  and  C_14
REMARK    2  A    between atoms: C_5  and  C_11
REMARK    3  A    between atoms: C_7  and  C_19
REMARK    4  A    between atoms: C_11  and  C_12
REMARK    5  A    between atoms: C_14  and  C_16
REMARK    6  A    between atoms: C_16  and  O_17
REMARK    7  A    between atoms: C_19  and  C_22
REMARK                            x       y       z     vdW  Elec       q    Type
REMARK                         _______ _______ _______ _____ _____    ______ ____
ROOT
ATOM      1  N   UNL     1      32.533 -12.908 -23.043  0.00  0.00    -0.316 N 
ATOM      2  C   UNL     1      32.593 -11.536 -22.959  0.00  0.00    +0.045 C 
ATOM      3  C   UNL     1      33.536 -11.107 -23.895  0.00  0.00    +0.014 C 
ATOM      4  C   UNL     1      31.891 -10.649 -22.134  0.00  0.00    +0.002 C 
ATOM      5  C   UNL     1      33.099  -8.829 -23.197  0.00  0.00    -0.022 C 
ATOM      6  C   UNL     1      33.793  -9.727 -24.015  0.00  0.00    -0.003 C 
ATOM      7  C   UNL     1      33.404 -13.361 -23.998  0.00  0.00    +0.035 C 
ATOM      8  C   UNL     1      32.162  -9.285 -22.271  0.00  0.00    -0.007 C 
ATOM      9  C   UNL     1      34.039 -12.269 -24.543  0.00  0.00    +0.012 C 
ATOM     10  H   UNL     1      31.950 -13.482 -22.496  0.00  0.00    +0.152 HD
ENDROOT
BRANCH   5  11
ATOM     11  C   UNL     1      33.366  -7.365 -23.320  0.00  0.00    +0.026 C 
BRANCH  11  12
ATOM     12  C   UNL     1      34.616  -7.072 -24.159  0.00  0.00    +0.005 C 
ATOM     13  C   UNL     1      34.292  -6.235 -25.386  0.00  0.00    +0.000 C 
ENDBRANCH  11  12
ENDBRANCH   5  11
BRANCH   4  14
ATOM     14  C   UNL     1      30.882 -11.104 -21.132  0.00  0.00    +0.137 C 
BRANCH  14  16
ATOM     15  O   UNL     1      31.453 -10.868 -18.776  0.00  0.00    -0.250 OA
ATOM     16  C   UNL     1      31.491 -11.523 -19.809  0.00  0.00    +0.318 C 
BRANCH  16  17
ATOM     17  O   UNL     1      32.100 -12.735 -19.893  0.00  0.00    -0.480 OA
ATOM     18  H   UNL     1      31.903 -13.309 -20.608  0.00  0.00    +0.295 HD
ENDBRANCH  16  17
ENDBRANCH  14  16
ENDBRANCH   4  14
BRANCH   7  19
ATOM     19  C   UNL     1      33.539 -14.800 -24.291  0.00  0.00    +0.126 C 
BRANCH  19  22
ATOM     20  O   UNL     1      34.605 -15.136 -22.150  0.00  0.00    -0.275 OA
ATOM     21  N   UNL     1      35.337 -16.401 -23.923  0.00  0.00    -0.328 N 
ATOM     22  C   UNL     1      34.541 -15.443 -23.338  0.00  0.00    +0.225 C 
ATOM     23  H   UNL     1      36.015 -16.872 -23.387  0.00  0.00    +0.145 HD
ATOM     24  H   UNL     1      35.228 -16.616 -24.877  0.00  0.00    +0.145 HD
ENDBRANCH  19  22
ENDBRANCH   7  19
TORSDOF 7
ENDMDL
