MODEL 1
REMARK VINA RESULT:     -11.0      0.000      0.000
REMARK  Name = 23647659
REMARK  4 active torsions:
REMARK  status: ('A' for Active; 'I' for Inactive)
REMARK    1  A    between atoms: C_2  and  C_17
REMARK    2  A    between atoms: C_3  and  C_10
REMARK    3  A    between atoms: C_18  and  S_23
REMARK    4  A    between atoms: S_23  and  N_26
REMARK                            x       y       z     vdW  Elec       q    Type
REMARK                         _______ _______ _______ _____ _____    ______ ____
ROOT
ATOM      1  O   UNL     1      34.255 -17.524 -21.619  0.00  0.00    -0.454 OA
ATOM      2  C   UNL     1      34.758 -18.739 -21.958  0.00  0.00    +0.145 C 
ATOM      3  C   UNL     1      34.601 -16.668 -22.617  0.00  0.00    +0.143 C 
ATOM      4  C   UNL     1      35.423 -18.670 -23.160  0.00  0.00    +0.041 C 
ATOM      5  C   UNL     1      35.320 -17.324 -23.587  0.00  0.00    +0.040 C 
ENDROOT
BRANCH   3  10
ATOM      6  S   UNL     1      33.764 -15.463 -25.293  0.00  0.00    -0.027 S 
ATOM      7  O   UNL     1      33.425 -12.517 -22.912  0.00  0.00    -0.209 OA
ATOM      8  N   UNL     1      33.114 -12.956 -25.166  0.00  0.00    -0.311 NA
ATOM      9  N   UNL     1      32.964 -13.943 -27.335  0.00  0.00    -0.327 N 
ATOM     10  C   UNL     1      34.237 -15.302 -22.595  0.00  0.00    +0.031 C 
ATOM     11  C   UNL     1      33.855 -14.709 -23.757  0.00  0.00    +0.126 C 
ATOM     12  C   UNL     1      34.256 -14.433 -21.341  0.00  0.00    +0.036 C 
ATOM     13  C   UNL     1      33.450 -13.283 -23.865  0.00  0.00    +0.212 C 
ATOM     14  C   UNL     1      33.221 -13.948 -25.997  0.00  0.00    +0.222 C 
ATOM     15  H   UNL     1      33.084 -14.765 -27.863  0.00  0.00    +0.145 HD
ATOM     16  H   UNL     1      32.657 -13.116 -27.774  0.00  0.00    +0.145 HD
ENDBRANCH   3  10
BRANCH   2  17
ATOM     17  C   UNL     1      34.498 -19.802 -21.018  0.00  0.00    +0.035 C 
ATOM     18  C   UNL     1      33.992 -21.852 -19.194  0.00  0.00    +0.122 C 
ATOM     19  C   UNL     1      35.556 -20.535 -20.482  0.00  0.00    +0.004 C 
ATOM     20  C   UNL     1      33.187 -20.094 -20.642  0.00  0.00    +0.004 C 
ATOM     21  C   UNL     1      35.304 -21.560 -19.570  0.00  0.00    +0.020 C 
ATOM     22  C   UNL     1      32.933 -21.119 -19.730  0.00  0.00    +0.020 C 
BRANCH  18  23
ATOM     23  S   UNL     1      33.675 -23.138 -18.056  0.00  0.00    +0.057 S 
ATOM     24  O   UNL     1      33.644 -24.398 -18.785  0.00  0.00    -0.153 OA
ATOM     25  O   UNL     1      34.574 -22.982 -16.921  0.00  0.00    -0.153 OA
BRANCH  23  26
ATOM     26  N   UNL     1      32.089 -22.749 -17.558  0.00  0.00    -0.203 NA
ATOM     27  H   UNL     1      32.079 -21.811 -17.155  0.00  0.00    +0.144 HD
ATOM     28  H   UNL     1      31.778 -23.423 -16.858  0.00  0.00    +0.144 HD
ENDBRANCH  23  26
ENDBRANCH  18  23
ENDBRANCH   2  17
TORSDOF 4
ENDMDL
MODEL 2
REMARK VINA RESULT:     -11.0      1.604      2.404
REMARK  Name = 23647659
REMARK  4 active torsions:
REMARK  status: ('A' for Active; 'I' for Inactive)
REMARK    1  A    between atoms: C_2  and  C_17
REMARK    2  A    between atoms: C_3  and  C_10
REMARK    3  A    between atoms: C_18  and  S_23
REMARK    4  A    between atoms: S_23  and  N_26
REMARK                            x       y       z     vdW  Elec       q    Type
REMARK                         _______ _______ _______ _____ _____    ______ ____
ROOT
ATOM      1  O   UNL     1      34.424 -18.852 -22.500  0.00  0.00    -0.454 OA
ATOM      2  C   UNL     1      35.310 -19.167 -21.520  0.00  0.00    +0.145 C 
ATOM      3  C   UNL     1      35.026 -17.917 -23.282  0.00  0.00    +0.143 C 
ATOM      4  C   UNL     1      36.470 -18.444 -21.665  0.00  0.00    +0.041 C 
ATOM      5  C   UNL     1      36.285 -17.632 -22.810  0.00  0.00    +0.040 C 
ENDROOT
BRANCH   3  10
ATOM      6  S   UNL     1      34.462 -14.920 -23.149  0.00  0.00    -0.027 S 
ATOM      7  O   UNL     1      33.082 -15.876 -26.562  0.00  0.00    -0.209 OA
ATOM      8  N   UNL     1      33.287 -13.972 -25.257  0.00  0.00    -0.311 NA
ATOM      9  N   UNL     1      33.750 -12.379 -23.540  0.00  0.00    -0.327 N 
ATOM     10  C   UNL     1      34.385 -17.356 -24.411  0.00  0.00    +0.031 C 
ATOM     11  C   UNL     1      34.108 -16.025 -24.411  0.00  0.00    +0.126 C 
ATOM     12  C   UNL     1      33.969 -18.156 -25.642  0.00  0.00    +0.036 C 
ATOM     13  C   UNL     1      33.440 -15.317 -25.534  0.00  0.00    +0.212 C 
ATOM     14  C   UNL     1      33.752 -13.622 -24.096  0.00  0.00    +0.222 C 
ATOM     15  H   UNL     1      34.135 -12.239 -22.644  0.00  0.00    +0.145 HD
ATOM     16  H   UNL     1      33.363 -11.619 -24.033  0.00  0.00    +0.145 HD
ENDBRANCH   3  10
BRANCH   2  17
ATOM     17  C   UNL     1      34.858 -20.155 -20.571  0.00  0.00    +0.035 C 
ATOM     18  C   UNL     1      33.986 -22.071 -18.740  0.00  0.00    +0.122 C 
ATOM     19  C   UNL     1      33.493 -20.336 -20.348  0.00  0.00    +0.004 C 
ATOM     20  C   UNL     1      35.786 -20.932 -19.878  0.00  0.00    +0.004 C 
ATOM     21  C   UNL     1      33.057 -21.293 -19.432  0.00  0.00    +0.020 C 
ATOM     22  C   UNL     1      35.350 -21.891 -18.963  0.00  0.00    +0.020 C 
BRANCH  18  23
ATOM     23  S   UNL     1      33.440 -23.267 -17.591  0.00  0.00    +0.057 S 
ATOM     24  O   UNL     1      33.409 -24.562 -18.256  0.00  0.00    -0.153 OA
ATOM     25  O   UNL     1      34.199 -23.105 -16.359  0.00  0.00    -0.153 OA
BRANCH  23  26
ATOM     26  N   UNL     1      31.835 -22.749 -17.319  0.00  0.00    -0.203 NA
ATOM     27  H   UNL     1      31.832 -22.001 -16.624  0.00  0.00    +0.144 HD
ATOM     28  H   UNL     1      31.278 -23.532 -16.977  0.00  0.00    +0.144 HD
ENDBRANCH  23  26
ENDBRANCH  18  23
ENDBRANCH   2  17
TORSDOF 4
ENDMDL
MODEL 3
REMARK VINA RESULT:     -10.9      1.837      2.445
REMARK  Name = 23647659
REMARK  4 active torsions:
REMARK  status: ('A' for Active; 'I' for Inactive)
REMARK    1  A    between atoms: C_2  and  C_17
REMARK    2  A    between atoms: C_3  and  C_10
REMARK    3  A    between atoms: C_18  and  S_23
REMARK    4  A    between atoms: S_23  and  N_26
REMARK                            x       y       z     vdW  Elec       q    Type
REMARK                         _______ _______ _______ _____ _____    ______ ____
ROOT
ATOM      1  O   UNL     1      34.430 -18.247 -22.227  0.00  0.00    -0.454 OA
ATOM      2  C   UNL     1      35.399 -18.938 -21.572  0.00  0.00    +0.145 C 
ATOM      3  C   UNL     1      35.064 -17.323 -22.995  0.00  0.00    +0.143 C 
ATOM      4  C   UNL     1      36.645 -18.464 -21.911  0.00  0.00    +0.041 C 
ATOM      5  C   UNL     1      36.426 -17.415 -22.836  0.00  0.00    +0.040 C 
ENDROOT
BRANCH   3  10
ATOM      6  S   UNL     1      33.634 -15.038 -21.563  0.00  0.00    -0.027 S 
ATOM      7  O   UNL     1      32.808 -14.376 -25.216  0.00  0.00    -0.209 OA
ATOM      8  N   UNL     1      32.362 -13.429 -23.149  0.00  0.00    -0.311 NA
ATOM      9  N   UNL     1      32.229 -12.893 -20.826  0.00  0.00    -0.327 N 
ATOM     10  C   UNL     1      34.357 -16.419 -23.821  0.00  0.00    +0.031 C 
ATOM     11  C   UNL     1      33.699 -15.380 -23.241  0.00  0.00    +0.126 C 
ATOM     12  C   UNL     1      34.270 -16.539 -25.341  0.00  0.00    +0.036 C 
ATOM     13  C   UNL     1      32.922 -14.365 -23.998  0.00  0.00    +0.212 C 
ATOM     14  C   UNL     1      32.631 -13.635 -21.896  0.00  0.00    +0.222 C 
ATOM     15  H   UNL     1      32.500 -13.154 -19.916  0.00  0.00    +0.145 HD
ATOM     16  H   UNL     1      31.665 -12.097 -20.963  0.00  0.00    +0.145 HD
ENDBRANCH   3  10
BRANCH   2  17
ATOM     17  C   UNL     1      34.929 -19.980 -20.692  0.00  0.00    +0.035 C 
ATOM     18  C   UNL     1      34.018 -21.991 -18.986  0.00  0.00    +0.122 C 
ATOM     19  C   UNL     1      35.842 -20.814 -20.047  0.00  0.00    +0.004 C 
ATOM     20  C   UNL     1      33.561 -20.152 -20.483  0.00  0.00    +0.004 C 
ATOM     21  C   UNL     1      35.387 -21.820 -19.195  0.00  0.00    +0.020 C 
ATOM     22  C   UNL     1      33.104 -21.157 -19.630  0.00  0.00    +0.020 C 
BRANCH  18  23
ATOM     23  S   UNL     1      33.448 -23.252 -17.921  0.00  0.00    +0.057 S 
ATOM     24  O   UNL     1      32.159 -22.845 -17.377  0.00  0.00    -0.153 OA
ATOM     25  O   UNL     1      33.570 -24.529 -18.610  0.00  0.00    -0.153 OA
BRANCH  23  26
ATOM     26  N   UNL     1      34.618 -23.184 -16.679  0.00  0.00    -0.203 NA
ATOM     27  H   UNL     1      34.443 -22.369 -16.091  0.00  0.00    +0.144 HD
ATOM     28  H   UNL     1      35.548 -23.112 -17.092  0.00  0.00    +0.144 HD
ENDBRANCH  23  26
ENDBRANCH  18  23
ENDBRANCH   2  17
TORSDOF 4
ENDMDL
MODEL 4
REMARK VINA RESULT:     -10.7      3.092      4.337
REMARK  Name = 23647659
REMARK  4 active torsions:
REMARK  status: ('A' for Active; 'I' for Inactive)
REMARK    1  A    between atoms: C_2  and  C_17
REMARK    2  A    between atoms: C_3  and  C_10
REMARK    3  A    between atoms: C_18  and  S_23
REMARK    4  A    between atoms: S_23  and  N_26
REMARK                            x       y       z     vdW  Elec       q    Type
REMARK                         _______ _______ _______ _____ _____    ______ ____
ROOT
ATOM      1  O   UNL     1      34.994 -20.320 -20.527  0.00  0.00    -0.454 OA
ATOM      2  C   UNL     1      34.259 -21.003 -19.611  0.00  0.00    +0.145 C 
ATOM      3  C   UNL     1      34.114 -19.804 -21.425  0.00  0.00    +0.143 C 
ATOM      4  C   UNL     1      32.920 -20.931 -19.914  0.00  0.00    +0.041 C 
ATOM      5  C   UNL     1      32.826 -20.152 -21.092  0.00  0.00    +0.040 C 
ENDROOT
BRANCH   3  10
ATOM      6  S   UNL     1      34.171 -16.784 -20.987  0.00  0.00    -0.027 S 
ATOM      7  O   UNL     1      35.351 -17.126 -24.587  0.00  0.00    -0.209 OA
ATOM      8  N   UNL     1      34.953 -15.431 -23.057  0.00  0.00    -0.311 NA
ATOM      9  N   UNL     1      34.398 -14.130 -21.133  0.00  0.00    -0.327 N 
ATOM     10  C   UNL     1      34.534 -19.026 -22.528  0.00  0.00    +0.031 C 
ATOM     11  C   UNL     1      34.581 -17.674 -22.394  0.00  0.00    +0.126 C 
ATOM     12  C   UNL     1      34.934 -19.607 -23.881  0.00  0.00    +0.036 C 
ATOM     13  C   UNL     1      35.004 -16.747 -23.476  0.00  0.00    +0.212 C 
ATOM     14  C   UNL     1      34.553 -15.291 -21.830  0.00  0.00    +0.222 C 
ATOM     15  H   UNL     1      34.085 -14.153 -20.200  0.00  0.00    +0.145 HD
ATOM     16  H   UNL     1      34.600 -13.267 -21.564  0.00  0.00    +0.145 HD
ENDBRANCH   3  10
BRANCH   2  17
ATOM     17  C   UNL     1      35.015 -21.635 -18.557  0.00  0.00    +0.035 C 
ATOM     18  C   UNL     1      36.475 -22.854 -16.516  0.00  0.00    +0.122 C 
ATOM     19  C   UNL     1      36.378 -21.373 -18.422  0.00  0.00    +0.004 C 
ATOM     20  C   UNL     1      34.382 -22.507 -17.672  0.00  0.00    +0.004 C 
ATOM     21  C   UNL     1      37.108 -21.982 -17.402  0.00  0.00    +0.020 C 
ATOM     22  C   UNL     1      35.112 -23.117 -16.651  0.00  0.00    +0.020 C 
BRANCH  18  23
ATOM     23  S   UNL     1      37.389 -23.621 -15.241  0.00  0.00    +0.057 S 
ATOM     24  O   UNL     1      38.805 -23.512 -15.563  0.00  0.00    -0.153 OA
ATOM     25  O   UNL     1      36.899 -23.129 -13.962  0.00  0.00    -0.153 OA
BRANCH  23  26
ATOM     26  N   UNL     1      36.905 -25.248 -15.426  0.00  0.00    -0.203 NA
ATOM     27  H   UNL     1      36.060 -25.416 -14.879  0.00  0.00    +0.144 HD
ATOM     28  H   UNL     1      37.650 -25.864 -15.099  0.00  0.00    +0.144 HD
ENDBRANCH  23  26
ENDBRANCH  18  23
ENDBRANCH   2  17
TORSDOF 4
ENDMDL
MODEL 5
REMARK VINA RESULT:     -10.6      2.268      3.136
REMARK  Name = 23647659
REMARK  4 active torsions:
REMARK  status: ('A' for Active; 'I' for Inactive)
REMARK    1  A    between atoms: C_2  and  C_17
REMARK    2  A    between atoms: C_3  and  C_10
REMARK    3  A    between atoms: C_18  and  S_23
REMARK    4  A    between atoms: S_23  and  N_26
REMARK                            x       y       z     vdW  Elec       q    Type
REMARK                         _______ _______ _______ _____ _____    ______ ____
ROOT
ATOM      1  O   UNL     1      35.133 -19.837 -21.579  0.00  0.00    -0.454 OA
ATOM      2  C   UNL     1      36.051 -20.075 -20.607  0.00  0.00    +0.145 C 
ATOM      3  C   UNL     1      35.732 -19.022 -22.488  0.00  0.00    +0.143 C 
ATOM      4  C   UNL     1      37.229 -19.421 -20.882  0.00  0.00    +0.041 C 
ATOM      5  C   UNL     1      37.021 -18.737 -22.104  0.00  0.00    +0.040 C 
ENDROOT
BRANCH   3  10
ATOM      6  S   UNL     1      35.008 -16.057 -22.536  0.00  0.00    -0.027 S 
ATOM      7  O   UNL     1      33.679 -17.293 -25.879  0.00  0.00    -0.209 OA
ATOM      8  N   UNL     1      33.782 -15.305 -24.694  0.00  0.00    -0.311 NA
ATOM      9  N   UNL     1      34.161 -13.586 -23.079  0.00  0.00    -0.327 N 
ATOM     10  C   UNL     1      35.061 -18.566 -23.646  0.00  0.00    +0.031 C 
ATOM     11  C   UNL     1      34.713 -17.255 -23.726  0.00  0.00    +0.126 C 
ATOM     12  C   UNL     1      34.687 -19.462 -24.824  0.00  0.00    +0.036 C 
ATOM     13  C   UNL     1      34.007 -16.654 -24.888  0.00  0.00    +0.212 C 
ATOM     14  C   UNL     1      34.229 -14.860 -23.558  0.00  0.00    +0.222 C 
ATOM     15  H   UNL     1      34.538 -13.371 -22.196  0.00  0.00    +0.145 HD
ATOM     16  H   UNL     1      33.732 -12.880 -23.617  0.00  0.00    +0.145 HD
ENDBRANCH   3  10
BRANCH   2  17
ATOM     17  C   UNL     1      35.608 -20.930 -19.533  0.00  0.00    +0.035 C 
ATOM     18  C   UNL     1      34.746 -22.580 -17.455  0.00  0.00    +0.122 C 
ATOM     19  C   UNL     1      36.478 -21.253 -18.493  0.00  0.00    +0.004 C 
ATOM     20  C   UNL     1      34.307 -21.433 -19.535  0.00  0.00    +0.004 C 
ATOM     21  C   UNL     1      36.048 -22.078 -17.454  0.00  0.00    +0.020 C 
ATOM     22  C   UNL     1      33.875 -22.258 -18.496  0.00  0.00    +0.020 C 
BRANCH  18  23
ATOM     23  S   UNL     1      34.208 -23.616 -16.156  0.00  0.00    +0.057 S 
ATOM     24  O   UNL     1      32.765 -23.779 -16.267  0.00  0.00    -0.153 OA
ATOM     25  O   UNL     1      35.067 -24.790 -16.116  0.00  0.00    -0.153 OA
BRANCH  23  26
ATOM     26  N   UNL     1      34.550 -22.639 -14.798  0.00  0.00    -0.203 NA
ATOM     27  H   UNL     1      35.528 -22.348 -14.825  0.00  0.00    +0.144 HD
ATOM     28  H   UNL     1      34.377 -23.171 -13.944  0.00  0.00    +0.144 HD
ENDBRANCH  23  26
ENDBRANCH  18  23
ENDBRANCH   2  17
TORSDOF 4
ENDMDL
MODEL 6
REMARK VINA RESULT:     -10.5      3.192      8.418
REMARK  Name = 23647659
REMARK  4 active torsions:
REMARK  status: ('A' for Active; 'I' for Inactive)
REMARK    1  A    between atoms: C_2  and  C_17
REMARK    2  A    between atoms: C_3  and  C_10
REMARK    3  A    between atoms: C_18  and  S_23
REMARK    4  A    between atoms: S_23  and  N_26
REMARK                            x       y       z     vdW  Elec       q    Type
REMARK                         _______ _______ _______ _____ _____    ______ ____
ROOT
ATOM      1  O   UNL     1      34.745 -16.983 -21.676  0.00  0.00    -0.454 OA
ATOM      2  C   UNL     1      34.154 -16.289 -22.683  0.00  0.00    +0.145 C 
ATOM      3  C   UNL     1      35.308 -18.083 -22.241  0.00  0.00    +0.143 C 
ATOM      4  C   UNL     1      34.331 -16.934 -23.885  0.00  0.00    +0.041 C 
ATOM      5  C   UNL     1      35.081 -18.100 -23.596  0.00  0.00    +0.040 C 
ENDROOT
BRANCH   3  10
ATOM      6  S   UNL     1      33.603 -20.032 -20.625  0.00  0.00    -0.027 S 
ATOM      7  O   UNL     1      37.146 -21.143 -19.799  0.00  0.00    -0.209 OA
ATOM      8  N   UNL     1      34.977 -21.753 -19.256  0.00  0.00    -0.311 NA
ATOM      9  N   UNL     1      32.606 -21.944 -19.053  0.00  0.00    -0.327 N 
ATOM     10  C   UNL     1      36.016 -19.041 -21.478  0.00  0.00    +0.031 C 
ATOM     11  C   UNL     1      35.311 -19.937 -20.737  0.00  0.00    +0.126 C 
ATOM     12  C   UNL     1      37.538 -19.131 -21.420  0.00  0.00    +0.036 C 
ATOM     13  C   UNL     1      35.936 -20.990 -19.895  0.00  0.00    +0.212 C 
ATOM     14  C   UNL     1      33.759 -21.392 -19.524  0.00  0.00    +0.222 C 
ATOM     15  H   UNL     1      31.735 -21.578 -19.331  0.00  0.00    +0.145 HD
ATOM     16  H   UNL     1      32.643 -22.708 -18.433  0.00  0.00    +0.145 HD
ENDBRANCH   3  10
BRANCH   2  17
ATOM     17  C   UNL     1      33.490 -15.070 -22.289  0.00  0.00    +0.035 C 
ATOM     18  C   UNL     1      32.211 -12.710 -21.528  0.00  0.00    +0.122 C 
ATOM     19  C   UNL     1      33.129 -14.871 -20.957  0.00  0.00    +0.004 C 
ATOM     20  C   UNL     1      33.210 -14.090 -23.241  0.00  0.00    +0.004 C 
ATOM     21  C   UNL     1      32.490 -13.692 -20.576  0.00  0.00    +0.020 C 
ATOM     22  C   UNL     1      32.571 -12.909 -22.861  0.00  0.00    +0.020 C 
BRANCH  18  23
ATOM     23  S   UNL     1      31.407 -11.235 -21.052  0.00  0.00    +0.057 S 
ATOM     24  O   UNL     1      32.102 -10.114 -21.669  0.00  0.00    -0.153 OA
ATOM     25  O   UNL     1      29.976 -11.401 -21.262  0.00  0.00    -0.153 OA
BRANCH  23  26
ATOM     26  N   UNL     1      31.717 -11.222 -19.373  0.00  0.00    -0.203 NA
ATOM     27  H   UNL     1      30.837 -11.299 -18.863  0.00  0.00    +0.144 HD
ATOM     28  H   UNL     1      32.181 -10.349 -19.120  0.00  0.00    +0.144 HD
ENDBRANCH  23  26
ENDBRANCH  18  23
ENDBRANCH   2  17
TORSDOF 4
ENDMDL
MODEL 7
REMARK VINA RESULT:     -10.5      5.062     11.297
REMARK  Name = 23647659
REMARK  4 active torsions:
REMARK  status: ('A' for Active; 'I' for Inactive)
REMARK    1  A    between atoms: C_2  and  C_17
REMARK    2  A    between atoms: C_3  and  C_10
REMARK    3  A    between atoms: C_18  and  S_23
REMARK    4  A    between atoms: S_23  and  N_26
REMARK                            x       y       z     vdW  Elec       q    Type
REMARK                         _______ _______ _______ _____ _____    ______ ____
ROOT
ATOM      1  O   UNL     1      35.414 -23.653 -16.701  0.00  0.00    -0.454 OA
ATOM      2  C   UNL     1      34.316 -22.990 -17.148  0.00  0.00    +0.145 C 
ATOM      3  C   UNL     1      35.000 -24.446 -15.678  0.00  0.00    +0.143 C 
ATOM      4  C   UNL     1      33.205 -23.349 -16.420  0.00  0.00    +0.041 C 
ATOM      5  C   UNL     1      33.650 -24.296 -15.467  0.00  0.00    +0.040 C 
ENDROOT
BRANCH   3  10
ATOM      6  S   UNL     1      35.812 -23.495 -12.894  0.00  0.00    -0.027 S 
ATOM      7  O   UNL     1      37.707 -26.775 -13.238  0.00  0.00    -0.209 OA
ATOM      8  N   UNL     1      37.444 -25.093 -11.666  0.00  0.00    -0.311 NA
ATOM      9  N   UNL     1      36.823 -23.134 -10.451  0.00  0.00    -0.327 N 
ATOM     10  C   UNL     1      35.890 -25.287 -14.971  0.00  0.00    +0.031 C 
ATOM     11  C   UNL     1      36.288 -24.917 -13.725  0.00  0.00    +0.126 C 
ATOM     12  C   UNL     1      36.452 -26.594 -15.523  0.00  0.00    +0.036 C 
ATOM     13  C   UNL     1      37.218 -25.712 -12.881  0.00  0.00    +0.212 C 
ATOM     14  C   UNL     1      36.806 -23.971 -11.526  0.00  0.00    +0.222 C 
ATOM     15  H   UNL     1      36.292 -22.304 -10.465  0.00  0.00    +0.145 HD
ATOM     16  H   UNL     1      37.366 -23.358  -9.661  0.00  0.00    +0.145 HD
ENDBRANCH   3  10
BRANCH   2  17
ATOM     17  C   UNL     1      34.544 -22.083 -18.246  0.00  0.00    +0.035 C 
ATOM     18  C   UNL     1      34.987 -20.326 -20.367  0.00  0.00    +0.122 C 
ATOM     19  C   UNL     1      33.466 -21.598 -18.986  0.00  0.00    +0.004 C 
ATOM     20  C   UNL     1      35.843 -21.690 -18.567  0.00  0.00    +0.004 C 
ATOM     21  C   UNL     1      33.687 -20.720 -20.047  0.00  0.00    +0.020 C 
ATOM     22  C   UNL     1      36.065 -20.811 -19.628  0.00  0.00    +0.020 C 
BRANCH  18  23
ATOM     23  S   UNL     1      35.264 -19.229 -21.697  0.00  0.00    +0.057 S 
ATOM     24  O   UNL     1      36.626 -18.723 -21.598  0.00  0.00    -0.153 OA
ATOM     25  O   UNL     1      34.819 -19.871 -22.926  0.00  0.00    -0.153 OA
BRANCH  23  26
ATOM     26  N   UNL     1      34.178 -17.969 -21.312  0.00  0.00    -0.203 NA
ATOM     27  H   UNL     1      33.334 -18.061 -21.878  0.00  0.00    +0.144 HD
ATOM     28  H   UNL     1      34.619 -17.069 -21.505  0.00  0.00    +0.144 HD
ENDBRANCH  23  26
ENDBRANCH  18  23
ENDBRANCH   2  17
TORSDOF 4
ENDMDL
MODEL 8
REMARK VINA RESULT:     -10.4      1.148      1.599
REMARK  Name = 23647659
REMARK  4 active torsions:
REMARK  status: ('A' for Active; 'I' for Inactive)
REMARK    1  A    between atoms: C_2  and  C_17
REMARK    2  A    between atoms: C_3  and  C_10
REMARK    3  A    between atoms: C_18  and  S_23
REMARK    4  A    between atoms: S_23  and  N_26
REMARK                            x       y       z     vdW  Elec       q    Type
REMARK                         _______ _______ _______ _____ _____    ______ ____
ROOT
ATOM      1  O   UNL     1      33.773 -16.882 -21.245  0.00  0.00    -0.454 OA
ATOM      2  C   UNL     1      34.524 -17.917 -21.702  0.00  0.00    +0.145 C 
ATOM      3  C   UNL     1      34.025 -15.827 -22.065  0.00  0.00    +0.143 C 
ATOM      4  C   UNL     1      35.254 -17.537 -22.803  0.00  0.00    +0.041 C 
ATOM      5  C   UNL     1      34.929 -16.179 -23.038  0.00  0.00    +0.040 C 
ENDROOT
BRANCH   3  10
ATOM      6  S   UNL     1      34.105 -13.939 -24.461  0.00  0.00    -0.027 S 
ATOM      7  O   UNL     1      32.228 -11.899 -21.856  0.00  0.00    -0.209 OA
ATOM      8  N   UNL     1      32.950 -11.655 -24.044  0.00  0.00    -0.311 NA
ATOM      9  N   UNL     1      33.896 -11.942 -26.218  0.00  0.00    -0.327 N 
ATOM     10  C   UNL     1      33.406 -14.569 -21.883  0.00  0.00    +0.031 C 
ATOM     11  C   UNL     1      33.409 -13.684 -22.915  0.00  0.00    +0.126 C 
ATOM     12  C   UNL     1      32.736 -14.126 -20.585  0.00  0.00    +0.036 C 
ATOM     13  C   UNL     1      32.794 -12.333 -22.850  0.00  0.00    +0.212 C 
ATOM     14  C   UNL     1      33.588 -12.333 -24.949  0.00  0.00    +0.222 C 
ATOM     15  H   UNL     1      34.388 -12.550 -26.815  0.00  0.00    +0.145 HD
ATOM     16  H   UNL     1      33.627 -11.049 -26.537  0.00  0.00    +0.145 HD
ENDBRANCH   3  10
BRANCH   2  17
ATOM     17  C   UNL     1      34.399 -19.148 -20.959  0.00  0.00    +0.035 C 
ATOM     18  C   UNL     1      34.160 -21.530 -19.526  0.00  0.00    +0.122 C 
ATOM     19  C   UNL     1      33.138 -19.620 -20.597  0.00  0.00    +0.004 C 
ATOM     20  C   UNL     1      35.541 -19.866 -20.603  0.00  0.00    +0.004 C 
ATOM     21  C   UNL     1      33.018 -20.811 -19.881  0.00  0.00    +0.020 C 
ATOM     22  C   UNL     1      35.422 -21.057 -19.887  0.00  0.00    +0.020 C 
BRANCH  18  23
ATOM     23  S   UNL     1      34.011 -23.018 -18.626  0.00  0.00    +0.057 S 
ATOM     24  O   UNL     1      33.954 -24.123 -19.573  0.00  0.00    -0.153 OA
ATOM     25  O   UNL     1      35.013 -23.023 -17.570  0.00  0.00    -0.153 OA
BRANCH  23  26
ATOM     26  N   UNL     1      32.470 -22.818 -17.918  0.00  0.00    -0.203 NA
ATOM     27  H   UNL     1      31.748 -23.020 -18.611  0.00  0.00    +0.144 HD
ATOM     28  H   UNL     1      32.368 -21.857 -17.592  0.00  0.00    +0.144 HD
ENDBRANCH  23  26
ENDBRANCH  18  23
ENDBRANCH   2  17
TORSDOF 4
ENDMDL
MODEL 9
REMARK VINA RESULT:     -10.1      2.339      9.156
REMARK  Name = 23647659
REMARK  4 active torsions:
REMARK  status: ('A' for Active; 'I' for Inactive)
REMARK    1  A    between atoms: C_2  and  C_17
REMARK    2  A    between atoms: C_3  and  C_10
REMARK    3  A    between atoms: C_18  and  S_23
REMARK    4  A    between atoms: S_23  and  N_26
REMARK                            x       y       z     vdW  Elec       q    Type
REMARK                         _______ _______ _______ _____ _____    ______ ____
ROOT
ATOM      1  O   UNL     1      34.656 -19.539 -20.487  0.00  0.00    -0.454 OA
ATOM      2  C   UNL     1      35.566 -18.740 -21.102  0.00  0.00    +0.145 C 
ATOM      3  C   UNL     1      35.351 -20.572 -19.942  0.00  0.00    +0.143 C 
ATOM      4  C   UNL     1      36.834 -19.252 -20.958  0.00  0.00    +0.041 C 
ATOM      5  C   UNL     1      36.694 -20.441 -20.204  0.00  0.00    +0.040 C 
ENDROOT
BRANCH   3  10
ATOM      6  S   UNL     1      36.818 -21.559 -17.454  0.00  0.00    -0.027 S 
ATOM      7  O   UNL     1      33.691 -23.723 -17.489  0.00  0.00    -0.209 OA
ATOM      8  N   UNL     1      35.586 -23.454 -16.184  0.00  0.00    -0.311 NA
ATOM      9  N   UNL     1      37.665 -22.767 -15.231  0.00  0.00    -0.327 N 
ATOM     10  C   UNL     1      34.715 -21.606 -19.217  0.00  0.00    +0.031 C 
ATOM     11  C   UNL     1      35.321 -22.087 -18.098  0.00  0.00    +0.126 C 
ATOM     12  C   UNL     1      33.383 -22.235 -19.615  0.00  0.00    +0.036 C 
ATOM     13  C   UNL     1      34.756 -23.171 -17.251  0.00  0.00    +0.212 C 
ATOM     14  C   UNL     1      36.661 -22.726 -16.151  0.00  0.00    +0.222 C 
ATOM     15  H   UNL     1      38.435 -22.159 -15.315  0.00  0.00    +0.145 HD
ATOM     16  H   UNL     1      37.621 -23.405 -14.482  0.00  0.00    +0.145 HD
ENDBRANCH   3  10
BRANCH   2  17
ATOM     17  C   UNL     1      35.025 -17.572 -21.753  0.00  0.00    +0.035 C 
ATOM     18  C   UNL     1      33.973 -15.313 -23.008  0.00  0.00    +0.122 C 
ATOM     19  C   UNL     1      34.987 -17.502 -23.145  0.00  0.00    +0.004 C 
ATOM     20  C   UNL     1      34.537 -16.512 -20.989  0.00  0.00    +0.004 C 
ATOM     21  C   UNL     1      34.461 -16.373 -23.773  0.00  0.00    +0.020 C 
ATOM     22  C   UNL     1      34.010 -15.382 -21.616  0.00  0.00    +0.020 C 
BRANCH  18  23
ATOM     23  S   UNL     1      33.318 -13.898 -23.794  0.00  0.00    +0.057 S 
ATOM     24  O   UNL     1      34.277 -12.811 -23.654  0.00  0.00    -0.153 OA
ATOM     25  O   UNL     1      32.848 -14.281 -25.118  0.00  0.00    -0.153 OA
BRANCH  23  26
ATOM     26  N   UNL     1      31.965 -13.572 -22.805  0.00  0.00    -0.203 NA
ATOM     27  H   UNL     1      32.275 -13.130 -21.939  0.00  0.00    +0.144 HD
ATOM     28  H   UNL     1      31.485 -14.446 -22.587  0.00  0.00    +0.144 HD
ENDBRANCH  23  26
ENDBRANCH  18  23
ENDBRANCH   2  17
TORSDOF 4
ENDMDL
