MODEL 1
REMARK VINA RESULT:     -10.4      0.000      0.000
REMARK  Name = 3071
REMARK  2 active torsions:
REMARK  status: ('A' for Active; 'I' for Inactive)
REMARK    1  A    between atoms: C_1  and  C_3
REMARK    2  A    between atoms: C_1  and  C_13
REMARK                            x       y       z     vdW  Elec       q    Type
REMARK                         _______ _______ _______ _____ _____    ______ ____
ROOT
ATOM      1  C   UNL     1      35.631 -18.662 -21.944  0.00  0.00    +0.055 C 
ENDROOT
BRANCH   1   3
ATOM      2  N   UNL     1      34.415 -17.320 -25.114  0.00  0.00    -0.312 N 
ATOM      3  C   UNL     1      35.094 -17.882 -23.077  0.00  0.00    -0.002 C 
ATOM      4  C   UNL     1      34.647 -16.531 -23.040  0.00  0.00    +0.011 C 
ATOM      5  C   UNL     1      34.226 -16.203 -24.331  0.00  0.00    +0.048 C 
ATOM      6  C   UNL     1      34.939 -18.340 -24.366  0.00  0.00    +0.058 C 
ATOM      7  C   UNL     1      34.560 -15.554 -22.030  0.00  0.00    +0.001 C 
ATOM      8  C   UNL     1      33.721 -14.942 -24.663  0.00  0.00    +0.015 C 
ATOM      9  C   UNL     1      34.056 -14.287 -22.347  0.00  0.00    +0.000 C 
ATOM     10  C   UNL     1      33.644 -13.988 -23.644  0.00  0.00    +0.001 C 
ATOM     11  H   UNL     1      34.203 -17.377 -26.074  0.00  0.00    +0.152 HD
ENDBRANCH   1   3
BRANCH   1  13
ATOM     12  N   UNL     1      32.688 -20.364 -20.612  0.00  0.00    -0.312 N 
ATOM     13  C   UNL     1      34.598 -19.516 -21.223  0.00  0.00    -0.002 C 
ATOM     14  C   UNL     1      34.885 -20.470 -20.245  0.00  0.00    +0.011 C 
ATOM     15  C   UNL     1      33.651 -21.003 -19.864  0.00  0.00    +0.048 C 
ATOM     16  C   UNL     1      33.267 -19.449 -21.448  0.00  0.00    +0.058 C 
ATOM     17  C   UNL     1      36.053 -20.956 -19.624  0.00  0.00    +0.001 C 
ATOM     18  C   UNL     1      33.527 -22.001 -18.891  0.00  0.00    +0.015 C 
ATOM     19  C   UNL     1      35.944 -21.955 -18.648  0.00  0.00    +0.000 C 
ATOM     20  C   UNL     1      34.699 -22.467 -18.290  0.00  0.00    +0.001 C 
ATOM     21  H   UNL     1      31.720 -20.541 -20.553  0.00  0.00    +0.152 HD
ENDBRANCH   1  13
TORSDOF 2
ENDMDL
MODEL 2
REMARK VINA RESULT:     -10.4      0.035      6.623
REMARK  Name = 3071
REMARK  2 active torsions:
REMARK  status: ('A' for Active; 'I' for Inactive)
REMARK    1  A    between atoms: C_1  and  C_3
REMARK    2  A    between atoms: C_1  and  C_13
REMARK                            x       y       z     vdW  Elec       q    Type
REMARK                         _______ _______ _______ _____ _____    ______ ____
ROOT
ATOM      1  C   UNL     1      35.614 -18.652 -21.951  0.00  0.00    +0.055 C 
ENDROOT
BRANCH   1   3
ATOM      2  N   UNL     1      32.691 -20.392 -20.625  0.00  0.00    -0.312 N 
ATOM      3  C   UNL     1      34.621 -19.494 -21.253  0.00  0.00    -0.002 C 
ATOM      4  C   UNL     1      34.889 -20.467 -20.250  0.00  0.00    +0.011 C 
ATOM      5  C   UNL     1      33.662 -21.016 -19.873  0.00  0.00    +0.048 C 
ATOM      6  C   UNL     1      33.261 -19.471 -21.461  0.00  0.00    +0.058 C 
ATOM      7  C   UNL     1      36.062 -20.935 -19.625  0.00  0.00    +0.001 C 
ATOM      8  C   UNL     1      33.548 -22.014 -18.898  0.00  0.00    +0.015 C 
ATOM      9  C   UNL     1      35.964 -21.933 -18.648  0.00  0.00    +0.000 C 
ATOM     10  C   UNL     1      34.725 -22.462 -18.292  0.00  0.00    +0.001 C 
ATOM     11  H   UNL     1      31.726 -20.582 -20.568  0.00  0.00    +0.152 HD
ENDBRANCH   1   3
BRANCH   1  13
ATOM     12  N   UNL     1      34.376 -17.338 -25.124  0.00  0.00    -0.312 N 
ATOM     13  C   UNL     1      35.054 -17.858 -23.122  0.00  0.00    -0.002 C 
ATOM     14  C   UNL     1      34.629 -16.529 -23.061  0.00  0.00    +0.011 C 
ATOM     15  C   UNL     1      34.199 -16.213 -24.352  0.00  0.00    +0.048 C 
ATOM     16  C   UNL     1      34.903 -18.351 -24.370  0.00  0.00    +0.058 C 
ATOM     17  C   UNL     1      34.554 -15.540 -22.060  0.00  0.00    +0.001 C 
ATOM     18  C   UNL     1      33.695 -14.952 -24.692  0.00  0.00    +0.015 C 
ATOM     19  C   UNL     1      34.052 -14.274 -22.386  0.00  0.00    +0.000 C 
ATOM     20  C   UNL     1      33.630 -13.988 -23.683  0.00  0.00    +0.001 C 
ATOM     21  H   UNL     1      34.156 -17.404 -26.082  0.00  0.00    +0.152 HD
ENDBRANCH   1  13
TORSDOF 2
ENDMDL
MODEL 3
REMARK VINA RESULT:     -10.2      1.787      6.531
REMARK  Name = 3071
REMARK  2 active torsions:
REMARK  status: ('A' for Active; 'I' for Inactive)
REMARK    1  A    between atoms: C_1  and  C_3
REMARK    2  A    between atoms: C_1  and  C_13
REMARK                            x       y       z     vdW  Elec       q    Type
REMARK                         _______ _______ _______ _____ _____    ______ ____
ROOT
ATOM      1  C   UNL     1      35.598 -17.749 -22.513  0.00  0.00    +0.055 C 
ENDROOT
BRANCH   1   3
ATOM      2  N   UNL     1      36.842 -20.193 -20.103  0.00  0.00    -0.312 N 
ATOM      3  C   UNL     1      35.829 -18.815 -21.517  0.00  0.00    -0.002 C 
ATOM      4  C   UNL     1      34.842 -19.660 -20.936  0.00  0.00    +0.011 C 
ATOM      5  C   UNL     1      35.504 -20.516 -20.052  0.00  0.00    +0.048 C 
ATOM      6  C   UNL     1      37.048 -19.166 -20.985  0.00  0.00    +0.058 C 
ATOM      7  C   UNL     1      33.446 -19.781 -21.078  0.00  0.00    +0.001 C 
ATOM      8  C   UNL     1      34.837 -21.489 -19.301  0.00  0.00    +0.015 C 
ATOM      9  C   UNL     1      32.765 -20.750 -20.333  0.00  0.00    +0.000 C 
ATOM     10  C   UNL     1      33.452 -21.589 -19.458  0.00  0.00    +0.001 C 
ATOM     11  H   UNL     1      37.549 -20.637 -19.579  0.00  0.00    +0.152 HD
ENDBRANCH   1   3
BRANCH   1  13
ATOM     12  N   UNL     1      34.044 -15.062 -20.591  0.00  0.00    -0.312 N 
ATOM     13  C   UNL     1      34.860 -16.532 -21.974  0.00  0.00    -0.002 C 
ATOM     14  C   UNL     1      34.170 -15.601 -22.752  0.00  0.00    +0.011 C 
ATOM     15  C   UNL     1      33.653 -14.668 -21.850  0.00  0.00    +0.048 C 
ATOM     16  C   UNL     1      34.787 -16.209 -20.664  0.00  0.00    +0.058 C 
ATOM     17  C   UNL     1      33.912 -15.430 -24.126  0.00  0.00    +0.001 C 
ATOM     18  C   UNL     1      32.890 -13.567 -22.257  0.00  0.00    +0.015 C 
ATOM     19  C   UNL     1      33.151 -14.334 -24.548  0.00  0.00    +0.000 C 
ATOM     20  C   UNL     1      32.649 -13.418 -23.625  0.00  0.00    +0.001 C 
ATOM     21  H   UNL     1      33.822 -14.587 -19.757  0.00  0.00    +0.152 HD
ENDBRANCH   1  13
TORSDOF 2
ENDMDL
MODEL 4
REMARK VINA RESULT:     -10.2      1.783      2.794
REMARK  Name = 3071
REMARK  2 active torsions:
REMARK  status: ('A' for Active; 'I' for Inactive)
REMARK    1  A    between atoms: C_1  and  C_3
REMARK    2  A    between atoms: C_1  and  C_13
REMARK                            x       y       z     vdW  Elec       q    Type
REMARK                         _______ _______ _______ _____ _____    ______ ____
ROOT
ATOM      1  C   UNL     1      35.690 -17.713 -22.516  0.00  0.00    +0.055 C 
ENDROOT
BRANCH   1   3
ATOM      2  N   UNL     1      34.016 -15.069 -20.636  0.00  0.00    -0.312 N 
ATOM      3  C   UNL     1      34.929 -16.552 -22.011  0.00  0.00    -0.002 C 
ATOM      4  C   UNL     1      34.211 -15.604 -22.793  0.00  0.00    +0.011 C 
ATOM      5  C   UNL     1      33.647 -14.685 -21.906  0.00  0.00    +0.048 C 
ATOM      6  C   UNL     1      34.791 -16.196 -20.689  0.00  0.00    +0.058 C 
ATOM      7  C   UNL     1      33.985 -15.441 -24.174  0.00  0.00    +0.001 C 
ATOM      8  C   UNL     1      32.866 -13.605 -22.333  0.00  0.00    +0.015 C 
ATOM      9  C   UNL     1      33.206 -14.365 -24.615  0.00  0.00    +0.000 C 
ATOM     10  C   UNL     1      32.656 -13.463 -23.707  0.00  0.00    +0.001 C 
ATOM     11  H   UNL     1      33.759 -14.600 -19.809  0.00  0.00    +0.152 HD
ENDBRANCH   1   3
BRANCH   1  13
ATOM     12  N   UNL     1      36.861 -20.197 -20.110  0.00  0.00    -0.312 N 
ATOM     13  C   UNL     1      35.895 -18.823 -21.496  0.00  0.00    -0.002 C 
ATOM     14  C   UNL     1      34.881 -19.622 -20.962  0.00  0.00    +0.011 C 
ATOM     15  C   UNL     1      35.518 -20.496 -20.078  0.00  0.00    +0.048 C 
ATOM     16  C   UNL     1      37.096 -19.169 -20.982  0.00  0.00    +0.058 C 
ATOM     17  C   UNL     1      33.485 -19.716 -21.121  0.00  0.00    +0.001 C 
ATOM     18  C   UNL     1      34.824 -21.463 -19.341  0.00  0.00    +0.015 C 
ATOM     19  C   UNL     1      32.777 -20.678 -20.390  0.00  0.00    +0.000 C 
ATOM     20  C   UNL     1      33.439 -21.537 -19.514  0.00  0.00    +0.001 C 
ATOM     21  H   UNL     1      37.553 -20.658 -19.582  0.00  0.00    +0.152 HD
ENDBRANCH   1  13
TORSDOF 2
ENDMDL
MODEL 5
REMARK VINA RESULT:     -10.1      1.370      6.615
REMARK  Name = 3071
REMARK  2 active torsions:
REMARK  status: ('A' for Active; 'I' for Inactive)
REMARK    1  A    between atoms: C_1  and  C_3
REMARK    2  A    between atoms: C_1  and  C_13
REMARK                            x       y       z     vdW  Elec       q    Type
REMARK                         _______ _______ _______ _____ _____    ______ ____
ROOT
ATOM      1  C   UNL     1      35.294 -17.172 -21.649  0.00  0.00    +0.055 C 
ENDROOT
BRANCH   1   3
ATOM      2  N   UNL     1      36.801 -20.272 -20.447  0.00  0.00    -0.312 N 
ATOM      3  C   UNL     1      35.635 -18.507 -21.117  0.00  0.00    -0.002 C 
ATOM      4  C   UNL     1      34.720 -19.500 -20.668  0.00  0.00    +0.011 C 
ATOM      5  C   UNL     1      35.477 -20.598 -20.254  0.00  0.00    +0.048 C 
ATOM      6  C   UNL     1      36.907 -19.011 -20.969  0.00  0.00    +0.058 C 
ATOM      7  C   UNL     1      33.316 -19.571 -20.575  0.00  0.00    +0.001 C 
ATOM      8  C   UNL     1      34.898 -21.767 -19.748  0.00  0.00    +0.015 C 
ATOM      9  C   UNL     1      32.723 -20.734 -20.071  0.00  0.00    +0.000 C 
ATOM     10  C   UNL     1      33.505 -21.814 -19.665  0.00  0.00    +0.001 C 
ATOM     11  H   UNL     1      37.562 -20.862 -20.241  0.00  0.00    +0.152 HD
ENDBRANCH   1   3
BRANCH   1  13
ATOM     12  N   UNL     1      34.591 -17.798 -25.176  0.00  0.00    -0.312 N 
ATOM     13  C   UNL     1      34.885 -17.164 -23.114  0.00  0.00    -0.002 C 
ATOM     14  C   UNL     1      34.245 -16.106 -23.765  0.00  0.00    +0.011 C 
ATOM     15  C   UNL     1      34.066 -16.530 -25.084  0.00  0.00    +0.048 C 
ATOM     16  C   UNL     1      35.096 -18.191 -23.966  0.00  0.00    +0.058 C 
ATOM     17  C   UNL     1      33.790 -14.825 -23.396  0.00  0.00    +0.001 C 
ATOM     18  C   UNL     1      33.451 -15.732 -26.056  0.00  0.00    +0.015 C 
ATOM     19  C   UNL     1      33.173 -14.016 -24.358  0.00  0.00    +0.000 C 
ATOM     20  C   UNL     1      33.008 -14.465 -25.667  0.00  0.00    +0.001 C 
ATOM     21  H   UNL     1      34.602 -18.345 -25.996  0.00  0.00    +0.152 HD
ENDBRANCH   1  13
TORSDOF 2
ENDMDL
MODEL 6
REMARK VINA RESULT:      -9.9      3.194      5.967
REMARK  Name = 3071
REMARK  2 active torsions:
REMARK  status: ('A' for Active; 'I' for Inactive)
REMARK    1  A    between atoms: C_1  and  C_3
REMARK    2  A    between atoms: C_1  and  C_13
REMARK                            x       y       z     vdW  Elec       q    Type
REMARK                         _______ _______ _______ _____ _____    ______ ____
ROOT
ATOM      1  C   UNL     1      33.815 -23.153 -18.461  0.00  0.00    +0.055 C 
ENDROOT
BRANCH   1   3
ATOM      2  N   UNL     1      36.455 -20.829 -19.439  0.00  0.00    -0.312 N 
ATOM      3  C   UNL     1      34.676 -22.078 -18.996  0.00  0.00    -0.002 C 
ATOM      4  C   UNL     1      34.265 -20.998 -19.827  0.00  0.00    +0.011 C 
ATOM      5  C   UNL     1      35.401 -20.229 -20.090  0.00  0.00    +0.048 C 
ATOM      6  C   UNL     1      36.027 -21.947 -18.775  0.00  0.00    +0.058 C 
ATOM      7  C   UNL     1      33.033 -20.599 -20.381  0.00  0.00    +0.001 C 
ATOM      8  C   UNL     1      35.366 -19.077 -20.883  0.00  0.00    +0.015 C 
ATOM      9  C   UNL     1      32.983 -19.449 -21.177  0.00  0.00    +0.000 C 
ATOM     10  C   UNL     1      34.133 -18.701 -21.422  0.00  0.00    +0.001 C 
ATOM     11  H   UNL     1      37.384 -20.500 -19.449  0.00  0.00    +0.152 HD
ENDBRANCH   1   3
BRANCH   1  13
ATOM     12  N   UNL     1      34.168 -23.156 -14.827  0.00  0.00    -0.312 N 
ATOM     13  C   UNL     1      33.669 -23.146 -16.946  0.00  0.00    -0.002 C 
ATOM     14  C   UNL     1      32.455 -23.115 -16.256  0.00  0.00    +0.011 C 
ATOM     15  C   UNL     1      32.794 -23.122 -14.901  0.00  0.00    +0.048 C 
ATOM     16  C   UNL     1      34.709 -23.171 -16.084  0.00  0.00    +0.058 C 
ATOM     17  C   UNL     1      31.093 -23.082 -16.615  0.00  0.00    +0.001 C 
ATOM     18  C   UNL     1      31.833 -23.097 -13.883  0.00  0.00    +0.015 C 
ATOM     19  C   UNL     1      30.122 -23.056 -15.607  0.00  0.00    +0.000 C 
ATOM     20  C   UNL     1      30.489 -23.064 -14.263  0.00  0.00    +0.001 C 
ATOM     21  H   UNL     1      34.687 -23.167 -13.990  0.00  0.00    +0.152 HD
ENDBRANCH   1  13
TORSDOF 2
ENDMDL
MODEL 7
REMARK VINA RESULT:      -9.9      5.031      8.062
REMARK  Name = 3071
REMARK  2 active torsions:
REMARK  status: ('A' for Active; 'I' for Inactive)
REMARK    1  A    between atoms: C_1  and  C_3
REMARK    2  A    between atoms: C_1  and  C_13
REMARK                            x       y       z     vdW  Elec       q    Type
REMARK                         _______ _______ _______ _____ _____    ______ ____
ROOT
ATOM      1  C   UNL     1      31.260 -11.792 -21.625  0.00  0.00    +0.055 C 
ENDROOT
BRANCH   1   3
ATOM      2  N   UNL     1      32.360  -9.382 -19.114  0.00  0.00    -0.312 N 
ATOM      3  C   UNL     1      31.686 -10.629 -20.821  0.00  0.00    -0.002 C 
ATOM      4  C   UNL     1      31.821  -9.287 -21.276  0.00  0.00    +0.011 C 
ATOM      5  C   UNL     1      32.244  -8.525 -20.185  0.00  0.00    +0.048 C 
ATOM      6  C   UNL     1      32.024 -10.655 -19.488  0.00  0.00    +0.058 C 
ATOM      7  C   UNL     1      31.621  -8.646 -22.514  0.00  0.00    +0.001 C 
ATOM      8  C   UNL     1      32.480  -7.148 -20.272  0.00  0.00    +0.015 C 
ATOM      9  C   UNL     1      31.853  -7.269 -22.616  0.00  0.00    +0.000 C 
ATOM     10  C   UNL     1      32.276  -6.535 -21.510  0.00  0.00    +0.001 C 
ATOM     11  H   UNL     1      32.643  -9.116 -18.208  0.00  0.00    +0.152 HD
ENDBRANCH   1   3
BRANCH   1  13
ATOM     12  N   UNL     1      33.994 -12.964 -23.743  0.00  0.00    -0.312 N 
ATOM     13  C   UNL     1      32.395 -12.517 -22.334  0.00  0.00    -0.002 C 
ATOM     14  C   UNL     1      32.893 -13.772 -21.978  0.00  0.00    +0.011 C 
ATOM     15  C   UNL     1      33.916 -14.042 -22.891  0.00  0.00    +0.048 C 
ATOM     16  C   UNL     1      33.059 -12.024 -23.403  0.00  0.00    +0.058 C 
ATOM     17  C   UNL     1      32.602 -14.726 -20.983  0.00  0.00    +0.001 C 
ATOM     18  C   UNL     1      34.665 -15.225 -22.857  0.00  0.00    +0.015 C 
ATOM     19  C   UNL     1      33.343 -15.913 -20.938  0.00  0.00    +0.000 C 
ATOM     20  C   UNL     1      34.358 -16.156 -21.861  0.00  0.00    +0.001 C 
ATOM     21  H   UNL     1      34.631 -12.881 -24.489  0.00  0.00    +0.152 HD
ENDBRANCH   1  13
TORSDOF 2
ENDMDL
MODEL 8
REMARK VINA RESULT:      -9.9      3.188      8.248
REMARK  Name = 3071
REMARK  2 active torsions:
REMARK  status: ('A' for Active; 'I' for Inactive)
REMARK    1  A    between atoms: C_1  and  C_3
REMARK    2  A    between atoms: C_1  and  C_13
REMARK                            x       y       z     vdW  Elec       q    Type
REMARK                         _______ _______ _______ _____ _____    ______ ____
ROOT
ATOM      1  C   UNL     1      33.813 -23.140 -18.471  0.00  0.00    +0.055 C 
ENDROOT
BRANCH   1   3
ATOM      2  N   UNL     1      34.181 -23.139 -14.839  0.00  0.00    -0.312 N 
ATOM      3  C   UNL     1      33.678 -23.134 -17.000  0.00  0.00    -0.002 C 
ATOM      4  C   UNL     1      32.462 -23.110 -16.260  0.00  0.00    +0.011 C 
ATOM      5  C   UNL     1      32.806 -23.115 -14.907  0.00  0.00    +0.048 C 
ATOM      6  C   UNL     1      34.717 -23.151 -16.098  0.00  0.00    +0.058 C 
ATOM      7  C   UNL     1      31.099 -23.088 -16.614  0.00  0.00    +0.001 C 
ATOM      8  C   UNL     1      31.850 -23.096 -13.885  0.00  0.00    +0.015 C 
ATOM      9  C   UNL     1      30.131 -23.069 -15.602  0.00  0.00    +0.000 C 
ATOM     10  C   UNL     1      30.504 -23.073 -14.260  0.00  0.00    +0.001 C 
ATOM     11  H   UNL     1      34.703 -23.146 -14.003  0.00  0.00    +0.152 HD
ENDBRANCH   1   3
BRANCH   1  13
ATOM     12  N   UNL     1      36.450 -20.817 -19.463  0.00  0.00    -0.312 N 
ATOM     13  C   UNL     1      34.697 -22.032 -19.026  0.00  0.00    -0.002 C 
ATOM     14  C   UNL     1      34.256 -20.980 -19.831  0.00  0.00    +0.011 C 
ATOM     15  C   UNL     1      35.392 -20.212 -20.101  0.00  0.00    +0.048 C 
ATOM     16  C   UNL     1      36.026 -21.937 -18.800  0.00  0.00    +0.058 C 
ATOM     17  C   UNL     1      33.020 -20.575 -20.373  0.00  0.00    +0.001 C 
ATOM     18  C   UNL     1      35.352 -19.056 -20.890  0.00  0.00    +0.015 C 
ATOM     19  C   UNL     1      32.965 -19.421 -21.164  0.00  0.00    +0.000 C 
ATOM     20  C   UNL     1      34.115 -18.675 -21.416  0.00  0.00    +0.001 C 
ATOM     21  H   UNL     1      37.380 -20.491 -19.481  0.00  0.00    +0.152 HD
ENDBRANCH   1  13
TORSDOF 2
ENDMDL
MODEL 9
REMARK VINA RESULT:      -9.9      1.448      6.518
REMARK  Name = 3071
REMARK  2 active torsions:
REMARK  status: ('A' for Active; 'I' for Inactive)
REMARK    1  A    between atoms: C_1  and  C_3
REMARK    2  A    between atoms: C_1  and  C_13
REMARK                            x       y       z     vdW  Elec       q    Type
REMARK                         _______ _______ _______ _____ _____    ______ ____
ROOT
ATOM      1  C   UNL     1      34.360 -19.368 -22.303  0.00  0.00    +0.055 C 
ENDROOT
BRANCH   1   3
ATOM      2  N   UNL     1      36.996 -20.053 -19.872  0.00  0.00    -0.312 N 
ATOM      3  C   UNL     1      35.237 -19.822 -21.204  0.00  0.00    -0.002 C 
ATOM      4  C   UNL     1      34.906 -20.764 -20.189  0.00  0.00    +0.011 C 
ATOM      5  C   UNL     1      36.027 -20.891 -19.367  0.00  0.00    +0.048 C 
ATOM      6  C   UNL     1      36.528 -19.403 -20.982  0.00  0.00    +0.058 C 
ATOM      7  C   UNL     1      33.758 -21.523 -19.892  0.00  0.00    +0.001 C 
ATOM      8  C   UNL     1      36.057 -21.742 -18.257  0.00  0.00    +0.015 C 
ATOM      9  C   UNL     1      33.773 -22.379 -18.784  0.00  0.00    +0.000 C 
ATOM     10  C   UNL     1      34.907 -22.485 -17.981  0.00  0.00    +0.001 C 
ATOM     11  H   UNL     1      37.897 -19.938 -19.489  0.00  0.00    +0.152 HD
ENDBRANCH   1   3
BRANCH   1  13
ATOM     12  N   UNL     1      35.340 -16.265 -23.959  0.00  0.00    -0.312 N 
ATOM     13  C   UNL     1      34.625 -17.945 -22.773  0.00  0.00    -0.002 C 
ATOM     14  C   UNL     1      34.185 -16.790 -22.124  0.00  0.00    +0.011 C 
ATOM     15  C   UNL     1      34.653 -15.724 -22.897  0.00  0.00    +0.048 C 
ATOM     16  C   UNL     1      35.325 -17.632 -23.885  0.00  0.00    +0.058 C 
ATOM     17  C   UNL     1      33.440 -16.509 -20.961  0.00  0.00    +0.001 C 
ATOM     18  C   UNL     1      34.409 -14.386 -22.563  0.00  0.00    +0.015 C 
ATOM     19  C   UNL     1      33.189 -15.176 -20.616  0.00  0.00    +0.000 C 
ATOM     20  C   UNL     1      33.668 -14.133 -21.407  0.00  0.00    +0.001 C 
ATOM     21  H   UNL     1      35.779 -15.744 -24.670  0.00  0.00    +0.152 HD
ENDBRANCH   1  13
TORSDOF 2
ENDMDL
