MODEL 1
REMARK VINA RESULT:      -6.0      0.000      0.000
REMARK  Name = 16028
REMARK  12 active torsions:
REMARK  status: ('A' for Active; 'I' for Inactive)
REMARK    1  A    between atoms: N_1  and  C_2
REMARK    2  A    between atoms: N_1  and  C_6
REMARK    3  A    between atoms: N_1  and  C_10
REMARK    4  A    between atoms: N_1  and  C_14
REMARK    5  A    between atoms: C_2  and  C_3
REMARK    6  A    between atoms: C_3  and  C_4
REMARK    7  A    between atoms: C_6  and  C_7
REMARK    8  A    between atoms: C_7  and  C_8
REMARK    9  A    between atoms: C_10  and  C_11
REMARK   10  A    between atoms: C_11  and  C_12
REMARK   11  A    between atoms: C_14  and  C_15
REMARK   12  A    between atoms: C_15  and  C_16
REMARK                            x       y       z     vdW  Elec       q    Type
REMARK                         _______ _______ _______ _____ _____    ______ ____
ROOT
ATOM      1  N   UNL     1      35.409 -18.322 -21.937  0.00  0.00    +0.390 N 
ENDROOT
BRANCH   1   2
ATOM      2  C   UNL     1      34.323 -19.405 -22.018  0.00  0.00    -0.073 C 
BRANCH   2   3
ATOM      3  C   UNL     1      33.388 -19.263 -20.826  0.00  0.00    -0.022 C 
BRANCH   3   4
ATOM      4  C   UNL     1      32.626 -20.563 -20.569  0.00  0.00    -0.002 C 
ATOM      5  C   UNL     1      33.215 -21.334 -19.398  0.00  0.00    -0.000 C 
ENDBRANCH   3   4
ENDBRANCH   2   3
ENDBRANCH   1   2
BRANCH   1   6
ATOM      6  C   UNL     1      35.520 -17.655 -23.315  0.00  0.00    -0.073 C 
BRANCH   6   7
ATOM      7  C   UNL     1      34.777 -18.500 -24.339  0.00  0.00    -0.022 C 
BRANCH   7   8
ATOM      8  C   UNL     1      34.205 -17.631 -25.458  0.00  0.00    -0.002 C 
ATOM      9  C   UNL     1      34.059 -16.182 -25.020  0.00  0.00    -0.000 C 
ENDBRANCH   7   8
ENDBRANCH   6   7
ENDBRANCH   1   6
BRANCH   1  10
ATOM     10  C   UNL     1      36.747 -19.011 -21.632  0.00  0.00    -0.073 C 
BRANCH  10  11
ATOM     11  C   UNL     1      36.743 -19.490 -20.188  0.00  0.00    -0.022 C 
BRANCH  11  12
ATOM     12  C   UNL     1      36.784 -21.016 -20.116  0.00  0.00    -0.002 C 
ATOM     13  C   UNL     1      36.607 -21.513 -18.690  0.00  0.00    -0.000 C 
ENDBRANCH  11  12
ENDBRANCH  10  11
ENDBRANCH   1  10
BRANCH   1  14
ATOM     14  C   UNL     1      35.080 -17.323 -20.892  0.00  0.00    -0.073 C 
BRANCH  14  15
ATOM     15  C   UNL     1      34.831 -15.975 -21.551  0.00  0.00    -0.022 C 
BRANCH  15  16
ATOM     16  C   UNL     1      34.068 -15.038 -20.615  0.00  0.00    -0.002 C 
ATOM     17  C   UNL     1      32.576 -15.329 -20.628  0.00  0.00    -0.000 C 
ENDBRANCH  15  16
ENDBRANCH  14  15
ENDBRANCH   1  14
TORSDOF 12
ENDMDL
MODEL 2
REMARK VINA RESULT:      -6.0      0.180      3.957
REMARK  Name = 16028
REMARK  12 active torsions:
REMARK  status: ('A' for Active; 'I' for Inactive)
REMARK    1  A    between atoms: N_1  and  C_2
REMARK    2  A    between atoms: N_1  and  C_6
REMARK    3  A    between atoms: N_1  and  C_10
REMARK    4  A    between atoms: N_1  and  C_14
REMARK    5  A    between atoms: C_2  and  C_3
REMARK    6  A    between atoms: C_3  and  C_4
REMARK    7  A    between atoms: C_6  and  C_7
REMARK    8  A    between atoms: C_7  and  C_8
REMARK    9  A    between atoms: C_10  and  C_11
REMARK   10  A    between atoms: C_11  and  C_12
REMARK   11  A    between atoms: C_14  and  C_15
REMARK   12  A    between atoms: C_15  and  C_16
REMARK                            x       y       z     vdW  Elec       q    Type
REMARK                         _______ _______ _______ _____ _____    ______ ____
ROOT
ATOM      1  N   UNL     1      35.479 -18.305 -21.976  0.00  0.00    +0.390 N 
ENDROOT
BRANCH   1   2
ATOM      2  C   UNL     1      35.109 -17.342 -20.839  0.00  0.00    -0.073 C 
BRANCH   2   3
ATOM      3  C   UNL     1      34.906 -15.949 -21.413  0.00  0.00    -0.022 C 
BRANCH   3   4
ATOM      4  C   UNL     1      33.928 -15.141 -20.561  0.00  0.00    -0.002 C 
ATOM      5  C   UNL     1      32.487 -15.540 -20.836  0.00  0.00    -0.000 C 
ENDBRANCH   3   4
ENDBRANCH   2   3
ENDBRANCH   1   2
BRANCH   1   6
ATOM      6  C   UNL     1      34.380 -19.373 -22.073  0.00  0.00    -0.073 C 
BRANCH   6   7
ATOM      7  C   UNL     1      33.395 -19.180 -20.930  0.00  0.00    -0.022 C 
BRANCH   7   8
ATOM      8  C   UNL     1      32.626 -20.469 -20.644  0.00  0.00    -0.002 C 
ATOM      9  C   UNL     1      33.233 -21.235 -19.480  0.00  0.00    -0.000 C 
ENDBRANCH   7   8
ENDBRANCH   6   7
ENDBRANCH   1   6
BRANCH   1  10
ATOM     10  C   UNL     1      36.791 -19.008 -21.597  0.00  0.00    -0.073 C 
BRANCH  10  11
ATOM     11  C   UNL     1      36.698 -19.494 -20.159  0.00  0.00    -0.022 C 
BRANCH  11  12
ATOM     12  C   UNL     1      36.800 -21.018 -20.088  0.00  0.00    -0.002 C 
ATOM     13  C   UNL     1      36.634 -21.522 -18.663  0.00  0.00    -0.000 C 
ENDBRANCH  11  12
ENDBRANCH  10  11
ENDBRANCH   1  10
BRANCH   1  14
ATOM     14  C   UNL     1      35.622 -17.576 -23.259  0.00  0.00    -0.073 C 
BRANCH  14  15
ATOM     15  C   UNL     1      34.770 -18.258 -24.318  0.00  0.00    -0.022 C 
BRANCH  15  16
ATOM     16  C   UNL     1      34.452 -17.301 -25.467  0.00  0.00    -0.002 C 
ATOM     17  C   UNL     1      33.911 -15.976 -24.956  0.00  0.00    -0.000 C 
ENDBRANCH  15  16
ENDBRANCH  14  15
ENDBRANCH   1  14
TORSDOF 12
ENDMDL
MODEL 3
REMARK VINA RESULT:      -6.0      0.409      4.299
REMARK  Name = 16028
REMARK  12 active torsions:
REMARK  status: ('A' for Active; 'I' for Inactive)
REMARK    1  A    between atoms: N_1  and  C_2
REMARK    2  A    between atoms: N_1  and  C_6
REMARK    3  A    between atoms: N_1  and  C_10
REMARK    4  A    between atoms: N_1  and  C_14
REMARK    5  A    between atoms: C_2  and  C_3
REMARK    6  A    between atoms: C_3  and  C_4
REMARK    7  A    between atoms: C_6  and  C_7
REMARK    8  A    between atoms: C_7  and  C_8
REMARK    9  A    between atoms: C_10  and  C_11
REMARK   10  A    between atoms: C_11  and  C_12
REMARK   11  A    between atoms: C_14  and  C_15
REMARK   12  A    between atoms: C_15  and  C_16
REMARK                            x       y       z     vdW  Elec       q    Type
REMARK                         _______ _______ _______ _____ _____    ______ ____
ROOT
ATOM      1  N   UNL     1      35.373 -18.228 -21.922  0.00  0.00    +0.390 N 
ENDROOT
BRANCH   1   2
ATOM      2  C   UNL     1      35.461 -17.481 -23.260  0.00  0.00    -0.073 C 
BRANCH   2   3
ATOM      3  C   UNL     1      34.805 -18.323 -24.344  0.00  0.00    -0.022 C 
BRANCH   3   4
ATOM      4  C   UNL     1      34.189 -17.440 -25.428  0.00  0.00    -0.002 C 
ATOM      5  C   UNL     1      33.986 -16.015 -24.939  0.00  0.00    -0.000 C 
ENDBRANCH   3   4
ENDBRANCH   2   3
ENDBRANCH   1   2
BRANCH   1   6
ATOM      6  C   UNL     1      36.712 -18.941 -21.686  0.00  0.00    -0.073 C 
BRANCH   6   7
ATOM      7  C   UNL     1      36.769 -19.432 -20.247  0.00  0.00    -0.022 C 
BRANCH   7   8
ATOM      8  C   UNL     1      36.737 -20.958 -20.186  0.00  0.00    -0.002 C 
ATOM      9  C   UNL     1      36.622 -21.458 -18.754  0.00  0.00    -0.000 C 
ENDBRANCH   7   8
ENDBRANCH   6   7
ENDBRANCH   1   6
BRANCH   1  10
ATOM     10  C   UNL     1      34.279 -19.299 -22.045  0.00  0.00    -0.073 C 
BRANCH  10  11
ATOM     11  C   UNL     1      33.382 -19.238 -20.818  0.00  0.00    -0.022 C 
BRANCH  11  12
ATOM     12  C   UNL     1      32.651 -20.563 -20.606  0.00  0.00    -0.002 C 
ATOM     13  C   UNL     1      33.206 -21.323 -19.412  0.00  0.00    -0.000 C 
ENDBRANCH  11  12
ENDBRANCH  10  11
ENDBRANCH   1  10
BRANCH   1  14
ATOM     14  C   UNL     1      35.071 -17.291 -20.814  0.00  0.00    -0.073 C 
BRANCH  14  15
ATOM     15  C   UNL     1      34.646 -15.951 -21.395  0.00  0.00    -0.022 C 
BRANCH  15  16
ATOM     16  C   UNL     1      33.277 -15.531 -20.862  0.00  0.00    -0.002 C 
ATOM     17  C   UNL     1      32.621 -14.496 -21.763  0.00  0.00    -0.000 C 
ENDBRANCH  15  16
ENDBRANCH  14  15
ENDBRANCH   1  14
TORSDOF 12
ENDMDL
MODEL 4
REMARK VINA RESULT:      -6.0      0.133      3.730
REMARK  Name = 16028
REMARK  12 active torsions:
REMARK  status: ('A' for Active; 'I' for Inactive)
REMARK    1  A    between atoms: N_1  and  C_2
REMARK    2  A    between atoms: N_1  and  C_6
REMARK    3  A    between atoms: N_1  and  C_10
REMARK    4  A    between atoms: N_1  and  C_14
REMARK    5  A    between atoms: C_2  and  C_3
REMARK    6  A    between atoms: C_3  and  C_4
REMARK    7  A    between atoms: C_6  and  C_7
REMARK    8  A    between atoms: C_7  and  C_8
REMARK    9  A    between atoms: C_10  and  C_11
REMARK   10  A    between atoms: C_11  and  C_12
REMARK   11  A    between atoms: C_14  and  C_15
REMARK   12  A    between atoms: C_15  and  C_16
REMARK                            x       y       z     vdW  Elec       q    Type
REMARK                         _______ _______ _______ _____ _____    ______ ____
ROOT
ATOM      1  N   UNL     1      35.413 -18.326 -21.952  0.00  0.00    +0.390 N 
ENDROOT
BRANCH   1   2
ATOM      2  C   UNL     1      36.758 -18.960 -21.568  0.00  0.00    -0.073 C 
BRANCH   2   3
ATOM      3  C   UNL     1      36.682 -19.458 -20.133  0.00  0.00    -0.022 C 
BRANCH   3   4
ATOM      4  C   UNL     1      36.797 -20.981 -20.073  0.00  0.00    -0.002 C 
ATOM      5  C   UNL     1      36.635 -21.498 -18.652  0.00  0.00    -0.000 C 
ENDBRANCH   3   4
ENDBRANCH   2   3
ENDBRANCH   1   2
BRANCH   1   6
ATOM      6  C   UNL     1      35.015 -17.344 -20.840  0.00  0.00    -0.073 C 
BRANCH   6   7
ATOM      7  C   UNL     1      34.891 -15.948 -21.430  0.00  0.00    -0.022 C 
BRANCH   7   8
ATOM      8  C   UNL     1      33.876 -15.111 -20.652  0.00  0.00    -0.002 C 
ATOM      9  C   UNL     1      32.463 -15.647 -20.821  0.00  0.00    -0.000 C 
ENDBRANCH   7   8
ENDBRANCH   6   7
ENDBRANCH   1   6
BRANCH   1  10
ATOM     10  C   UNL     1      34.357 -19.441 -22.001  0.00  0.00    -0.073 C 
BRANCH  10  11
ATOM     11  C   UNL     1      33.395 -19.268 -20.836  0.00  0.00    -0.022 C 
BRANCH  11  12
ATOM     12  C   UNL     1      32.615 -20.555 -20.572  0.00  0.00    -0.002 C 
ATOM     13  C   UNL     1      33.214 -21.345 -19.419  0.00  0.00    -0.000 C 
ENDBRANCH  11  12
ENDBRANCH  10  11
ENDBRANCH   1  10
BRANCH   1  14
ATOM     14  C   UNL     1      35.510 -17.633 -23.258  0.00  0.00    -0.073 C 
BRANCH  14  15
ATOM     15  C   UNL     1      34.734 -18.422 -24.301  0.00  0.00    -0.022 C 
BRANCH  15  16
ATOM     16  C   UNL     1      34.214 -17.507 -25.408  0.00  0.00    -0.002 C 
ATOM     17  C   UNL     1      34.044 -16.078 -24.918  0.00  0.00    -0.000 C 
ENDBRANCH  15  16
ENDBRANCH  14  15
ENDBRANCH   1  14
TORSDOF 12
ENDMDL
MODEL 5
REMARK VINA RESULT:      -6.0      0.204      5.357
REMARK  Name = 16028
REMARK  12 active torsions:
REMARK  status: ('A' for Active; 'I' for Inactive)
REMARK    1  A    between atoms: N_1  and  C_2
REMARK    2  A    between atoms: N_1  and  C_6
REMARK    3  A    between atoms: N_1  and  C_10
REMARK    4  A    between atoms: N_1  and  C_14
REMARK    5  A    between atoms: C_2  and  C_3
REMARK    6  A    between atoms: C_3  and  C_4
REMARK    7  A    between atoms: C_6  and  C_7
REMARK    8  A    between atoms: C_7  and  C_8
REMARK    9  A    between atoms: C_10  and  C_11
REMARK   10  A    between atoms: C_11  and  C_12
REMARK   11  A    between atoms: C_14  and  C_15
REMARK   12  A    between atoms: C_15  and  C_16
REMARK                            x       y       z     vdW  Elec       q    Type
REMARK                         _______ _______ _______ _____ _____    ______ ____
ROOT
ATOM      1  N   UNL     1      35.435 -18.414 -21.995  0.00  0.00    +0.390 N 
ENDROOT
BRANCH   1   2
ATOM      2  C   UNL     1      35.497 -17.671 -23.338  0.00  0.00    -0.073 C 
BRANCH   2   3
ATOM      3  C   UNL     1      34.877 -18.543 -24.419  0.00  0.00    -0.022 C 
BRANCH   3   4
ATOM      4  C   UNL     1      34.101 -17.698 -25.429  0.00  0.00    -0.002 C 
ATOM      5  C   UNL     1      34.134 -16.223 -25.064  0.00  0.00    -0.000 C 
ENDBRANCH   3   4
ENDBRANCH   2   3
ENDBRANCH   1   2
BRANCH   1   6
ATOM      6  C   UNL     1      34.284 -19.428 -22.065  0.00  0.00    -0.073 C 
BRANCH   6   7
ATOM      7  C   UNL     1      33.447 -19.320 -20.799  0.00  0.00    -0.022 C 
BRANCH   7   8
ATOM      8  C   UNL     1      32.641 -20.596 -20.563  0.00  0.00    -0.002 C 
ATOM      9  C   UNL     1      33.143 -21.357 -19.346  0.00  0.00    -0.000 C 
ENDBRANCH   7   8
ENDBRANCH   6   7
ENDBRANCH   1   6
BRANCH   1  10
ATOM     10  C   UNL     1      35.102 -17.390 -20.900  0.00  0.00    -0.073 C 
BRANCH  10  11
ATOM     11  C   UNL     1      34.752 -16.061 -21.550  0.00  0.00    -0.022 C 
BRANCH  11  12
ATOM     12  C   UNL     1      34.300 -15.041 -20.506  0.00  0.00    -0.002 C 
ATOM     13  C   UNL     1      32.839 -14.660 -20.692  0.00  0.00    -0.000 C 
ENDBRANCH  11  12
ENDBRANCH  10  11
ENDBRANCH   1  10
BRANCH   1  14
ATOM     14  C   UNL     1      36.721 -19.093 -21.709  0.00  0.00    -0.073 C 
BRANCH  14  15
ATOM     15  C   UNL     1      36.743 -19.527 -20.252  0.00  0.00    -0.022 C 
BRANCH  15  16
ATOM     16  C   UNL     1      36.716 -21.050 -20.131  0.00  0.00    -0.002 C 
ATOM     17  C   UNL     1      36.627 -21.494 -18.680  0.00  0.00    -0.000 C 
ENDBRANCH  15  16
ENDBRANCH  14  15
ENDBRANCH   1  14
TORSDOF 12
ENDMDL
MODEL 6
REMARK VINA RESULT:      -5.9      0.691      3.913
REMARK  Name = 16028
REMARK  12 active torsions:
REMARK  status: ('A' for Active; 'I' for Inactive)
REMARK    1  A    between atoms: N_1  and  C_2
REMARK    2  A    between atoms: N_1  and  C_6
REMARK    3  A    between atoms: N_1  and  C_10
REMARK    4  A    between atoms: N_1  and  C_14
REMARK    5  A    between atoms: C_2  and  C_3
REMARK    6  A    between atoms: C_3  and  C_4
REMARK    7  A    between atoms: C_6  and  C_7
REMARK    8  A    between atoms: C_7  and  C_8
REMARK    9  A    between atoms: C_10  and  C_11
REMARK   10  A    between atoms: C_11  and  C_12
REMARK   11  A    between atoms: C_14  and  C_15
REMARK   12  A    between atoms: C_15  and  C_16
REMARK                            x       y       z     vdW  Elec       q    Type
REMARK                         _______ _______ _______ _____ _____    ______ ____
ROOT
ATOM      1  N   UNL     1      35.342 -18.707 -21.611  0.00  0.00    +0.390 N 
ENDROOT
BRANCH   1   2
ATOM      2  C   UNL     1      35.659 -18.307 -23.059  0.00  0.00    -0.073 C 
BRANCH   2   3
ATOM      3  C   UNL     1      34.943 -19.259 -24.006  0.00  0.00    -0.022 C 
BRANCH   3   4
ATOM      4  C   UNL     1      34.207 -18.492 -25.103  0.00  0.00    -0.002 C 
ATOM      5  C   UNL     1      34.694 -17.056 -25.204  0.00  0.00    -0.000 C 
ENDBRANCH   3   4
ENDBRANCH   2   3
ENDBRANCH   1   2
BRANCH   1   6
ATOM      6  C   UNL     1      34.711 -17.495 -20.910  0.00  0.00    -0.073 C 
BRANCH   6   7
ATOM      7  C   UNL     1      34.921 -16.257 -21.770  0.00  0.00    -0.022 C 
BRANCH   7   8
ATOM      8  C   UNL     1      34.011 -15.115 -21.319  0.00  0.00    -0.002 C 
ATOM      9  C   UNL     1      32.668 -15.631 -20.828  0.00  0.00    -0.000 C 
ENDBRANCH   7   8
ENDBRANCH   6   7
ENDBRANCH   1   6
BRANCH   1  10
ATOM     10  C   UNL     1      36.668 -19.028 -20.905  0.00  0.00    -0.073 C 
BRANCH  10  11
ATOM     11  C   UNL     1      36.602 -20.439 -20.340  0.00  0.00    -0.022 C 
BRANCH  11  12
ATOM     12  C   UNL     1      36.955 -20.452 -18.853  0.00  0.00    -0.002 C 
ATOM     13  C   UNL     1      36.578 -21.772 -18.201  0.00  0.00    -0.000 C 
ENDBRANCH  11  12
ENDBRANCH  10  11
ENDBRANCH   1  10
BRANCH   1  14
ATOM     14  C   UNL     1      34.428 -19.873 -21.573  0.00  0.00    -0.073 C 
BRANCH  14  15
ATOM     15  C   UNL     1      33.115 -19.458 -20.926  0.00  0.00    -0.022 C 
BRANCH  15  16
ATOM     16  C   UNL     1      32.719 -20.429 -19.815  0.00  0.00    -0.002 C 
ATOM     17  C   UNL     1      33.501 -21.730 -19.905  0.00  0.00    -0.000 C 
ENDBRANCH  15  16
ENDBRANCH  14  15
ENDBRANCH   1  14
TORSDOF 12
ENDMDL
MODEL 7
REMARK VINA RESULT:      -5.8      3.646      7.656
REMARK  Name = 16028
REMARK  12 active torsions:
REMARK  status: ('A' for Active; 'I' for Inactive)
REMARK    1  A    between atoms: N_1  and  C_2
REMARK    2  A    between atoms: N_1  and  C_6
REMARK    3  A    between atoms: N_1  and  C_10
REMARK    4  A    between atoms: N_1  and  C_14
REMARK    5  A    between atoms: C_2  and  C_3
REMARK    6  A    between atoms: C_3  and  C_4
REMARK    7  A    between atoms: C_6  and  C_7
REMARK    8  A    between atoms: C_7  and  C_8
REMARK    9  A    between atoms: C_10  and  C_11
REMARK   10  A    between atoms: C_11  and  C_12
REMARK   11  A    between atoms: C_14  and  C_15
REMARK   12  A    between atoms: C_15  and  C_16
REMARK                            x       y       z     vdW  Elec       q    Type
REMARK                         _______ _______ _______ _____ _____    ______ ____
ROOT
ATOM      1  N   UNL     1      33.269 -13.222 -23.318  0.00  0.00    +0.390 N 
ENDROOT
BRANCH   1   2
ATOM      2  C   UNL     1      31.967 -13.035 -22.524  0.00  0.00    -0.073 C 
BRANCH   2   3
ATOM      3  C   UNL     1      31.797 -11.561 -22.188  0.00  0.00    -0.022 C 
BRANCH   3   4
ATOM      4  C   UNL     1      30.822 -11.372 -21.026  0.00  0.00    -0.002 C 
ATOM      5  C   UNL     1      31.548 -11.314 -19.692  0.00  0.00    -0.000 C 
ENDBRANCH   3   4
ENDBRANCH   2   3
ENDBRANCH   1   2
BRANCH   1   6
ATOM      6  C   UNL     1      34.298 -13.889 -22.393  0.00  0.00    -0.073 C 
BRANCH   6   7
ATOM      7  C   UNL     1      33.590 -14.404 -21.149  0.00  0.00    -0.022 C 
BRANCH   7   8
ATOM      8  C   UNL     1      34.493 -15.346 -20.354  0.00  0.00    -0.002 C 
ATOM      9  C   UNL     1      34.787 -16.623 -21.125  0.00  0.00    -0.000 C 
ENDBRANCH   7   8
ENDBRANCH   6   7
ENDBRANCH   1   6
BRANCH   1  10
ATOM     10  C   UNL     1      33.800 -11.832 -23.696  0.00  0.00    -0.073 C 
BRANCH  10  11
ATOM     11  C   UNL     1      34.017 -11.774 -25.200  0.00  0.00    -0.022 C 
BRANCH  11  12
ATOM     12  C   UNL     1      34.979 -10.647 -25.573  0.00  0.00    -0.002 C 
ATOM     13  C   UNL     1      35.032  -9.578 -24.494  0.00  0.00    -0.000 C 
ENDBRANCH  11  12
ENDBRANCH  10  11
ENDBRANCH   1  10
BRANCH   1  14
ATOM     14  C   UNL     1      33.034 -14.045 -24.528  0.00  0.00    -0.073 C 
BRANCH  14  15
ATOM     15  C   UNL     1      33.557 -15.452 -24.284  0.00  0.00    -0.022 C 
BRANCH  15  16
ATOM     16  C   UNL     1      33.934 -16.134 -25.598  0.00  0.00    -0.002 C 
ATOM     17  C   UNL     1      34.581 -17.489 -25.359  0.00  0.00    -0.000 C 
ENDBRANCH  15  16
ENDBRANCH  14  15
ENDBRANCH   1  14
TORSDOF 12
ENDMDL
MODEL 8
REMARK VINA RESULT:      -5.8      3.587      6.264
REMARK  Name = 16028
REMARK  12 active torsions:
REMARK  status: ('A' for Active; 'I' for Inactive)
REMARK    1  A    between atoms: N_1  and  C_2
REMARK    2  A    between atoms: N_1  and  C_6
REMARK    3  A    between atoms: N_1  and  C_10
REMARK    4  A    between atoms: N_1  and  C_14
REMARK    5  A    between atoms: C_2  and  C_3
REMARK    6  A    between atoms: C_3  and  C_4
REMARK    7  A    between atoms: C_6  and  C_7
REMARK    8  A    between atoms: C_7  and  C_8
REMARK    9  A    between atoms: C_10  and  C_11
REMARK   10  A    between atoms: C_11  and  C_12
REMARK   11  A    between atoms: C_14  and  C_15
REMARK   12  A    between atoms: C_15  and  C_16
REMARK                            x       y       z     vdW  Elec       q    Type
REMARK                         _______ _______ _______ _____ _____    ______ ____
ROOT
ATOM      1  N   UNL     1      33.316 -13.215 -23.217  0.00  0.00    +0.390 N 
ENDROOT
BRANCH   1   2
ATOM      2  C   UNL     1      31.999 -13.091 -22.438  0.00  0.00    -0.073 C 
BRANCH   2   3
ATOM      3  C   UNL     1      31.685 -11.619 -22.220  0.00  0.00    -0.022 C 
BRANCH   3   4
ATOM      4  C   UNL     1      30.788 -11.424 -20.998  0.00  0.00    -0.002 C 
ATOM      5  C   UNL     1      31.591 -11.438 -19.707  0.00  0.00    -0.000 C 
ENDBRANCH   3   4
ENDBRANCH   2   3
ENDBRANCH   1   2
BRANCH   1   6
ATOM      6  C   UNL     1      33.065 -14.112 -24.438  0.00  0.00    -0.073 C 
BRANCH   6   7
ATOM      7  C   UNL     1      34.111 -15.217 -24.468  0.00  0.00    -0.022 C 
BRANCH   7   8
ATOM      8  C   UNL     1      33.743 -16.293 -25.489  0.00  0.00    -0.002 C 
ATOM      9  C   UNL     1      34.356 -17.637 -25.128  0.00  0.00    -0.000 C 
ENDBRANCH   7   8
ENDBRANCH   6   7
ENDBRANCH   1   6
BRANCH   1  10
ATOM     10  C   UNL     1      34.340 -13.917 -22.314  0.00  0.00    -0.073 C 
BRANCH  10  11
ATOM     11  C   UNL     1      33.626 -14.476 -21.093  0.00  0.00    -0.022 C 
BRANCH  11  12
ATOM     12  C   UNL     1      34.495 -15.507 -20.372  0.00  0.00    -0.002 C 
ATOM     13  C   UNL     1      34.654 -16.776 -21.195  0.00  0.00    -0.000 C 
ENDBRANCH  11  12
ENDBRANCH  10  11
ENDBRANCH   1  10
BRANCH   1  14
ATOM     14  C   UNL     1      33.808 -11.880 -23.635  0.00  0.00    -0.073 C 
BRANCH  14  15
ATOM     15  C   UNL     1      33.907 -11.837 -25.152  0.00  0.00    -0.022 C 
BRANCH  15  16
ATOM     16  C   UNL     1      34.880 -10.752 -25.609  0.00  0.00    -0.002 C 
ATOM     17  C   UNL     1      35.064  -9.682 -24.545  0.00  0.00    -0.000 C 
ENDBRANCH  15  16
ENDBRANCH  14  15
ENDBRANCH   1  14
TORSDOF 12
ENDMDL
MODEL 9
REMARK VINA RESULT:      -5.8      3.603      6.638
REMARK  Name = 16028
REMARK  12 active torsions:
REMARK  status: ('A' for Active; 'I' for Inactive)
REMARK    1  A    between atoms: N_1  and  C_2
REMARK    2  A    between atoms: N_1  and  C_6
REMARK    3  A    between atoms: N_1  and  C_10
REMARK    4  A    between atoms: N_1  and  C_14
REMARK    5  A    between atoms: C_2  and  C_3
REMARK    6  A    between atoms: C_3  and  C_4
REMARK    7  A    between atoms: C_6  and  C_7
REMARK    8  A    between atoms: C_7  and  C_8
REMARK    9  A    between atoms: C_10  and  C_11
REMARK   10  A    between atoms: C_11  and  C_12
REMARK   11  A    between atoms: C_14  and  C_15
REMARK   12  A    between atoms: C_15  and  C_16
REMARK                            x       y       z     vdW  Elec       q    Type
REMARK                         _______ _______ _______ _____ _____    ______ ____
ROOT
ATOM      1  N   UNL     1      33.288 -13.256 -23.248  0.00  0.00    +0.390 N 
ENDROOT
BRANCH   1   2
ATOM      2  C   UNL     1      34.307 -13.951 -22.334  0.00  0.00    -0.073 C 
BRANCH   2   3
ATOM      3  C   UNL     1      33.590 -14.481 -21.101  0.00  0.00    -0.022 C 
BRANCH   3   4
ATOM      4  C   UNL     1      34.471 -15.467 -20.335  0.00  0.00    -0.002 C 
ATOM      5  C   UNL     1      34.819 -16.680 -21.183  0.00  0.00    -0.000 C 
ENDBRANCH   3   4
ENDBRANCH   2   3
ENDBRANCH   1   2
BRANCH   1   6
ATOM      6  C   UNL     1      33.123 -14.112 -24.513  0.00  0.00    -0.073 C 
BRANCH   6   7
ATOM      7  C   UNL     1      34.093 -15.282 -24.453  0.00  0.00    -0.022 C 
BRANCH   7   8
ATOM      8  C   UNL     1      33.750 -16.334 -25.508  0.00  0.00    -0.002 C 
ATOM      9  C   UNL     1      34.385 -17.677 -25.185  0.00  0.00    -0.000 C 
ENDBRANCH   7   8
ENDBRANCH   6   7
ENDBRANCH   1   6
BRANCH   1  10
ATOM     10  C   UNL     1      33.871 -11.898 -23.666  0.00  0.00    -0.073 C 
BRANCH  10  11
ATOM     11  C   UNL     1      33.937 -11.830 -25.184  0.00  0.00    -0.022 C 
BRANCH  11  12
ATOM     12  C   UNL     1      34.914 -10.748 -25.643  0.00  0.00    -0.002 C 
ATOM     13  C   UNL     1      35.096  -9.674 -24.582  0.00  0.00    -0.000 C 
ENDBRANCH  11  12
ENDBRANCH  10  11
ENDBRANCH   1  10
BRANCH   1  14
ATOM     14  C   UNL     1      31.990 -13.083 -22.555  0.00  0.00    -0.073 C 
BRANCH  14  15
ATOM     15  C   UNL     1      31.807 -11.616 -22.197  0.00  0.00    -0.022 C 
BRANCH  15  16
ATOM     16  C   UNL     1      30.822 -11.451 -21.040  0.00  0.00    -0.002 C 
ATOM     17  C   UNL     1      31.541 -11.174 -19.729  0.00  0.00    -0.000 C 
ENDBRANCH  15  16
ENDBRANCH  14  15
ENDBRANCH   1  14
TORSDOF 12
ENDMDL
