MODEL 1
REMARK VINA RESULT:     -11.2      0.000      0.000
REMARK  Name = 9887812
REMARK  11 active torsions:
REMARK  status: ('A' for Active; 'I' for Inactive)
REMARK    1  A    between atoms: N_1  and  C_3
REMARK    2  A    between atoms: N_1  and  C_19
REMARK    3  A    between atoms: C_4  and  C_9
REMARK    4  A    between atoms: C_12  and  C_16
REMARK    5  A    between atoms: C_16  and  O_17
REMARK    6  A    between atoms: C_19  and  C_20
REMARK    7  A    between atoms: C_20  and  N_21
REMARK    8  A    between atoms: N_21  and  C_24
REMARK    9  A    between atoms: C_24  and  C_25
REMARK   10  A    between atoms: C_25  and  C_27
REMARK   11  A    between atoms: C_25  and  O_33
REMARK                            x       y       z     vdW  Elec       q    Type
REMARK                         _______ _______ _______ _____ _____    ______ ____
ROOT
ATOM      1  N   UNL     1      34.487 -14.976 -22.465  0.00  0.00    -0.335 N 
ATOM      2  H   UNL     1      34.673 -14.292 -23.147  0.00  0.00    +0.147 HD
ENDROOT
BRANCH   1   3
ATOM      3  C   UNL     1      34.663 -16.333 -22.806  0.00  0.00    +0.045 C 
ATOM      4  C   UNL     1      35.114 -18.615 -22.152  0.00  0.00    +0.001 C 
ATOM      5  C   UNL     1      34.939 -17.272 -21.813  0.00  0.00    +0.014 C 
ATOM      6  C   UNL     1      34.563 -16.735 -24.138  0.00  0.00    +0.014 C 
ATOM      7  C   UNL     1      35.014 -19.017 -23.484  0.00  0.00    +0.000 C 
ATOM      8  C   UNL     1      34.739 -18.077 -24.477  0.00  0.00    +0.001 C 
BRANCH   4   9
ATOM      9  C   UNL     1      35.400 -19.589 -21.122  0.00  0.00    +0.000 C 
ATOM     10  C   UNL     1      34.383 -20.411 -20.636  0.00  0.00    +0.006 C 
ATOM     11  C   UNL     1      36.694 -19.706 -20.614  0.00  0.00    +0.000 C 
ATOM     12  C   UNL     1      34.660 -21.349 -19.643  0.00  0.00    +0.075 C 
ATOM     13  C   UNL     1      36.970 -20.645 -19.619  0.00  0.00    +0.000 C 
ATOM     14  C   UNL     1      35.953 -21.467 -19.134  0.00  0.00    +0.006 C 
BRANCH  12  16
ATOM     15  O   UNL     1      32.493 -21.823 -18.745  0.00  0.00    -0.245 OA
ATOM     16  C   UNL     1      33.600 -22.208 -19.136  0.00  0.00    +0.338 C 
BRANCH  16  17
ATOM     17  O   UNL     1      33.952 -23.523 -19.132  0.00  0.00    -0.477 OA
ATOM     18  H   UNL     1      34.732 -23.800 -19.570  0.00  0.00    +0.295 HD
ENDBRANCH  16  17
ENDBRANCH  12  16
ENDBRANCH   4   9
ENDBRANCH   1   3
BRANCH   1  19
ATOM     19  C   UNL     1      34.052 -14.551 -21.170  0.00  0.00    +0.064 C 
BRANCH  19  20
ATOM     20  C   UNL     1      32.575 -14.187 -21.221  0.00  0.00    -0.060 C 
BRANCH  20  21
ATOM     21  N   UNL     1      32.242 -13.596 -22.512  0.00  0.00    +0.387 N 
ATOM     22  H   UNL     1      32.912 -13.920 -23.209  0.00  0.00    -0.084 HD
ATOM     23  H   UNL     1      31.297 -13.883 -22.767  0.00  0.00    -0.084 HD
BRANCH  21  24
ATOM     24  C   UNL     1      32.286 -12.142 -22.445  0.00  0.00    -0.047 C 
BRANCH  24  25
ATOM     25  C   UNL     1      33.001 -11.562 -23.672  0.00  0.00    +0.112 C 
BRANCH  25  27
ATOM     26 CL   UNL     1      31.874  -6.957 -21.537  0.00  0.00    -0.082 Cl
ATOM     27  C   UNL     1      33.366 -10.109 -23.464  0.00  0.00    +0.003 C 
ATOM     28  C   UNL     1      32.544  -9.310 -22.689  0.00  0.00    +0.009 C 
ATOM     29  C   UNL     1      34.516  -9.610 -24.052  0.00  0.00    -0.002 C 
ATOM     30  C   UNL     1      32.882  -7.970 -22.497  0.00  0.00    +0.057 C 
ATOM     31  C   UNL     1      34.853  -8.271 -23.860  0.00  0.00    +0.001 C 
ATOM     32  C   UNL     1      34.037  -7.451 -23.082  0.00  0.00    +0.011 C 
ENDBRANCH  25  27
BRANCH  25  33
ATOM     33  O   UNL     1      34.199 -12.290 -23.935  0.00  0.00    -0.382 OA
ATOM     34  H   UNL     1      33.980 -13.130 -24.367  0.00  0.00    +0.211 HD
ENDBRANCH  25  33
ENDBRANCH  24  25
ENDBRANCH  21  24
ENDBRANCH  20  21
ENDBRANCH  19  20
ENDBRANCH   1  19
TORSDOF 11
ENDMDL
MODEL 2
REMARK VINA RESULT:     -11.1      5.925     11.582
REMARK  Name = 9887812
REMARK  11 active torsions:
REMARK  status: ('A' for Active; 'I' for Inactive)
REMARK    1  A    between atoms: N_1  and  C_3
REMARK    2  A    between atoms: N_1  and  C_19
REMARK    3  A    between atoms: C_4  and  C_9
REMARK    4  A    between atoms: C_12  and  C_16
REMARK    5  A    between atoms: C_16  and  O_17
REMARK    6  A    between atoms: C_19  and  C_20
REMARK    7  A    between atoms: C_20  and  N_21
REMARK    8  A    between atoms: N_21  and  C_24
REMARK    9  A    between atoms: C_24  and  C_25
REMARK   10  A    between atoms: C_25  and  C_27
REMARK   11  A    between atoms: C_25  and  O_33
REMARK                            x       y       z     vdW  Elec       q    Type
REMARK                         _______ _______ _______ _____ _____    ______ ____
ROOT
ATOM      1  N   UNL     1      32.856 -22.226 -18.796  0.00  0.00    -0.335 N 
ATOM      2  H   UNL     1      31.993 -22.037 -19.231  0.00  0.00    +0.147 HD
ENDROOT
BRANCH   1   3
ATOM      3  C   UNL     1      34.015 -21.599 -19.296  0.00  0.00    +0.045 C 
ATOM      4  C   UNL     1      35.051 -19.938 -20.712  0.00  0.00    +0.001 C 
ATOM      5  C   UNL     1      33.903 -20.558 -20.218  0.00  0.00    +0.014 C 
ATOM      6  C   UNL     1      35.275 -22.019 -18.869  0.00  0.00    +0.014 C 
ATOM      7  C   UNL     1      36.311 -20.358 -20.285  0.00  0.00    +0.000 C 
ATOM      8  C   UNL     1      36.422 -21.399 -19.363  0.00  0.00    +0.001 C 
BRANCH   4   9
ATOM      9  C   UNL     1      34.934 -18.859 -21.668  0.00  0.00    +0.000 C 
ATOM     10  C   UNL     1      34.819 -17.541 -21.224  0.00  0.00    +0.006 C 
ATOM     11  C   UNL     1      34.937 -19.136 -23.035  0.00  0.00    +0.000 C 
ATOM     12  C   UNL     1      34.706 -16.502 -22.147  0.00  0.00    +0.075 C 
ATOM     13  C   UNL     1      34.824 -18.096 -23.958  0.00  0.00    +0.000 C 
ATOM     14  C   UNL     1      34.708 -16.778 -23.514  0.00  0.00    +0.006 C 
BRANCH  12  16
ATOM     15  O   UNL     1      34.260 -14.163 -22.384  0.00  0.00    -0.245 OA
ATOM     16  C   UNL     1      34.586 -15.128 -21.685  0.00  0.00    +0.338 C 
BRANCH  16  17
ATOM     17  O   UNL     1      34.878 -14.996 -20.361  0.00  0.00    -0.477 OA
ATOM     18  H   UNL     1      34.624 -15.666 -19.757  0.00  0.00    +0.295 HD
ENDBRANCH  16  17
ENDBRANCH  12  16
ENDBRANCH   4   9
ENDBRANCH   1   3
BRANCH   1  19
ATOM     19  C   UNL     1      32.876 -23.125 -17.683  0.00  0.00    +0.064 C 
BRANCH  19  20
ATOM     20  C   UNL     1      31.675 -22.856 -16.786  0.00  0.00    -0.060 C 
BRANCH  20  21
ATOM     21  N   UNL     1      31.701 -23.738 -15.626  0.00  0.00    +0.387 N 
ATOM     22  H   UNL     1      30.782 -23.735 -15.184  0.00  0.00    -0.084 HD
ATOM     23  H   UNL     1      31.943 -24.679 -15.936  0.00  0.00    -0.084 HD
BRANCH  21  24
ATOM     24  C   UNL     1      32.697 -23.296 -14.659  0.00  0.00    -0.047 C 
BRANCH  24  25
ATOM     25  C   UNL     1      33.657 -24.438 -14.304  0.00  0.00    +0.112 C 
BRANCH  25  27
ATOM     26 CL   UNL     1      38.614 -25.947 -14.747  0.00  0.00    -0.082 Cl
ATOM     27  C   UNL     1      35.081 -24.104 -14.690  0.00  0.00    +0.003 C 
ATOM     28  C   UNL     1      36.063 -25.070 -14.553  0.00  0.00    +0.009 C 
ATOM     29  C   UNL     1      35.371 -22.840 -15.175  0.00  0.00    -0.002 C 
ATOM     30  C   UNL     1      37.376 -24.761 -14.910  0.00  0.00    +0.057 C 
ATOM     31  C   UNL     1      36.684 -22.532 -15.532  0.00  0.00    +0.001 C 
ATOM     32  C   UNL     1      37.686 -23.493 -15.400  0.00  0.00    +0.011 C 
ENDBRANCH  25  27
BRANCH  25  33
ATOM     33  O   UNL     1      33.624 -24.694 -12.902  0.00  0.00    -0.382 OA
ATOM     34  H   UNL     1      34.519 -24.898 -12.588  0.00  0.00    +0.211 HD
ENDBRANCH  25  33
ENDBRANCH  24  25
ENDBRANCH  21  24
ENDBRANCH  20  21
ENDBRANCH  19  20
ENDBRANCH   1  19
TORSDOF 11
ENDMDL
MODEL 3
REMARK VINA RESULT:     -10.9      6.176     11.526
REMARK  Name = 9887812
REMARK  11 active torsions:
REMARK  status: ('A' for Active; 'I' for Inactive)
REMARK    1  A    between atoms: N_1  and  C_3
REMARK    2  A    between atoms: N_1  and  C_19
REMARK    3  A    between atoms: C_4  and  C_9
REMARK    4  A    between atoms: C_12  and  C_16
REMARK    5  A    between atoms: C_16  and  O_17
REMARK    6  A    between atoms: C_19  and  C_20
REMARK    7  A    between atoms: C_20  and  N_21
REMARK    8  A    between atoms: N_21  and  C_24
REMARK    9  A    between atoms: C_24  and  C_25
REMARK   10  A    between atoms: C_25  and  C_27
REMARK   11  A    between atoms: C_25  and  O_33
REMARK                            x       y       z     vdW  Elec       q    Type
REMARK                         _______ _______ _______ _____ _____    ______ ____
ROOT
ATOM      1  N   UNL     1      33.038 -22.160 -19.065  0.00  0.00    -0.335 N 
ATOM      2  H   UNL     1      32.188 -22.061 -19.552  0.00  0.00    +0.147 HD
ENDROOT
BRANCH   1   3
ATOM      3  C   UNL     1      34.165 -21.450 -19.526  0.00  0.00    +0.045 C 
ATOM      4  C   UNL     1      35.114 -19.592 -20.746  0.00  0.00    +0.001 C 
ATOM      5  C   UNL     1      33.998 -20.294 -20.289  0.00  0.00    +0.014 C 
ATOM      6  C   UNL     1      35.449 -21.904 -19.221  0.00  0.00    +0.014 C 
ATOM      7  C   UNL     1      36.398 -20.046 -20.440  0.00  0.00    +0.000 C 
ATOM      8  C   UNL     1      36.564 -21.203 -19.678  0.00  0.00    +0.001 C 
BRANCH   4   9
ATOM      9  C   UNL     1      34.940 -18.394 -21.537  0.00  0.00    +0.000 C 
ATOM     10  C   UNL     1      34.805 -18.486 -22.923  0.00  0.00    +0.006 C 
ATOM     11  C   UNL     1      34.908 -17.146 -20.914  0.00  0.00    +0.000 C 
ATOM     12  C   UNL     1      34.638 -17.330 -23.685  0.00  0.00    +0.075 C 
ATOM     13  C   UNL     1      34.741 -15.990 -21.677  0.00  0.00    +0.000 C 
ATOM     14  C   UNL     1      34.606 -16.082 -23.063  0.00  0.00    +0.006 C 
BRANCH  12  16
ATOM     15  O   UNL     1      34.890 -16.584 -25.944  0.00  0.00    -0.245 OA
ATOM     16  C   UNL     1      34.496 -17.425 -25.129  0.00  0.00    +0.338 C 
BRANCH  16  17
ATOM     17  O   UNL     1      33.865 -18.568 -25.517  0.00  0.00    -0.477 OA
ATOM     18  H   UNL     1      33.824 -18.795 -26.424  0.00  0.00    +0.295 HD
ENDBRANCH  16  17
ENDBRANCH  12  16
ENDBRANCH   4   9
ENDBRANCH   1   3
BRANCH   1  19
ATOM     19  C   UNL     1      33.074 -23.015 -17.919  0.00  0.00    +0.064 C 
BRANCH  19  20
ATOM     20  C   UNL     1      31.855 -22.750 -17.045  0.00  0.00    -0.060 C 
BRANCH  20  21
ATOM     21  N   UNL     1      31.838 -23.663 -15.908  0.00  0.00    +0.387 N 
ATOM     22  H   UNL     1      30.900 -23.681 -15.509  0.00  0.00    -0.084 HD
ATOM     23  H   UNL     1      32.105 -24.592 -16.231  0.00  0.00    -0.084 HD
BRANCH  21  24
ATOM     24  C   UNL     1      32.784 -23.235 -14.885  0.00  0.00    -0.047 C 
BRANCH  24  25
ATOM     25  C   UNL     1      33.708 -24.391 -14.481  0.00  0.00    +0.112 C 
BRANCH  25  27
ATOM     26 CL   UNL     1      38.673 -25.933 -14.549  0.00  0.00    -0.082 Cl
ATOM     27  C   UNL     1      35.151 -24.090 -14.819  0.00  0.00    +0.003 C 
ATOM     28  C   UNL     1      36.120 -25.042 -14.555  0.00  0.00    +0.009 C 
ATOM     29  C   UNL     1      35.471 -22.869 -15.388  0.00  0.00    -0.002 C 
ATOM     30  C   UNL     1      37.451 -24.764 -14.869  0.00  0.00    +0.057 C 
ATOM     31  C   UNL     1      36.801 -22.591 -15.701  0.00  0.00    +0.001 C 
ATOM     32  C   UNL     1      37.791 -23.539 -15.442  0.00  0.00    +0.011 C 
ENDBRANCH  25  27
BRANCH  25  33
ATOM     33  O   UNL     1      33.619 -24.626 -13.077  0.00  0.00    -0.382 OA
ATOM     34  H   UNL     1      32.796 -25.101 -12.879  0.00  0.00    +0.211 HD
ENDBRANCH  25  33
ENDBRANCH  24  25
ENDBRANCH  21  24
ENDBRANCH  20  21
ENDBRANCH  19  20
ENDBRANCH   1  19
TORSDOF 11
ENDMDL
MODEL 4
REMARK VINA RESULT:     -10.8      1.607      1.869
REMARK  Name = 9887812
REMARK  11 active torsions:
REMARK  status: ('A' for Active; 'I' for Inactive)
REMARK    1  A    between atoms: N_1  and  C_3
REMARK    2  A    between atoms: N_1  and  C_19
REMARK    3  A    between atoms: C_4  and  C_9
REMARK    4  A    between atoms: C_12  and  C_16
REMARK    5  A    between atoms: C_16  and  O_17
REMARK    6  A    between atoms: C_19  and  C_20
REMARK    7  A    between atoms: C_20  and  N_21
REMARK    8  A    between atoms: N_21  and  C_24
REMARK    9  A    between atoms: C_24  and  C_25
REMARK   10  A    between atoms: C_25  and  C_27
REMARK   11  A    between atoms: C_25  and  O_33
REMARK                            x       y       z     vdW  Elec       q    Type
REMARK                         _______ _______ _______ _____ _____    ______ ____
ROOT
ATOM      1  N   UNL     1      34.891 -15.296 -22.652  0.00  0.00    -0.335 N 
ATOM      2  H   UNL     1      35.553 -14.926 -22.025  0.00  0.00    +0.147 HD
ENDROOT
BRANCH   1   3
ATOM      3  C   UNL     1      34.898 -16.685 -22.897  0.00  0.00    +0.045 C 
ATOM      4  C   UNL     1      35.145 -18.950 -22.095  0.00  0.00    +0.001 C 
ATOM      5  C   UNL     1      35.138 -17.576 -21.852  0.00  0.00    +0.014 C 
ATOM      6  C   UNL     1      34.667 -17.167 -24.185  0.00  0.00    +0.014 C 
ATOM      7  C   UNL     1      34.913 -19.433 -23.383  0.00  0.00    +0.000 C 
ATOM      8  C   UNL     1      34.674 -18.540 -24.429  0.00  0.00    +0.001 C 
BRANCH   4   9
ATOM      9  C   UNL     1      35.393 -19.875 -21.010  0.00  0.00    +0.000 C 
ATOM     10  C   UNL     1      34.365 -20.691 -20.538  0.00  0.00    +0.006 C 
ATOM     11  C   UNL     1      36.662 -19.950 -20.436  0.00  0.00    +0.000 C 
ATOM     12  C   UNL     1      34.605 -21.581 -19.492  0.00  0.00    +0.075 C 
ATOM     13  C   UNL     1      36.903 -20.840 -19.389  0.00  0.00    +0.000 C 
ATOM     14  C   UNL     1      35.874 -21.657 -18.917  0.00  0.00    +0.006 C 
BRANCH  12  16
ATOM     15  O   UNL     1      32.445 -22.038 -18.571  0.00  0.00    -0.245 OA
ATOM     16  C   UNL     1      33.534 -22.433 -19.001  0.00  0.00    +0.338 C 
BRANCH  16  17
ATOM     17  O   UNL     1      33.852 -23.756 -19.059  0.00  0.00    -0.477 OA
ATOM     18  H   UNL     1      34.560 -24.044 -19.600  0.00  0.00    +0.295 HD
ENDBRANCH  16  17
ENDBRANCH  12  16
ENDBRANCH   4   9
ENDBRANCH   1   3
BRANCH   1  19
ATOM     19  C   UNL     1      33.963 -14.402 -23.273  0.00  0.00    +0.064 C 
BRANCH  19  20
ATOM     20  C   UNL     1      32.984 -13.877 -22.232  0.00  0.00    -0.060 C 
BRANCH  20  21
ATOM     21  N   UNL     1      31.941 -13.082 -22.870  0.00  0.00    +0.387 N 
ATOM     22  H   UNL     1      31.872 -13.351 -23.852  0.00  0.00    -0.084 HD
ATOM     23  H   UNL     1      31.059 -13.256 -22.390  0.00  0.00    -0.084 HD
BRANCH  21  24
ATOM     24  C   UNL     1      32.247 -11.661 -22.785  0.00  0.00    -0.047 C 
BRANCH  24  25
ATOM     25  C   UNL     1      31.678 -11.058 -21.494  0.00  0.00    +0.112 C 
BRANCH  25  27
ATOM     26 CL   UNL     1      31.252  -6.553 -24.056  0.00  0.00    -0.082 Cl
ATOM     27  C   UNL     1      31.798  -9.550 -21.488  0.00  0.00    +0.003 C 
ATOM     28  C   UNL     1      31.504  -8.843 -22.641  0.00  0.00    +0.009 C 
ATOM     29  C   UNL     1      32.198  -8.909 -20.328  0.00  0.00    -0.002 C 
ATOM     30  C   UNL     1      31.613  -7.453 -22.634  0.00  0.00    +0.057 C 
ATOM     31  C   UNL     1      32.308  -7.519 -20.321  0.00  0.00    +0.001 C 
ATOM     32  C   UNL     1      32.016  -6.790 -21.474  0.00  0.00    +0.011 C 
ENDBRANCH  25  27
BRANCH  25  33
ATOM     33  O   UNL     1      30.300 -11.396 -21.356  0.00  0.00    -0.382 OA
ATOM     34  H   UNL     1      30.190 -12.355 -21.454  0.00  0.00    +0.211 HD
ENDBRANCH  25  33
ENDBRANCH  24  25
ENDBRANCH  21  24
ENDBRANCH  20  21
ENDBRANCH  19  20
ENDBRANCH   1  19
TORSDOF 11
ENDMDL
MODEL 5
REMARK VINA RESULT:     -10.8      5.816     11.369
REMARK  Name = 9887812
REMARK  11 active torsions:
REMARK  status: ('A' for Active; 'I' for Inactive)
REMARK    1  A    between atoms: N_1  and  C_3
REMARK    2  A    between atoms: N_1  and  C_19
REMARK    3  A    between atoms: C_4  and  C_9
REMARK    4  A    between atoms: C_12  and  C_16
REMARK    5  A    between atoms: C_16  and  O_17
REMARK    6  A    between atoms: C_19  and  C_20
REMARK    7  A    between atoms: C_20  and  N_21
REMARK    8  A    between atoms: N_21  and  C_24
REMARK    9  A    between atoms: C_24  and  C_25
REMARK   10  A    between atoms: C_25  and  C_27
REMARK   11  A    between atoms: C_25  and  O_33
REMARK                            x       y       z     vdW  Elec       q    Type
REMARK                         _______ _______ _______ _____ _____    ______ ____
ROOT
ATOM      1  N   UNL     1      36.777 -21.926 -18.412  0.00  0.00    -0.335 N 
ATOM      2  H   UNL     1      37.401 -22.526 -18.881  0.00  0.00    +0.147 HD
ENDROOT
BRANCH   1   3
ATOM      3  C   UNL     1      35.633 -21.472 -19.099  0.00  0.00    +0.045 C 
ATOM      4  C   UNL     1      34.608 -19.988 -20.707  0.00  0.00    +0.001 C 
ATOM      5  C   UNL     1      35.741 -20.437 -20.028  0.00  0.00    +0.014 C 
ATOM      6  C   UNL     1      34.392 -22.058 -18.850  0.00  0.00    +0.014 C 
ATOM      7  C   UNL     1      33.367 -20.574 -20.458  0.00  0.00    +0.000 C 
ATOM      8  C   UNL     1      33.259 -21.609 -19.529  0.00  0.00    +0.001 C 
BRANCH   4   9
ATOM      9  C   UNL     1      34.721 -18.914 -21.670  0.00  0.00    +0.000 C 
ATOM     10  C   UNL     1      34.639 -17.587 -21.248  0.00  0.00    +0.006 C 
ATOM     11  C   UNL     1      34.912 -19.206 -23.020  0.00  0.00    +0.000 C 
ATOM     12  C   UNL     1      34.747 -16.552 -22.177  0.00  0.00    +0.075 C 
ATOM     13  C   UNL     1      35.020 -18.171 -23.949  0.00  0.00    +0.000 C 
ATOM     14  C   UNL     1      34.938 -16.843 -23.527  0.00  0.00    +0.006 C 
BRANCH  12  16
ATOM     15  O   UNL     1      34.440 -14.197 -22.469  0.00  0.00    -0.245 OA
ATOM     16  C   UNL     1      34.662 -15.168 -21.738  0.00  0.00    +0.338 C 
BRANCH  16  17
ATOM     17  O   UNL     1      34.858 -15.034 -20.397  0.00  0.00    -0.477 OA
ATOM     18  H   UNL     1      34.122 -14.958 -19.822  0.00  0.00    +0.295 HD
ENDBRANCH  16  17
ENDBRANCH  12  16
ENDBRANCH   4   9
ENDBRANCH   1   3
BRANCH   1  19
ATOM     19  C   UNL     1      37.071 -21.555 -17.062  0.00  0.00    +0.064 C 
BRANCH  19  20
ATOM     20  C   UNL     1      36.934 -22.771 -16.156  0.00  0.00    -0.060 C 
BRANCH  20  21
ATOM     21  N   UNL     1      35.749 -22.646 -15.315  0.00  0.00    +0.387 N 
ATOM     22  H   UNL     1      36.041 -22.487 -14.350  0.00  0.00    -0.084 HD
ATOM     23  H   UNL     1      35.192 -21.862 -15.652  0.00  0.00    -0.084 HD
BRANCH  21  24
ATOM     24  C   UNL     1      34.939 -23.855 -15.376  0.00  0.00    -0.047 C 
BRANCH  24  25
ATOM     25  C   UNL     1      33.822 -23.815 -14.326  0.00  0.00    +0.112 C 
BRANCH  25  27
ATOM     26 CL   UNL     1      28.865 -25.382 -14.441  0.00  0.00    -0.082 Cl
ATOM     27  C   UNL     1      32.457 -23.740 -14.973  0.00  0.00    +0.003 C 
ATOM     28  C   UNL     1      31.423 -24.507 -14.463  0.00  0.00    +0.009 C 
ATOM     29  C   UNL     1      32.269 -22.905 -16.061  0.00  0.00    -0.002 C 
ATOM     30  C   UNL     1      30.164 -24.437 -15.059  0.00  0.00    +0.057 C 
ATOM     31  C   UNL     1      31.010 -22.835 -16.657  0.00  0.00    +0.001 C 
ATOM     32  C   UNL     1      29.958 -23.601 -16.157  0.00  0.00    +0.011 C 
ENDBRANCH  25  27
BRANCH  25  33
ATOM     33  O   UNL     1      33.866 -24.986 -13.513  0.00  0.00    -0.382 OA
ATOM     34  H   UNL     1      32.963 -25.251 -13.277  0.00  0.00    +0.211 HD
ENDBRANCH  25  33
ENDBRANCH  24  25
ENDBRANCH  21  24
ENDBRANCH  20  21
ENDBRANCH  19  20
ENDBRANCH   1  19
TORSDOF 11
ENDMDL
MODEL 6
REMARK VINA RESULT:     -10.7      4.398      7.707
REMARK  Name = 9887812
REMARK  11 active torsions:
REMARK  status: ('A' for Active; 'I' for Inactive)
REMARK    1  A    between atoms: N_1  and  C_3
REMARK    2  A    between atoms: N_1  and  C_19
REMARK    3  A    between atoms: C_4  and  C_9
REMARK    4  A    between atoms: C_12  and  C_16
REMARK    5  A    between atoms: C_16  and  O_17
REMARK    6  A    between atoms: C_19  and  C_20
REMARK    7  A    between atoms: C_20  and  N_21
REMARK    8  A    between atoms: N_21  and  C_24
REMARK    9  A    between atoms: C_24  and  C_25
REMARK   10  A    between atoms: C_25  and  C_27
REMARK   11  A    between atoms: C_25  and  O_33
REMARK                            x       y       z     vdW  Elec       q    Type
REMARK                         _______ _______ _______ _____ _____    ______ ____
ROOT
ATOM      1  N   UNL     1      34.737 -22.355 -19.311  0.00  0.00    -0.335 N 
ATOM      2  H   UNL     1      35.026 -23.084 -19.906  0.00  0.00    +0.147 HD
ENDROOT
BRANCH   1   3
ATOM      3  C   UNL     1      34.442 -22.660 -17.967  0.00  0.00    +0.045 C 
ATOM      4  C   UNL     1      32.843 -23.270 -16.261  0.00  0.00    +0.001 C 
ATOM      5  C   UNL     1      33.134 -22.969 -17.592  0.00  0.00    +0.014 C 
ATOM      6  C   UNL     1      35.457 -22.651 -17.010  0.00  0.00    +0.014 C 
ATOM      7  C   UNL     1      33.858 -23.262 -15.305  0.00  0.00    +0.000 C 
ATOM      8  C   UNL     1      35.166 -22.952 -15.680  0.00  0.00    +0.001 C 
BRANCH   4   9
ATOM      9  C   UNL     1      31.487 -23.591 -15.873  0.00  0.00    +0.000 C 
ATOM     10  C   UNL     1      30.412 -23.013 -16.550  0.00  0.00    +0.006 C 
ATOM     11  C   UNL     1      31.254 -24.477 -14.822  0.00  0.00    +0.000 C 
ATOM     12  C   UNL     1      29.105 -23.323 -16.174  0.00  0.00    +0.075 C 
ATOM     13  C   UNL     1      29.946 -24.786 -14.446  0.00  0.00    +0.000 C 
ATOM     14  C   UNL     1      28.871 -24.209 -15.123  0.00  0.00    +0.006 C 
BRANCH  12  16
ATOM     15  O   UNL     1      27.537 -21.587 -16.681  0.00  0.00    -0.245 OA
ATOM     16  C   UNL     1      27.984 -22.722 -16.880  0.00  0.00    +0.338 C 
BRANCH  16  17
ATOM     17  O   UNL     1      27.450 -23.556 -17.815  0.00  0.00    -0.477 OA
ATOM     18  H   UNL     1      26.794 -23.240 -18.404  0.00  0.00    +0.295 HD
ENDBRANCH  16  17
ENDBRANCH  12  16
ENDBRANCH   4   9
ENDBRANCH   1   3
BRANCH   1  19
ATOM     19  C   UNL     1      34.637 -21.033 -19.848  0.00  0.00    +0.064 C 
BRANCH  19  20
ATOM     20  C   UNL     1      36.029 -20.505 -20.169  0.00  0.00    -0.060 C 
BRANCH  20  21
ATOM     21  N   UNL     1      35.960 -19.106 -20.575  0.00  0.00    +0.387 N 
ATOM     22  H   UNL     1      35.809 -18.527 -19.749  0.00  0.00    -0.084 HD
ATOM     23  H   UNL     1      36.838 -18.855 -21.029  0.00  0.00    -0.084 HD
BRANCH  21  24
ATOM     24  C   UNL     1      34.870 -18.892 -21.516  0.00  0.00    -0.047 C 
BRANCH  24  25
ATOM     25  C   UNL     1      35.401 -18.356 -22.852  0.00  0.00    +0.112 C 
BRANCH  25  27
ATOM     26 CL   UNL     1      33.153 -15.152 -26.275  0.00  0.00    -0.082 Cl
ATOM     27  C   UNL     1      34.834 -16.989 -23.165  0.00  0.00    +0.003 C 
ATOM     28  C   UNL     1      34.320 -16.742 -24.426  0.00  0.00    +0.009 C 
ATOM     29  C   UNL     1      34.839 -16.014 -22.181  0.00  0.00    -0.002 C 
ATOM     30  C   UNL     1      33.797 -15.481 -24.713  0.00  0.00    +0.057 C 
ATOM     31  C   UNL     1      34.316 -14.754 -22.469  0.00  0.00    +0.001 C 
ATOM     32  C   UNL     1      33.795 -14.487 -23.734  0.00  0.00    +0.011 C 
ENDBRANCH  25  27
BRANCH  25  33
ATOM     33  O   UNL     1      36.823 -18.251 -22.812  0.00  0.00    -0.382 OA
ATOM     34  H   UNL     1      37.132 -18.379 -21.902  0.00  0.00    +0.211 HD
ENDBRANCH  25  33
ENDBRANCH  24  25
ENDBRANCH  21  24
ENDBRANCH  20  21
ENDBRANCH  19  20
ENDBRANCH   1  19
TORSDOF 11
ENDMDL
MODEL 7
REMARK VINA RESULT:     -10.7      5.319     11.434
REMARK  Name = 9887812
REMARK  11 active torsions:
REMARK  status: ('A' for Active; 'I' for Inactive)
REMARK    1  A    between atoms: N_1  and  C_3
REMARK    2  A    between atoms: N_1  and  C_19
REMARK    3  A    between atoms: C_4  and  C_9
REMARK    4  A    between atoms: C_12  and  C_16
REMARK    5  A    between atoms: C_16  and  O_17
REMARK    6  A    between atoms: C_19  and  C_20
REMARK    7  A    between atoms: C_20  and  N_21
REMARK    8  A    between atoms: N_21  and  C_24
REMARK    9  A    between atoms: C_24  and  C_25
REMARK   10  A    between atoms: C_25  and  C_27
REMARK   11  A    between atoms: C_25  and  O_33
REMARK                            x       y       z     vdW  Elec       q    Type
REMARK                         _______ _______ _______ _____ _____    ______ ____
ROOT
ATOM      1  N   UNL     1      33.133 -22.310 -19.180  0.00  0.00    -0.335 N 
ATOM      2  H   UNL     1      32.597 -22.755 -19.875  0.00  0.00    +0.147 HD
ENDROOT
BRANCH   1   3
ATOM      3  C   UNL     1      34.257 -21.555 -19.577  0.00  0.00    +0.045 C 
ATOM      4  C   UNL     1      35.218 -19.756 -20.872  0.00  0.00    +0.001 C 
ATOM      5  C   UNL     1      34.107 -20.502 -20.479  0.00  0.00    +0.014 C 
ATOM      6  C   UNL     1      35.519 -21.863 -19.069  0.00  0.00    +0.014 C 
ATOM      7  C   UNL     1      36.480 -20.064 -20.363  0.00  0.00    +0.000 C 
ATOM      8  C   UNL     1      36.630 -21.118 -19.461  0.00  0.00    +0.001 C 
BRANCH   4   9
ATOM      9  C   UNL     1      35.062 -18.664 -21.808  0.00  0.00    +0.000 C 
ATOM     10  C   UNL     1      34.903 -17.360 -21.339  0.00  0.00    +0.006 C 
ATOM     11  C   UNL     1      35.071 -18.916 -23.180  0.00  0.00    +0.000 C 
ATOM     12  C   UNL     1      34.752 -16.308 -22.242  0.00  0.00    +0.075 C 
ATOM     13  C   UNL     1      34.920 -17.863 -24.083  0.00  0.00    +0.000 C 
ATOM     14  C   UNL     1      34.760 -16.559 -23.614  0.00  0.00    +0.006 C 
BRANCH  12  16
ATOM     15  O   UNL     1      34.264 -13.974 -22.442  0.00  0.00    -0.245 OA
ATOM     16  C   UNL     1      34.587 -14.948 -21.754  0.00  0.00    +0.338 C 
BRANCH  16  17
ATOM     17  O   UNL     1      34.831 -14.841 -20.418  0.00  0.00    -0.477 OA
ATOM     18  H   UNL     1      35.688 -14.617 -20.115  0.00  0.00    +0.295 HD
ENDBRANCH  16  17
ENDBRANCH  12  16
ENDBRANCH   4   9
ENDBRANCH   1   3
BRANCH   1  19
ATOM     19  C   UNL     1      32.738 -22.455 -17.813  0.00  0.00    +0.064 C 
BRANCH  19  20
ATOM     20  C   UNL     1      33.542 -23.574 -17.164  0.00  0.00    -0.060 C 
BRANCH  20  21
ATOM     21  N   UNL     1      34.161 -23.104 -15.931  0.00  0.00    +0.387 N 
ATOM     22  H   UNL     1      35.171 -23.238 -15.992  0.00  0.00    -0.084 HD
ATOM     23  H   UNL     1      33.940 -22.116 -15.811  0.00  0.00    -0.084 HD
BRANCH  21  24
ATOM     24  C   UNL     1      33.652 -23.839 -14.781  0.00  0.00    -0.047 C 
BRANCH  24  25
ATOM     25  C   UNL     1      32.490 -23.083 -14.123  0.00  0.00    +0.112 C 
BRANCH  25  27
ATOM     26 CL   UNL     1      27.798 -22.318 -16.229  0.00  0.00    -0.082 Cl
ATOM     27  C   UNL     1      31.152 -23.651 -14.542  0.00  0.00    +0.003 C 
ATOM     28  C   UNL     1      30.214 -22.815 -15.120  0.00  0.00    +0.009 C 
ATOM     29  C   UNL     1      30.896 -24.997 -14.338  0.00  0.00    -0.002 C 
ATOM     30  C   UNL     1      28.980 -23.340 -15.507  0.00  0.00    +0.057 C 
ATOM     31  C   UNL     1      29.663 -25.521 -14.725  0.00  0.00    +0.001 C 
ATOM     32  C   UNL     1      28.705 -24.693 -15.309  0.00  0.00    +0.011 C 
ENDBRANCH  25  27
BRANCH  25  33
ATOM     33  O   UNL     1      32.587 -23.169 -12.703  0.00  0.00    -0.382 OA
ATOM     34  H   UNL     1      32.540 -22.279 -12.320  0.00  0.00    +0.211 HD
ENDBRANCH  25  33
ENDBRANCH  24  25
ENDBRANCH  21  24
ENDBRANCH  20  21
ENDBRANCH  19  20
ENDBRANCH   1  19
TORSDOF 11
ENDMDL
MODEL 8
REMARK VINA RESULT:     -10.6      5.154      8.474
REMARK  Name = 9887812
REMARK  11 active torsions:
REMARK  status: ('A' for Active; 'I' for Inactive)
REMARK    1  A    between atoms: N_1  and  C_3
REMARK    2  A    between atoms: N_1  and  C_19
REMARK    3  A    between atoms: C_4  and  C_9
REMARK    4  A    between atoms: C_12  and  C_16
REMARK    5  A    between atoms: C_16  and  O_17
REMARK    6  A    between atoms: C_19  and  C_20
REMARK    7  A    between atoms: C_20  and  N_21
REMARK    8  A    between atoms: N_21  and  C_24
REMARK    9  A    between atoms: C_24  and  C_25
REMARK   10  A    between atoms: C_25  and  C_27
REMARK   11  A    between atoms: C_25  and  O_33
REMARK                            x       y       z     vdW  Elec       q    Type
REMARK                         _______ _______ _______ _____ _____    ______ ____
ROOT
ATOM      1  N   UNL     1      32.625 -22.618 -18.253  0.00  0.00    -0.335 N 
ATOM      2  H   UNL     1      31.749 -22.571 -18.700  0.00  0.00    +0.147 HD
ENDROOT
BRANCH   1   3
ATOM      3  C   UNL     1      32.677 -23.075 -16.920  0.00  0.00    +0.045 C 
ATOM      4  C   UNL     1      33.943 -23.927 -15.047  0.00  0.00    +0.001 C 
ATOM      5  C   UNL     1      33.893 -23.475 -16.366  0.00  0.00    +0.014 C 
ATOM      6  C   UNL     1      31.512 -23.129 -16.155  0.00  0.00    +0.014 C 
ATOM      7  C   UNL     1      32.778 -23.980 -14.282  0.00  0.00    +0.000 C 
ATOM      8  C   UNL     1      31.562 -23.581 -14.837  0.00  0.00    +0.001 C 
BRANCH   4   9
ATOM      9  C   UNL     1      35.205 -24.342 -14.473  0.00  0.00    +0.000 C 
ATOM     10  C   UNL     1      35.707 -23.691 -13.345  0.00  0.00    +0.006 C 
ATOM     11  C   UNL     1      35.919 -25.393 -15.047  0.00  0.00    +0.000 C 
ATOM     12  C   UNL     1      36.923 -24.091 -12.793  0.00  0.00    +0.075 C 
ATOM     13  C   UNL     1      37.136 -25.793 -14.494  0.00  0.00    +0.000 C 
ATOM     14  C   UNL     1      37.638 -25.142 -13.367  0.00  0.00    +0.006 C 
BRANCH  12  16
ATOM     15  O   UNL     1      38.387 -22.613 -11.611  0.00  0.00    -0.245 OA
ATOM     16  C   UNL     1      37.446 -23.414 -11.617  0.00  0.00    +0.338 C 
BRANCH  16  17
ATOM     17  O   UNL     1      36.780 -23.756 -10.479  0.00  0.00    -0.477 OA
ATOM     18  H   UNL     1      35.994 -23.304 -10.244  0.00  0.00    +0.295 HD
ENDBRANCH  16  17
ENDBRANCH  12  16
ENDBRANCH   4   9
ENDBRANCH   1   3
BRANCH   1  19
ATOM     19  C   UNL     1      33.789 -22.223 -18.985  0.00  0.00    +0.064 C 
BRANCH  19  20
ATOM     20  C   UNL     1      33.473 -20.991 -19.822  0.00  0.00    -0.060 C 
BRANCH  20  21
ATOM     21  N   UNL     1      34.704 -20.348 -20.264  0.00  0.00    +0.387 N 
ATOM     22  H   UNL     1      34.953 -19.614 -19.601  0.00  0.00    -0.084 HD
ATOM     23  H   UNL     1      35.441 -21.052 -20.309  0.00  0.00    -0.084 HD
BRANCH  21  24
ATOM     24  C   UNL     1      34.538 -19.762 -21.587  0.00  0.00    -0.047 C 
BRANCH  24  25
ATOM     25  C   UNL     1      35.509 -18.591 -21.790  0.00  0.00    +0.112 C 
BRANCH  25  27
ATOM     26 CL   UNL     1      34.105 -13.869 -23.454  0.00  0.00    -0.082 Cl
ATOM     27  C   UNL     1      35.070 -17.699 -22.930  0.00  0.00    +0.003 C 
ATOM     28  C   UNL     1      34.822 -16.360 -22.684  0.00  0.00    +0.009 C 
ATOM     29  C   UNL     1      34.927 -18.242 -24.196  0.00  0.00    -0.002 C 
ATOM     30  C   UNL     1      34.418 -15.538 -23.736  0.00  0.00    +0.057 C 
ATOM     31  C   UNL     1      34.523 -17.420 -25.247  0.00  0.00    +0.001 C 
ATOM     32  C   UNL     1      34.269 -16.068 -25.018  0.00  0.00    +0.011 C 
ENDBRANCH  25  27
BRANCH  25  33
ATOM     33  O   UNL     1      35.581 -17.799 -20.606  0.00  0.00    -0.382 OA
ATOM     34  H   UNL     1      36.464 -17.401 -20.536  0.00  0.00    +0.211 HD
ENDBRANCH  25  33
ENDBRANCH  24  25
ENDBRANCH  21  24
ENDBRANCH  20  21
ENDBRANCH  19  20
ENDBRANCH   1  19
TORSDOF 11
ENDMDL
MODEL 9
REMARK VINA RESULT:     -10.4      1.753      2.379
REMARK  Name = 9887812
REMARK  11 active torsions:
REMARK  status: ('A' for Active; 'I' for Inactive)
REMARK    1  A    between atoms: N_1  and  C_3
REMARK    2  A    between atoms: N_1  and  C_19
REMARK    3  A    between atoms: C_4  and  C_9
REMARK    4  A    between atoms: C_12  and  C_16
REMARK    5  A    between atoms: C_16  and  O_17
REMARK    6  A    between atoms: C_19  and  C_20
REMARK    7  A    between atoms: C_20  and  N_21
REMARK    8  A    between atoms: N_21  and  C_24
REMARK    9  A    between atoms: C_24  and  C_25
REMARK   10  A    between atoms: C_25  and  C_27
REMARK   11  A    between atoms: C_25  and  O_33
REMARK                            x       y       z     vdW  Elec       q    Type
REMARK                         _______ _______ _______ _____ _____    ______ ____
ROOT
ATOM      1  N   UNL     1      34.578 -14.709 -22.478  0.00  0.00    -0.335 N 
ATOM      2  H   UNL     1      35.257 -14.372 -21.851  0.00  0.00    +0.147 HD
ENDROOT
BRANCH   1   3
ATOM      3  C   UNL     1      34.618 -16.070 -22.847  0.00  0.00    +0.045 C 
ATOM      4  C   UNL     1      34.438 -18.405 -22.253  0.00  0.00    +0.001 C 
ATOM      5  C   UNL     1      34.398 -17.059 -21.888  0.00  0.00    +0.014 C 
ATOM      6  C   UNL     1      34.878 -16.427 -24.170  0.00  0.00    +0.014 C 
ATOM      7  C   UNL     1      34.699 -18.762 -23.576  0.00  0.00    +0.000 C 
ATOM      8  C   UNL     1      34.919 -17.772 -24.535  0.00  0.00    +0.001 C 
BRANCH   4   9
ATOM      9  C   UNL     1      34.211 -19.431 -21.259  0.00  0.00    +0.000 C 
ATOM     10  C   UNL     1      35.294 -20.061 -20.645  0.00  0.00    +0.006 C 
ATOM     11  C   UNL     1      32.908 -19.790 -20.914  0.00  0.00    +0.000 C 
ATOM     12  C   UNL     1      35.073 -21.049 -19.687  0.00  0.00    +0.075 C 
ATOM     13  C   UNL     1      32.688 -20.779 -19.956  0.00  0.00    +0.000 C 
ATOM     14  C   UNL     1      33.771 -21.409 -19.341  0.00  0.00    +0.006 C 
BRANCH  12  16
ATOM     15  O   UNL     1      36.184 -22.230 -17.927  0.00  0.00    -0.245 OA
ATOM     16  C   UNL     1      36.202 -21.706 -19.045  0.00  0.00    +0.338 C 
BRANCH  16  17
ATOM     17  O   UNL     1      37.323 -21.689 -19.819  0.00  0.00    -0.477 OA
ATOM     18  H   UNL     1      37.604 -22.470 -20.252  0.00  0.00    +0.295 HD
ENDBRANCH  16  17
ENDBRANCH  12  16
ENDBRANCH   4   9
ENDBRANCH   1   3
BRANCH   1  19
ATOM     19  C   UNL     1      33.592 -13.799 -22.973  0.00  0.00    +0.064 C 
BRANCH  19  20
ATOM     20  C   UNL     1      32.578 -13.497 -21.878  0.00  0.00    -0.060 C 
BRANCH  20  21
ATOM     21  N   UNL     1      31.562 -12.573 -22.367  0.00  0.00    +0.387 N 
ATOM     22  H   UNL     1      31.678 -12.452 -23.373  0.00  0.00    -0.084 HD
ATOM     23  H   UNL     1      30.642 -12.960 -22.158  0.00  0.00    -0.084 HD
BRANCH  21  24
ATOM     24  C   UNL     1      31.682 -11.277 -21.713  0.00  0.00    -0.047 C 
BRANCH  24  25
ATOM     25  C   UNL     1      31.817 -10.155 -22.750  0.00  0.00    +0.112 C 
BRANCH  25  27
ATOM     26 CL   UNL     1      31.024  -5.025 -23.058  0.00  0.00    -0.082 Cl
ATOM     27  C   UNL     1      31.876  -8.795 -22.090  0.00  0.00    +0.003 C 
ATOM     28  C   UNL     1      31.470  -7.679 -22.802  0.00  0.00    +0.009 C 
ATOM     29  C   UNL     1      32.332  -8.696 -20.787  0.00  0.00    -0.002 C 
ATOM     30  C   UNL     1      31.524  -6.426 -22.191  0.00  0.00    +0.057 C 
ATOM     31  C   UNL     1      32.386  -7.443 -20.177  0.00  0.00    +0.001 C 
ATOM     32  C   UNL     1      31.981  -6.308 -20.879  0.00  0.00    +0.011 C 
ENDBRANCH  25  27
BRANCH  25  33
ATOM     33  O   UNL     1      33.007 -10.330 -23.516  0.00  0.00    -0.382 OA
ATOM     34  H   UNL     1      32.921  -9.862 -24.361  0.00  0.00    +0.211 HD
ENDBRANCH  25  33
ENDBRANCH  24  25
ENDBRANCH  21  24
ENDBRANCH  20  21
ENDBRANCH  19  20
ENDBRANCH   1  19
TORSDOF 11
ENDMDL
