MODEL 1
REMARK VINA RESULT:      -8.9      0.000      0.000
REMARK  Name = 3219
REMARK  4 active torsions:
REMARK  status: ('A' for Active; 'I' for Inactive)
REMARK    1  A    between atoms: N_3  and  C_19
REMARK    2  A    between atoms: C_19  and  C_20
REMARK    3  A    between atoms: C_20  and  O_21
REMARK    4  A    between atoms: O_21  and  C_22
REMARK                            x       y       z     vdW  Elec       q    Type
REMARK                         _______ _______ _______ _____ _____    ______ ____
ROOT
ATOM      1  N   UNL     1      35.311 -24.504 -13.643  0.00  0.00    -0.274 N 
ATOM      2  N   UNL     1      38.454 -25.394 -13.419  0.00  0.00    +0.387 N 
ATOM      3  N   UNL     1      33.655 -23.558 -15.068  0.00  0.00    -0.246 N 
ATOM      4  N   UNL     1      32.915 -24.886 -13.446  0.00  0.00    -0.376 NA
ATOM      5  C   UNL     1      35.915 -23.582 -12.678  0.00  0.00    +0.092 C 
ATOM      6  C   UNL     1      36.109 -25.588 -14.224  0.00  0.00    +0.072 C 
ATOM      7  C   UNL     1      36.938 -24.246 -11.758  0.00  0.00    -0.001 C 
ATOM      8  C   UNL     1      37.547 -25.180 -14.553  0.00  0.00    -0.056 C 
ATOM      9  C   UNL     1      38.331 -24.366 -12.380  0.00  0.00    -0.076 C 
ATOM     10  C   UNL     1      33.985 -24.353 -14.002  0.00  0.00    +0.245 C 
ATOM     11  C   UNL     1      32.291 -23.579 -15.206  0.00  0.00    +0.081 C 
ATOM     12  C   UNL     1      31.852 -24.415 -14.183  0.00  0.00    +0.130 C 
ATOM     13  C   UNL     1      39.844 -25.452 -13.886  0.00  0.00    -0.101 C 
ATOM     14  C   UNL     1      31.429 -22.958 -16.111  0.00  0.00    +0.017 C 
ATOM     15  C   UNL     1      30.476 -24.657 -14.039  0.00  0.00    +0.086 C 
ATOM     16  C   UNL     1      30.062 -23.210 -15.953  0.00  0.00    -0.003 C 
ATOM     17  C   UNL     1      29.592 -24.044 -14.936  0.00  0.00    -0.019 C 
ATOM     18  H   UNL     1      38.185 -26.283 -12.997  0.00  0.00    -0.080 HD
ENDROOT
BRANCH   3  19
ATOM     19  C   UNL     1      34.573 -22.818 -15.905  0.00  0.00    +0.131 C 
BRANCH  19  20
ATOM     20  C   UNL     1      34.360 -23.093 -17.388  0.00  0.00    +0.164 C 
BRANCH  20  21
ATOM     21  O   UNL     1      35.380 -22.456 -18.145  0.00  0.00    -0.352 OA
BRANCH  21  22
ATOM     22  C   UNL     1      34.904 -22.044 -19.420  0.00  0.00    +0.142 C 
ATOM     23  C   UNL     1      33.451 -21.641 -19.295  0.00  0.00    +0.035 C 
ENDBRANCH  21  22
ENDBRANCH  20  21
ENDBRANCH  19  20
ENDBRANCH   3  19
TORSDOF 4
ENDMDL
MODEL 2
REMARK VINA RESULT:      -8.1      1.941      4.655
REMARK  Name = 3219
REMARK  4 active torsions:
REMARK  status: ('A' for Active; 'I' for Inactive)
REMARK    1  A    between atoms: N_3  and  C_19
REMARK    2  A    between atoms: C_19  and  C_20
REMARK    3  A    between atoms: C_20  and  O_21
REMARK    4  A    between atoms: O_21  and  C_22
REMARK                            x       y       z     vdW  Elec       q    Type
REMARK                         _______ _______ _______ _____ _____    ______ ____
ROOT
ATOM      1  N   UNL     1      36.074 -23.681 -15.012  0.00  0.00    -0.274 N 
ATOM      2  N   UNL     1      36.340 -24.492 -11.851  0.00  0.00    +0.387 N 
ATOM      3  N   UNL     1      34.552 -23.110 -16.752  0.00  0.00    -0.246 N 
ATOM      4  N   UNL     1      36.635 -22.367 -16.984  0.00  0.00    -0.376 NA
ATOM      5  C   UNL     1      36.522 -25.077 -14.999  0.00  0.00    +0.092 C 
ATOM      6  C   UNL     1      35.909 -22.948 -13.754  0.00  0.00    +0.072 C 
ATOM      7  C   UNL     1      37.530 -25.382 -13.892  0.00  0.00    -0.001 C 
ATOM      8  C   UNL     1      35.308 -23.795 -12.628  0.00  0.00    -0.056 C 
ATOM      9  C   UNL     1      36.881 -25.670 -12.536  0.00  0.00    -0.076 C 
ATOM     10  C   UNL     1      35.813 -23.055 -16.216  0.00  0.00    +0.245 C 
ATOM     11  C   UNL     1      34.565 -22.418 -17.935  0.00  0.00    +0.081 C 
ATOM     12  C   UNL     1      35.875 -21.964 -18.058  0.00  0.00    +0.130 C 
ATOM     13  C   UNL     1      35.807 -24.889 -10.543  0.00  0.00    -0.101 C 
ATOM     14  C   UNL     1      33.572 -22.157 -18.881  0.00  0.00    +0.017 C 
ATOM     15  C   UNL     1      36.234 -21.203 -19.183  0.00  0.00    +0.086 C 
ATOM     16  C   UNL     1      33.947 -21.399 -19.995  0.00  0.00    -0.003 C 
ATOM     17  C   UNL     1      35.254 -20.929 -20.145  0.00  0.00    -0.019 C 
ATOM     18  H   UNL     1      37.109 -23.831 -11.734  0.00  0.00    -0.080 HD
ENDROOT
BRANCH   3  19
ATOM     19  C   UNL     1      33.404 -23.779 -16.181  0.00  0.00    +0.131 C 
BRANCH  19  20
ATOM     20  C   UNL     1      32.539 -22.843 -15.347  0.00  0.00    +0.164 C 
BRANCH  20  21
ATOM     21  O   UNL     1      31.224 -22.799 -15.887  0.00  0.00    -0.352 OA
BRANCH  21  22
ATOM     22  C   UNL     1      30.239 -22.933 -14.871  0.00  0.00    +0.142 C 
ATOM     23  C   UNL     1      29.717 -24.354 -14.877  0.00  0.00    +0.035 C 
ENDBRANCH  21  22
ENDBRANCH  20  21
ENDBRANCH  19  20
ENDBRANCH   3  19
TORSDOF 4
ENDMDL
MODEL 3
REMARK VINA RESULT:      -7.9     11.673     14.919
REMARK  Name = 3219
REMARK  4 active torsions:
REMARK  status: ('A' for Active; 'I' for Inactive)
REMARK    1  A    between atoms: N_3  and  C_19
REMARK    2  A    between atoms: C_19  and  C_20
REMARK    3  A    between atoms: C_20  and  O_21
REMARK    4  A    between atoms: O_21  and  C_22
REMARK                            x       y       z     vdW  Elec       q    Type
REMARK                         _______ _______ _______ _____ _____    ______ ____
ROOT
ATOM      1  N   UNL     1      33.081 -12.582 -22.999  0.00  0.00    -0.274 N 
ATOM      2  N   UNL     1      32.536  -9.357 -22.854  0.00  0.00    +0.387 N 
ATOM      3  N   UNL     1      33.337 -14.448 -24.456  0.00  0.00    -0.246 N 
ATOM      4  N   UNL     1      34.311 -14.615 -22.464  0.00  0.00    -0.376 NA
ATOM      5  C   UNL     1      31.756 -12.433 -22.392  0.00  0.00    +0.092 C 
ATOM      6  C   UNL     1      33.876 -11.397 -23.334  0.00  0.00    +0.072 C 
ATOM      7  C   UNL     1      31.655 -11.248 -21.433  0.00  0.00    -0.001 C 
ATOM      8  C   UNL     1      33.044 -10.245 -23.906  0.00  0.00    -0.056 C 
ATOM      9  C   UNL     1      31.387  -9.915 -22.134  0.00  0.00    -0.076 C 
ATOM     10  C   UNL     1      33.584 -13.845 -23.250  0.00  0.00    +0.245 C 
ATOM     11  C   UNL     1      33.940 -15.679 -24.445  0.00  0.00    +0.081 C 
ATOM     12  C   UNL     1      34.541 -15.759 -23.192  0.00  0.00    +0.130 C 
ATOM     13  C   UNL     1      32.170  -8.056 -23.424  0.00  0.00    -0.101 C 
ATOM     14  C   UNL     1      34.010 -16.698 -25.395  0.00  0.00    +0.017 C 
ATOM     15  C   UNL     1      35.258 -16.918 -22.849  0.00  0.00    +0.086 C 
ATOM     16  C   UNL     1      34.727 -17.845 -25.037  0.00  0.00    -0.003 C 
ATOM     17  C   UNL     1      35.341 -17.955 -23.788  0.00  0.00    -0.019 C 
ATOM     18  H   UNL     1      33.292  -9.247 -22.178  0.00  0.00    -0.080 HD
ENDROOT
BRANCH   3  19
ATOM     19  C   UNL     1      32.575 -13.894 -25.554  0.00  0.00    +0.131 C 
BRANCH  19  20
ATOM     20  C   UNL     1      33.461 -13.414 -26.695  0.00  0.00    +0.164 C 
BRANCH  20  21
ATOM     21  O   UNL     1      33.767 -12.038 -26.518  0.00  0.00    -0.352 OA
BRANCH  21  22
ATOM     22  C   UNL     1      34.997 -11.692 -27.142  0.00  0.00    +0.142 C 
ATOM     23  C   UNL     1      35.595 -10.501 -26.425  0.00  0.00    +0.035 C 
ENDBRANCH  21  22
ENDBRANCH  20  21
ENDBRANCH  19  20
ENDBRANCH   3  19
TORSDOF 4
ENDMDL
MODEL 4
REMARK VINA RESULT:      -7.8      8.040     11.558
REMARK  Name = 3219
REMARK  4 active torsions:
REMARK  status: ('A' for Active; 'I' for Inactive)
REMARK    1  A    between atoms: N_3  and  C_19
REMARK    2  A    between atoms: C_19  and  C_20
REMARK    3  A    between atoms: C_20  and  O_21
REMARK    4  A    between atoms: O_21  and  C_22
REMARK                            x       y       z     vdW  Elec       q    Type
REMARK                         _______ _______ _______ _____ _____    ______ ____
ROOT
ATOM      1  N   UNL     1      34.577 -17.815 -22.477  0.00  0.00    -0.274 N 
ATOM      2  N   UNL     1      36.055 -20.098 -20.654  0.00  0.00    +0.387 N 
ATOM      3  N   UNL     1      34.359 -15.476 -22.862  0.00  0.00    -0.246 N 
ATOM      4  N   UNL     1      33.907 -16.804 -24.587  0.00  0.00    -0.376 NA
ATOM      5  C   UNL     1      33.516 -18.423 -21.669  0.00  0.00    +0.092 C 
ATOM      6  C   UNL     1      35.950 -18.323 -22.392  0.00  0.00    +0.072 C 
ATOM      7  C   UNL     1      33.678 -19.932 -21.488  0.00  0.00    -0.001 C 
ATOM      8  C   UNL     1      36.375 -18.702 -20.970  0.00  0.00    -0.056 C 
ATOM      9  C   UNL     1      34.635 -20.312 -20.356  0.00  0.00    -0.076 C 
ATOM     10  C   UNL     1      34.280 -16.764 -23.323  0.00  0.00    +0.245 C 
ATOM     11  C   UNL     1      34.015 -14.637 -23.890  0.00  0.00    +0.081 C 
ATOM     12  C   UNL     1      33.738 -15.488 -24.956  0.00  0.00    +0.130 C 
ATOM     13  C   UNL     1      36.866 -20.559 -19.521  0.00  0.00    -0.101 C 
ATOM     14  C   UNL     1      33.926 -13.247 -23.978  0.00  0.00    +0.017 C 
ATOM     15  C   UNL     1      33.348 -14.939 -26.188  0.00  0.00    +0.086 C 
ATOM     16  C   UNL     1      33.536 -12.717 -25.212  0.00  0.00    -0.003 C 
ATOM     17  C   UNL     1      33.252 -13.546 -26.299  0.00  0.00    -0.019 C 
ATOM     18  H   UNL     1      36.273 -20.642 -21.489  0.00  0.00    -0.080 HD
ENDROOT
BRANCH   3  19
ATOM     19  C   UNL     1      34.734 -15.062 -21.528  0.00  0.00    +0.131 C 
BRANCH  19  20
ATOM     20  C   UNL     1      33.554 -15.062 -20.564  0.00  0.00    +0.164 C 
BRANCH  20  21
ATOM     21  O   UNL     1      32.472 -14.335 -21.132  0.00  0.00    -0.352 OA
BRANCH  21  22
ATOM     22  C   UNL     1      32.308 -13.071 -20.504  0.00  0.00    +0.142 C 
ATOM     23  C   UNL     1      31.600 -12.135 -21.461  0.00  0.00    +0.035 C 
ENDBRANCH  21  22
ENDBRANCH  20  21
ENDBRANCH  19  20
ENDBRANCH   3  19
TORSDOF 4
ENDMDL
MODEL 5
REMARK VINA RESULT:      -7.8     11.286     15.074
REMARK  Name = 3219
REMARK  4 active torsions:
REMARK  status: ('A' for Active; 'I' for Inactive)
REMARK    1  A    between atoms: N_3  and  C_19
REMARK    2  A    between atoms: C_19  and  C_20
REMARK    3  A    between atoms: C_20  and  O_21
REMARK    4  A    between atoms: O_21  and  C_22
REMARK                            x       y       z     vdW  Elec       q    Type
REMARK                         _______ _______ _______ _____ _____    ______ ____
ROOT
ATOM      1  N   UNL     1      33.559 -13.169 -24.613  0.00  0.00    -0.274 N 
ATOM      2  N   UNL     1      34.177 -16.340 -25.145  0.00  0.00    +0.387 N 
ATOM      3  N   UNL     1      32.640 -11.597 -23.078  0.00  0.00    -0.246 N 
ATOM      4  N   UNL     1      34.174 -10.816 -24.486  0.00  0.00    -0.376 NA
ATOM      5  C   UNL     1      32.678 -13.563 -25.716  0.00  0.00    +0.092 C 
ATOM      6  C   UNL     1      34.509 -14.132 -24.048  0.00  0.00    +0.072 C 
ATOM      7  C   UNL     1      33.329 -14.537 -26.696  0.00  0.00    -0.001 C 
ATOM      8  C   UNL     1      33.943 -15.550 -23.931  0.00  0.00    -0.056 C 
ATOM      9  C   UNL     1      33.264 -15.997 -26.241  0.00  0.00    -0.076 C 
ATOM     10  C   UNL     1      33.497 -11.883 -24.109  0.00  0.00    +0.245 C 
ATOM     11  C   UNL     1      32.773 -10.267 -22.774  0.00  0.00    +0.081 C 
ATOM     12  C   UNL     1      33.735  -9.802 -23.666  0.00  0.00    +0.130 C 
ATOM     13  C   UNL     1      34.066 -17.772 -24.847  0.00  0.00    -0.101 C 
ATOM     14  C   UNL     1      32.152  -9.455 -21.824  0.00  0.00    +0.017 C 
ATOM     15  C   UNL     1      34.113  -8.450 -23.620  0.00  0.00    +0.086 C 
ATOM     16  C   UNL     1      32.540  -8.112 -21.793  0.00  0.00    -0.003 C 
ATOM     17  C   UNL     1      33.504  -7.616 -22.675  0.00  0.00    -0.019 C 
ATOM     18  H   UNL     1      35.121 -16.115 -25.459  0.00  0.00    -0.080 HD
ENDROOT
BRANCH   3  19
ATOM     19  C   UNL     1      31.747 -12.526 -22.420  0.00  0.00    +0.131 C 
BRANCH  19  20
ATOM     20  C   UNL     1      32.386 -13.189 -21.207  0.00  0.00    +0.164 C 
BRANCH  20  21
ATOM     21  O   UNL     1      32.252 -14.601 -21.307  0.00  0.00    -0.352 OA
BRANCH  21  22
ATOM     22  C   UNL     1      32.880 -15.262 -20.217  0.00  0.00    +0.142 C 
ATOM     23  C   UNL     1      34.377 -15.265 -20.441  0.00  0.00    +0.035 C 
ENDBRANCH  21  22
ENDBRANCH  20  21
ENDBRANCH  19  20
ENDBRANCH   3  19
TORSDOF 4
ENDMDL
MODEL 6
REMARK VINA RESULT:      -7.8     15.229     18.599
REMARK  Name = 3219
REMARK  4 active torsions:
REMARK  status: ('A' for Active; 'I' for Inactive)
REMARK    1  A    between atoms: N_3  and  C_19
REMARK    2  A    between atoms: C_19  and  C_20
REMARK    3  A    between atoms: C_20  and  O_21
REMARK    4  A    between atoms: O_21  and  C_22
REMARK                            x       y       z     vdW  Elec       q    Type
REMARK                         _______ _______ _______ _____ _____    ______ ____
ROOT
ATOM      1  N   UNL     1      32.312  -7.937 -22.320  0.00  0.00    -0.274 N 
ATOM      2  N   UNL     1      31.461 -10.475 -20.436  0.00  0.00    +0.387 N 
ATOM      3  N   UNL     1      33.761  -7.208 -24.063  0.00  0.00    -0.246 N 
ATOM      4  N   UNL     1      31.846  -6.100 -23.850  0.00  0.00    -0.376 NA
ATOM      5  C   UNL     1      32.727  -7.576 -20.962  0.00  0.00    +0.092 C 
ATOM      6  C   UNL     1      31.604  -9.197 -22.565  0.00  0.00    +0.072 C 
ATOM      7  C   UNL     1      31.743  -8.027 -19.885  0.00  0.00    -0.001 C 
ATOM      8  C   UNL     1      32.137 -10.368 -21.734  0.00  0.00    -0.056 C 
ATOM      9  C   UNL     1      31.928  -9.486 -19.459  0.00  0.00    -0.076 C 
ATOM     10  C   UNL     1      32.584  -7.082 -23.372  0.00  0.00    +0.245 C 
ATOM     11  C   UNL     1      33.782  -6.249 -25.042  0.00  0.00    +0.081 C 
ATOM     12  C   UNL     1      32.576  -5.571 -24.889  0.00  0.00    +0.130 C 
ATOM     13  C   UNL     1      31.635 -11.824 -19.885  0.00  0.00    -0.101 C 
ATOM     14  C   UNL     1      34.723  -5.926 -26.021  0.00  0.00    +0.017 C 
ATOM     15  C   UNL     1      32.274  -4.505 -25.753  0.00  0.00    +0.086 C 
ATOM     16  C   UNL     1      34.407  -4.862 -26.872  0.00  0.00    -0.003 C 
ATOM     17  C   UNL     1      33.205  -4.163 -26.743  0.00  0.00    -0.019 C 
ATOM     18  H   UNL     1      30.474 -10.287 -20.607  0.00  0.00    -0.080 HD
ENDROOT
BRANCH   3  19
ATOM     19  C   UNL     1      34.807  -8.175 -23.811  0.00  0.00    +0.131 C 
BRANCH  19  20
ATOM     20  C   UNL     1      34.778  -9.334 -24.799  0.00  0.00    +0.164 C 
BRANCH  20  21
ATOM     21  O   UNL     1      34.560 -10.553 -24.100  0.00  0.00    -0.352 OA
BRANCH  21  22
ATOM     22  C   UNL     1      33.955 -11.531 -24.935  0.00  0.00    +0.142 C 
ATOM     23  C   UNL     1      33.720 -12.790 -24.128  0.00  0.00    +0.035 C 
ENDBRANCH  21  22
ENDBRANCH  20  21
ENDBRANCH  19  20
ENDBRANCH   3  19
TORSDOF 4
ENDMDL
MODEL 7
REMARK VINA RESULT:      -7.8     11.661     15.257
REMARK  Name = 3219
REMARK  4 active torsions:
REMARK  status: ('A' for Active; 'I' for Inactive)
REMARK    1  A    between atoms: N_3  and  C_19
REMARK    2  A    between atoms: C_19  and  C_20
REMARK    3  A    between atoms: C_20  and  O_21
REMARK    4  A    between atoms: O_21  and  C_22
REMARK                            x       y       z     vdW  Elec       q    Type
REMARK                         _______ _______ _______ _____ _____    ______ ____
ROOT
ATOM      1  N   UNL     1      33.808 -13.271 -23.981  0.00  0.00    -0.274 N 
ATOM      2  N   UNL     1      34.428 -16.458 -23.560  0.00  0.00    +0.387 N 
ATOM      3  N   UNL     1      32.632 -11.388 -23.119  0.00  0.00    -0.246 N 
ATOM      4  N   UNL     1      34.452 -10.947 -24.318  0.00  0.00    -0.376 NA
ATOM      5  C   UNL     1      33.169 -13.950 -25.111  0.00  0.00    +0.092 C 
ATOM      6  C   UNL     1      34.586 -14.038 -23.005  0.00  0.00    +0.072 C 
ATOM      7  C   UNL     1      33.983 -15.123 -25.656  0.00  0.00    -0.001 C 
ATOM      8  C   UNL     1      33.966 -15.395 -22.660  0.00  0.00    -0.056 C 
ATOM      9  C   UNL     1      33.780 -16.423 -24.875  0.00  0.00    -0.076 C 
ATOM     10  C   UNL     1      33.679 -11.902 -23.839  0.00  0.00    +0.245 C 
ATOM     11  C   UNL     1      32.737 -10.021 -23.136  0.00  0.00    +0.081 C 
ATOM     12  C   UNL     1      33.880  -9.771 -23.890  0.00  0.00    +0.130 C 
ATOM     13  C   UNL     1      34.213 -17.772 -22.944  0.00  0.00    -0.101 C 
ATOM     14  C   UNL     1      31.954  -9.013 -22.573  0.00  0.00    +0.017 C 
ATOM     15  C   UNL     1      34.280  -8.442 -24.104  0.00  0.00    +0.086 C 
ATOM     16  C   UNL     1      32.367  -7.695 -22.798  0.00  0.00    -0.003 C 
ATOM     17  C   UNL     1      33.509  -7.413 -23.549  0.00  0.00    -0.019 C 
ATOM     18  H   UNL     1      35.424 -16.296 -23.711  0.00  0.00    -0.080 HD
ENDROOT
BRANCH   3  19
ATOM     19  C   UNL     1      31.592 -12.144 -22.456  0.00  0.00    +0.131 C 
BRANCH  19  20
ATOM     20  C   UNL     1      31.815 -12.247 -20.953  0.00  0.00    +0.164 C 
BRANCH  20  21
ATOM     21  O   UNL     1      30.897 -11.402 -20.273  0.00  0.00    -0.352 OA
BRANCH  21  22
ATOM     22  C   UNL     1      31.417 -10.964 -19.025  0.00  0.00    +0.142 C 
ATOM     23  C   UNL     1      31.993  -9.574 -19.192  0.00  0.00    +0.035 C 
ENDBRANCH  21  22
ENDBRANCH  20  21
ENDBRANCH  19  20
ENDBRANCH   3  19
TORSDOF 4
ENDMDL
MODEL 8
REMARK VINA RESULT:      -7.7     14.517     17.892
REMARK  Name = 3219
REMARK  4 active torsions:
REMARK  status: ('A' for Active; 'I' for Inactive)
REMARK    1  A    between atoms: N_3  and  C_19
REMARK    2  A    between atoms: C_19  and  C_20
REMARK    3  A    between atoms: C_20  and  O_21
REMARK    4  A    between atoms: O_21  and  C_22
REMARK                            x       y       z     vdW  Elec       q    Type
REMARK                         _______ _______ _______ _____ _____    ______ ____
ROOT
ATOM      1  N   UNL     1      32.694  -7.282 -23.493  0.00  0.00    -0.274 N 
ATOM      2  N   UNL     1      34.156  -5.406 -25.742  0.00  0.00    +0.387 N 
ATOM      3  N   UNL     1      32.346  -9.518 -22.754  0.00  0.00    -0.246 N 
ATOM      4  N   UNL     1      32.150  -7.931 -21.210  0.00  0.00    -0.376 NA
ATOM      5  C   UNL     1      31.609  -6.706 -24.292  0.00  0.00    +0.092 C 
ATOM      6  C   UNL     1      34.085  -6.907 -23.761  0.00  0.00    +0.072 C 
ATOM      7  C   UNL     1      31.860  -5.256 -24.704  0.00  0.00    -0.001 C 
ATOM      8  C   UNL     1      34.404  -6.766 -25.252  0.00  0.00    -0.056 C 
ATOM      9  C   UNL     1      32.734  -5.118 -25.953  0.00  0.00    -0.076 C 
ATOM     10  C   UNL     1      32.402  -8.177 -22.480  0.00  0.00    +0.245 C 
ATOM     11  C   UNL     1      32.040 -10.175 -21.590  0.00  0.00    +0.081 C 
ATOM     12  C   UNL     1      31.923  -9.163 -20.641  0.00  0.00    +0.130 C 
ATOM     13  C   UNL     1      34.890  -5.176 -26.992  0.00  0.00    -0.101 C 
ATOM     14  C   UNL     1      31.862 -11.527 -21.294  0.00  0.00    +0.017 C 
ATOM     15  C   UNL     1      31.610  -9.502 -19.314  0.00  0.00    +0.086 C 
ATOM     16  C   UNL     1      31.550 -11.846 -19.968  0.00  0.00    -0.003 C 
ATOM     17  C   UNL     1      31.426 -10.853 -18.994  0.00  0.00    -0.019 C 
ATOM     18  H   UNL     1      34.487  -4.771 -25.015  0.00  0.00    -0.080 HD
ENDROOT
BRANCH   3  19
ATOM     19  C   UNL     1      32.567 -10.144 -24.039  0.00  0.00    +0.131 C 
BRANCH  19  20
ATOM     20  C   UNL     1      33.993 -10.654 -24.202  0.00  0.00    +0.164 C 
BRANCH  20  21
ATOM     21  O   UNL     1      33.984 -11.881 -24.920  0.00  0.00    -0.352 OA
BRANCH  21  22
ATOM     22  C   UNL     1      33.783 -12.990 -24.054  0.00  0.00    +0.142 C 
ATOM     23  C   UNL     1      33.068 -14.085 -24.816  0.00  0.00    +0.035 C 
ENDBRANCH  21  22
ENDBRANCH  20  21
ENDBRANCH  19  20
ENDBRANCH   3  19
TORSDOF 4
ENDMDL
MODEL 9
REMARK VINA RESULT:      -7.7     10.423     13.858
REMARK  Name = 3219
REMARK  4 active torsions:
REMARK  status: ('A' for Active; 'I' for Inactive)
REMARK    1  A    between atoms: N_3  and  C_19
REMARK    2  A    between atoms: C_19  and  C_20
REMARK    3  A    between atoms: C_20  and  O_21
REMARK    4  A    between atoms: O_21  and  C_22
REMARK                            x       y       z     vdW  Elec       q    Type
REMARK                         _______ _______ _______ _____ _____    ______ ____
ROOT
ATOM      1  N   UNL     1      33.394 -13.067 -23.659  0.00  0.00    -0.274 N 
ATOM      2  N   UNL     1      31.975 -10.293 -22.653  0.00  0.00    +0.387 N 
ATOM      3  N   UNL     1      34.467 -15.071 -22.950  0.00  0.00    -0.246 N 
ATOM      4  N   UNL     1      33.479 -15.136 -24.940  0.00  0.00    -0.376 NA
ATOM      5  C   UNL     1      34.290 -11.989 -24.085  0.00  0.00    +0.092 C 
ATOM      6  C   UNL     1      32.126 -12.753 -22.994  0.00  0.00    +0.072 C 
ATOM      7  C   UNL     1      33.553 -10.742 -24.572  0.00  0.00    -0.001 C 
ATOM      8  C   UNL     1      32.227 -11.586 -22.006  0.00  0.00    -0.056 C 
ATOM      9  C   UNL     1      33.114  -9.810 -23.440  0.00  0.00    -0.076 C 
ATOM     10  C   UNL     1      33.745 -14.384 -23.890  0.00  0.00    +0.245 C 
ATOM     11  C   UNL     1      34.680 -16.340 -23.423  0.00  0.00    +0.081 C 
ATOM     12  C   UNL     1      34.054 -16.356 -24.666  0.00  0.00    +0.130 C 
ATOM     13  C   UNL     1      31.614  -9.287 -21.648  0.00  0.00    -0.101 C 
ATOM     14  C   UNL     1      35.346 -17.442 -22.886  0.00  0.00    +0.017 C 
ATOM     15  C   UNL     1      34.084 -17.532 -25.433  0.00  0.00    +0.086 C 
ATOM     16  C   UNL     1      35.367 -18.605 -23.663  0.00  0.00    -0.003 C 
ATOM     17  C   UNL     1      34.747 -18.652 -24.914  0.00  0.00    -0.019 C 
ATOM     18  H   UNL     1      31.201 -10.440 -23.301  0.00  0.00    -0.080 HD
ENDROOT
BRANCH   3  19
ATOM     19  C   UNL     1      34.931 -14.558 -21.679  0.00  0.00    +0.131 C 
BRANCH  19  20
ATOM     20  C   UNL     1      34.296 -15.274 -20.494  0.00  0.00    +0.164 C 
BRANCH  20  21
ATOM     21  O   UNL     1      33.026 -14.701 -20.213  0.00  0.00    -0.352 OA
BRANCH  21  22
ATOM     22  C   UNL     1      31.967 -15.569 -20.595  0.00  0.00    +0.142 C 
ATOM     23  C   UNL     1      32.489 -16.989 -20.647  0.00  0.00    +0.035 C 
ENDBRANCH  21  22
ENDBRANCH  20  21
ENDBRANCH  19  20
ENDBRANCH   3  19
TORSDOF 4
ENDMDL
