MODEL 1
REMARK VINA RESULT:     -10.9      0.000      0.000
REMARK  Name = 9907323
REMARK  9 active torsions:
REMARK  status: ('A' for Active; 'I' for Inactive)
REMARK    1  A    between atoms: N_1  and  C_9
REMARK    2  A    between atoms: N_2  and  C_18
REMARK    3  A    between atoms: C_9  and  C_10
REMARK    4  A    between atoms: C_10  and  C_11
REMARK    5  A    between atoms: C_11  and  C_12
REMARK    6  A    between atoms: C_18  and  C_19
REMARK    7  A    between atoms: C_19  and  C_20
REMARK    8  A    between atoms: C_23  and  O_26
REMARK    9  A    between atoms: C_25  and  O_28
REMARK                            x       y       z     vdW  Elec       q    Type
REMARK                         _______ _______ _______ _____ _____    ______ ____
ROOT
ATOM      1  N   UNL     1      33.463 -15.051 -24.303  0.00  0.00    +0.384 N 
ATOM      2  N   UNL     1      35.407 -17.075 -23.603  0.00  0.00    +0.384 N 
ATOM      3  C   UNL     1      34.443 -14.830 -23.233  0.00  0.00    -0.101 C 
ATOM      4  C   UNL     1      34.006 -15.968 -25.313  0.00  0.00    -0.101 C 
ATOM      5  C   UNL     1      34.864 -16.158 -22.594  0.00  0.00    -0.101 C 
ATOM      6  C   UNL     1      34.428 -17.297 -24.675  0.00  0.00    -0.101 C 
ATOM      7  H   UNL     1      32.632 -15.480 -23.894  0.00  0.00    -0.080 HD
ATOM      8  H   UNL     1      36.239 -16.647 -24.012  0.00  0.00    -0.080 HD
ENDROOT
BRANCH   1   9
ATOM      9  C   UNL     1      33.064 -13.785 -24.913  0.00  0.00    -0.077 C 
BRANCH   9  10
ATOM     10  C   UNL     1      33.461 -12.615 -24.014  0.00  0.00    -0.018 C 
BRANCH  10  11
ATOM     11  C   UNL     1      34.032 -11.457 -24.836  0.00  0.00    +0.024 C 
BRANCH  11  12
ATOM     12  C   UNL     1      33.935 -10.147 -24.098  0.00  0.00    -0.022 C 
ATOM     13  C   UNL     1      34.876  -9.144 -24.332  0.00  0.00    -0.004 C 
ATOM     14  C   UNL     1      32.905  -9.937 -23.181  0.00  0.00    -0.004 C 
ATOM     15  C   UNL     1      34.786  -7.931 -23.649  0.00  0.00    -0.000 C 
ATOM     16  C   UNL     1      32.815  -8.723 -22.499  0.00  0.00    -0.000 C 
ATOM     17  C   UNL     1      33.756  -7.720 -22.733  0.00  0.00    -0.000 C 
ENDBRANCH  11  12
ENDBRANCH  10  11
ENDBRANCH   9  10
ENDBRANCH   1   9
BRANCH   2  18
ATOM     18  C   UNL     1      35.804 -18.342 -22.993  0.00  0.00    -0.073 C 
BRANCH  18  19
ATOM     19  C   UNL     1      35.784 -18.245 -21.468  0.00  0.00    +0.004 C 
BRANCH  19  20
ATOM     20  C   UNL     1      35.052 -19.409 -20.848  0.00  0.00    -0.021 C 
ATOM     21  C   UNL     1      35.755 -20.365 -20.117  0.00  0.00    +0.036 C 
ATOM     22  C   UNL     1      33.671 -19.529 -21.007  0.00  0.00    -0.001 C 
ATOM     23  C   UNL     1      35.078 -21.442 -19.544  0.00  0.00    +0.172 C 
ATOM     24  C   UNL     1      32.994 -20.605 -20.434  0.00  0.00    +0.040 C 
ATOM     25  C   UNL     1      33.697 -21.561 -19.703  0.00  0.00    +0.172 C 
BRANCH  23  26
ATOM     26  O   UNL     1      35.775 -22.370 -18.831  0.00  0.00    -0.468 OA
ATOM     27  C   UNL     1      36.550 -21.894 -17.731  0.00  0.00    +0.253 C 
ENDBRANCH  23  26
BRANCH  25  28
ATOM     28  O   UNL     1      33.025 -22.607 -19.147  0.00  0.00    -0.468 OA
ATOM     29  C   UNL     1      32.758 -22.535 -17.746  0.00  0.00    +0.253 C 
ENDBRANCH  25  28
ENDBRANCH  19  20
ENDBRANCH  18  19
ENDBRANCH   2  18
TORSDOF 9
ENDMDL
MODEL 2
REMARK VINA RESULT:     -10.3      4.244     10.773
REMARK  Name = 9907323
REMARK  9 active torsions:
REMARK  status: ('A' for Active; 'I' for Inactive)
REMARK    1  A    between atoms: N_1  and  C_9
REMARK    2  A    between atoms: N_2  and  C_18
REMARK    3  A    between atoms: C_9  and  C_10
REMARK    4  A    between atoms: C_10  and  C_11
REMARK    5  A    between atoms: C_11  and  C_12
REMARK    6  A    between atoms: C_18  and  C_19
REMARK    7  A    between atoms: C_19  and  C_20
REMARK    8  A    between atoms: C_23  and  O_26
REMARK    9  A    between atoms: C_25  and  O_28
REMARK                            x       y       z     vdW  Elec       q    Type
REMARK                         _______ _______ _______ _____ _____    ______ ____
ROOT
ATOM      1  N   UNL     1      34.299 -16.031 -21.893  0.00  0.00    +0.384 N 
ATOM      2  N   UNL     1      34.144 -13.655 -23.533  0.00  0.00    +0.384 N 
ATOM      3  C   UNL     1      34.940 -15.971 -23.212  0.00  0.00    -0.101 C 
ATOM      4  C   UNL     1      34.239 -14.693 -21.292  0.00  0.00    -0.101 C 
ATOM      5  C   UNL     1      34.204 -14.993 -24.133  0.00  0.00    -0.101 C 
ATOM      6  C   UNL     1      33.504 -13.713 -22.213  0.00  0.00    -0.101 C 
ATOM      7  H   UNL     1      33.345 -16.371 -22.014  0.00  0.00    -0.080 HD
ATOM      8  H   UNL     1      35.098 -13.313 -23.412  0.00  0.00    -0.080 HD
ENDROOT
BRANCH   1   9
ATOM      9  C   UNL     1      35.003 -16.963 -21.015  0.00  0.00    -0.077 C 
BRANCH   9  10
ATOM     10  C   UNL     1      35.408 -18.218 -21.788  0.00  0.00    -0.018 C 
BRANCH  10  11
ATOM     11  C   UNL     1      34.272 -19.243 -21.807  0.00  0.00    +0.024 C 
BRANCH  11  12
ATOM     12  C   UNL     1      34.427 -20.269 -20.714  0.00  0.00    -0.022 C 
ATOM     13  C   UNL     1      33.298 -20.834 -20.121  0.00  0.00    -0.004 C 
ATOM     14  C   UNL     1      35.701 -20.655 -20.295  0.00  0.00    -0.004 C 
ATOM     15  C   UNL     1      33.442 -21.784 -19.110  0.00  0.00    -0.000 C 
ATOM     16  C   UNL     1      35.844 -21.606 -19.284  0.00  0.00    -0.000 C 
ATOM     17  C   UNL     1      34.715 -22.170 -18.692  0.00  0.00    -0.000 C 
ENDBRANCH  11  12
ENDBRANCH  10  11
ENDBRANCH   9  10
ENDBRANCH   1   9
BRANCH   2  18
ATOM     18  C   UNL     1      33.438 -12.723 -24.410  0.00  0.00    -0.073 C 
BRANCH  18  19
ATOM     19  C   UNL     1      34.347 -11.565 -24.823  0.00  0.00    +0.004 C 
BRANCH  19  20
ATOM     20  C   UNL     1      34.003 -10.299 -24.080  0.00  0.00    -0.021 C 
ATOM     21  C   UNL     1      32.931 -10.283 -23.189  0.00  0.00    +0.036 C 
ATOM     22  C   UNL     1      34.756  -9.143 -24.285  0.00  0.00    -0.001 C 
ATOM     23  C   UNL     1      32.612  -9.111 -22.501  0.00  0.00    +0.172 C 
ATOM     24  C   UNL     1      34.438  -7.971 -23.599  0.00  0.00    +0.040 C 
ATOM     25  C   UNL     1      33.366  -7.956 -22.707  0.00  0.00    +0.172 C 
BRANCH  23  26
ATOM     26  O   UNL     1      31.564  -9.108 -21.632  0.00  0.00    -0.468 OA
ATOM     27  C   UNL     1      31.804  -9.626 -20.324  0.00  0.00    +0.253 C 
ENDBRANCH  23  26
BRANCH  25  28
ATOM     28  O   UNL     1      33.065  -6.807 -22.040  0.00  0.00    -0.468 OA
ATOM     29  C   UNL     1      32.112  -5.936 -22.649  0.00  0.00    +0.253 C 
ENDBRANCH  25  28
ENDBRANCH  19  20
ENDBRANCH  18  19
ENDBRANCH   2  18
TORSDOF 9
ENDMDL
MODEL 3
REMARK VINA RESULT:     -10.3      3.813     10.006
REMARK  Name = 9907323
REMARK  9 active torsions:
REMARK  status: ('A' for Active; 'I' for Inactive)
REMARK    1  A    between atoms: N_1  and  C_9
REMARK    2  A    between atoms: N_2  and  C_18
REMARK    3  A    between atoms: C_9  and  C_10
REMARK    4  A    between atoms: C_10  and  C_11
REMARK    5  A    between atoms: C_11  and  C_12
REMARK    6  A    between atoms: C_18  and  C_19
REMARK    7  A    between atoms: C_19  and  C_20
REMARK    8  A    between atoms: C_23  and  O_26
REMARK    9  A    between atoms: C_25  and  O_28
REMARK                            x       y       z     vdW  Elec       q    Type
REMARK                         _______ _______ _______ _____ _____    ______ ____
ROOT
ATOM      1  N   UNL     1      35.314 -17.012 -23.889  0.00  0.00    +0.384 N 
ATOM      2  N   UNL     1      33.373 -14.919 -24.355  0.00  0.00    +0.384 N 
ATOM      3  C   UNL     1      34.884 -16.116 -22.809  0.00  0.00    -0.101 C 
ATOM      4  C   UNL     1      34.240 -17.174 -24.877  0.00  0.00    -0.101 C 
ATOM      5  C   UNL     1      34.447 -14.758 -23.367  0.00  0.00    -0.101 C 
ATOM      6  C   UNL     1      33.801 -15.816 -25.436  0.00  0.00    -0.101 C 
ATOM      7  H   UNL     1      36.117 -16.591 -24.356  0.00  0.00    -0.080 HD
ATOM      8  H   UNL     1      32.568 -15.339 -23.888  0.00  0.00    -0.080 HD
ENDROOT
BRANCH   1   9
ATOM      9  C   UNL     1      35.728 -18.308 -23.356  0.00  0.00    -0.077 C 
BRANCH   9  10
ATOM     10  C   UNL     1      35.405 -18.396 -21.865  0.00  0.00    -0.018 C 
BRANCH  10  11
ATOM     11  C   UNL     1      34.147 -19.234 -21.623  0.00  0.00    +0.024 C 
BRANCH  11  12
ATOM     12  C   UNL     1      34.377 -20.296 -20.578  0.00  0.00    -0.022 C 
ATOM     13  C   UNL     1      35.676 -20.631 -20.199  0.00  0.00    -0.004 C 
ATOM     14  C   UNL     1      33.289 -20.944 -19.991  0.00  0.00    -0.004 C 
ATOM     15  C   UNL     1      35.888 -21.614 -19.231  0.00  0.00    -0.000 C 
ATOM     16  C   UNL     1      33.502 -21.926 -19.024  0.00  0.00    -0.000 C 
ATOM     17  C   UNL     1      34.802 -22.261 -18.644  0.00  0.00    -0.000 C 
ENDBRANCH  11  12
ENDBRANCH  10  11
ENDBRANCH   9  10
ENDBRANCH   1   9
BRANCH   2  18
ATOM     18  C   UNL     1      32.960 -13.623 -24.889  0.00  0.00    -0.073 C 
BRANCH  18  19
ATOM     19  C   UNL     1      33.991 -12.542 -24.561  0.00  0.00    +0.004 C 
BRANCH  19  20
ATOM     20  C   UNL     1      33.381 -11.422 -23.757  0.00  0.00    -0.021 C 
ATOM     21  C   UNL     1      32.422 -11.703 -22.785  0.00  0.00    +0.036 C 
ATOM     22  C   UNL     1      33.776 -10.104 -23.985  0.00  0.00    -0.001 C 
ATOM     23  C   UNL     1      31.857 -10.666 -22.041  0.00  0.00    +0.172 C 
ATOM     24  C   UNL     1      33.212  -9.067 -23.242  0.00  0.00    +0.040 C 
ATOM     25  C   UNL     1      32.253  -9.348 -22.270  0.00  0.00    +0.172 C 
BRANCH  23  26
ATOM     26  O   UNL     1      30.921 -10.953 -21.094  0.00  0.00    -0.468 OA
ATOM     27  C   UNL     1      31.399 -11.340 -19.806  0.00  0.00    +0.253 C 
ENDBRANCH  23  26
BRANCH  25  28
ATOM     28  O   UNL     1      31.710  -8.329 -21.549  0.00  0.00    -0.468 OA
ATOM     29  C   UNL     1      32.480  -7.825 -20.458  0.00  0.00    +0.253 C 
ENDBRANCH  25  28
ENDBRANCH  19  20
ENDBRANCH  18  19
ENDBRANCH   2  18
TORSDOF 9
ENDMDL
MODEL 4
REMARK VINA RESULT:     -10.3      1.682      2.352
REMARK  Name = 9907323
REMARK  9 active torsions:
REMARK  status: ('A' for Active; 'I' for Inactive)
REMARK    1  A    between atoms: N_1  and  C_9
REMARK    2  A    between atoms: N_2  and  C_18
REMARK    3  A    between atoms: C_9  and  C_10
REMARK    4  A    between atoms: C_10  and  C_11
REMARK    5  A    between atoms: C_11  and  C_12
REMARK    6  A    between atoms: C_18  and  C_19
REMARK    7  A    between atoms: C_19  and  C_20
REMARK    8  A    between atoms: C_23  and  O_26
REMARK    9  A    between atoms: C_25  and  O_28
REMARK                            x       y       z     vdW  Elec       q    Type
REMARK                         _______ _______ _______ _____ _____    ______ ____
ROOT
ATOM      1  N   UNL     1      32.853 -14.457 -22.464  0.00  0.00    +0.384 N 
ATOM      2  N   UNL     1      34.851 -16.341 -21.559  0.00  0.00    +0.384 N 
ATOM      3  C   UNL     1      32.971 -14.822 -21.048  0.00  0.00    -0.101 C 
ATOM      4  C   UNL     1      34.157 -14.563 -23.130  0.00  0.00    -0.101 C 
ATOM      5  C   UNL     1      33.548 -16.234 -20.894  0.00  0.00    -0.101 C 
ATOM      6  C   UNL     1      34.736 -15.973 -22.976  0.00  0.00    -0.101 C 
ATOM      7  H   UNL     1      32.210 -15.109 -22.913  0.00  0.00    -0.080 HD
ATOM      8  H   UNL     1      35.496 -15.689 -21.110  0.00  0.00    -0.080 HD
ENDROOT
BRANCH   1   9
ATOM      9  C   UNL     1      32.305 -13.110 -22.610  0.00  0.00    -0.077 C 
BRANCH   9  10
ATOM     10  C   UNL     1      31.874 -12.563 -21.249  0.00  0.00    -0.018 C 
BRANCH  10  11
ATOM     11  C   UNL     1      30.898 -11.395 -21.409  0.00  0.00    +0.024 C 
BRANCH  11  12
ATOM     12  C   UNL     1      31.604 -10.065 -21.354  0.00  0.00    -0.022 C 
ATOM     13  C   UNL     1      31.846  -9.454 -20.124  0.00  0.00    -0.004 C 
ATOM     14  C   UNL     1      32.016  -9.445 -22.534  0.00  0.00    -0.004 C 
ATOM     15  C   UNL     1      32.500  -8.223 -20.074  0.00  0.00    -0.000 C 
ATOM     16  C   UNL     1      32.671  -8.215 -22.483  0.00  0.00    -0.000 C 
ATOM     17  C   UNL     1      32.913  -7.604 -21.253  0.00  0.00    -0.000 C 
ENDBRANCH  11  12
ENDBRANCH  10  11
ENDBRANCH   9  10
ENDBRANCH   1   9
BRANCH   2  18
ATOM     18  C   UNL     1      35.399 -17.688 -21.416  0.00  0.00    -0.073 C 
BRANCH  18  19
ATOM     19  C   UNL     1      34.352 -18.744 -21.772  0.00  0.00    +0.004 C 
BRANCH  19  20
ATOM     20  C   UNL     1      34.350 -19.878 -20.777  0.00  0.00    -0.021 C 
ATOM     21  C   UNL     1      35.552 -20.341 -20.244  0.00  0.00    +0.036 C 
ATOM     22  C   UNL     1      33.144 -20.464 -20.390  0.00  0.00    -0.001 C 
ATOM     23  C   UNL     1      35.550 -21.390 -19.324  0.00  0.00    +0.172 C 
ATOM     24  C   UNL     1      33.141 -21.513 -19.471  0.00  0.00    +0.040 C 
ATOM     25  C   UNL     1      34.344 -21.975 -18.938  0.00  0.00    +0.172 C 
BRANCH  23  26
ATOM     26  O   UNL     1      36.731 -21.833 -18.810  0.00  0.00    -0.468 OA
ATOM     27  C   UNL     1      36.978 -21.565 -17.430  0.00  0.00    +0.253 C 
ENDBRANCH  23  26
BRANCH  25  28
ATOM     28  O   UNL     1      34.330 -22.999 -18.039  0.00  0.00    -0.468 OA
ATOM     29  C   UNL     1      33.093 -23.263 -17.378  0.00  0.00    +0.253 C 
ENDBRANCH  25  28
ENDBRANCH  19  20
ENDBRANCH  18  19
ENDBRANCH   2  18
TORSDOF 9
ENDMDL
MODEL 5
REMARK VINA RESULT:     -10.2      0.791      2.019
REMARK  Name = 9907323
REMARK  9 active torsions:
REMARK  status: ('A' for Active; 'I' for Inactive)
REMARK    1  A    between atoms: N_1  and  C_9
REMARK    2  A    between atoms: N_2  and  C_18
REMARK    3  A    between atoms: C_9  and  C_10
REMARK    4  A    between atoms: C_10  and  C_11
REMARK    5  A    between atoms: C_11  and  C_12
REMARK    6  A    between atoms: C_18  and  C_19
REMARK    7  A    between atoms: C_19  and  C_20
REMARK    8  A    between atoms: C_23  and  O_26
REMARK    9  A    between atoms: C_25  and  O_28
REMARK                            x       y       z     vdW  Elec       q    Type
REMARK                         _______ _______ _______ _____ _____    ______ ____
ROOT
ATOM      1  N   UNL     1      33.483 -15.116 -24.174  0.00  0.00    +0.384 N 
ATOM      2  N   UNL     1      35.504 -17.072 -23.498  0.00  0.00    +0.384 N 
ATOM      3  C   UNL     1      34.464 -14.864 -23.112  0.00  0.00    -0.101 C 
ATOM      4  C   UNL     1      34.050 -16.010 -25.192  0.00  0.00    -0.101 C 
ATOM      5  C   UNL     1      34.936 -16.178 -22.482  0.00  0.00    -0.101 C 
ATOM      6  C   UNL     1      34.525 -17.324 -24.563  0.00  0.00    -0.101 C 
ATOM      7  H   UNL     1      32.672 -15.576 -23.761  0.00  0.00    -0.080 HD
ATOM      8  H   UNL     1      36.316 -16.613 -23.912  0.00  0.00    -0.080 HD
ENDROOT
BRANCH   1   9
ATOM      9  C   UNL     1      33.035 -13.863 -24.776  0.00  0.00    -0.077 C 
BRANCH   9  10
ATOM     10  C   UNL     1      33.459 -12.677 -23.911  0.00  0.00    -0.018 C 
BRANCH  10  11
ATOM     11  C   UNL     1      34.036 -11.548 -24.768  0.00  0.00    +0.024 C 
BRANCH  11  12
ATOM     12  C   UNL     1      33.935 -10.213 -24.074  0.00  0.00    -0.022 C 
ATOM     13  C   UNL     1      32.881  -9.961 -23.197  0.00  0.00    -0.004 C 
ATOM     14  C   UNL     1      34.897  -9.231 -24.309  0.00  0.00    -0.004 C 
ATOM     15  C   UNL     1      32.789  -8.726 -22.555  0.00  0.00    -0.000 C 
ATOM     16  C   UNL     1      34.805  -7.996 -23.666  0.00  0.00    -0.000 C 
ATOM     17  C   UNL     1      33.750  -7.744 -22.789  0.00  0.00    -0.000 C 
ENDBRANCH  11  12
ENDBRANCH  10  11
ENDBRANCH   9  10
ENDBRANCH   1   9
BRANCH   2  18
ATOM     18  C   UNL     1      35.951 -18.326 -22.897  0.00  0.00    -0.073 C 
BRANCH  18  19
ATOM     19  C   UNL     1      34.827 -18.976 -22.088  0.00  0.00    +0.004 C 
BRANCH  19  20
ATOM     20  C   UNL     1      35.371 -19.854 -20.990  0.00  0.00    -0.021 C 
ATOM     21  C   UNL     1      34.627 -20.942 -20.534  0.00  0.00    +0.036 C 
ATOM     22  C   UNL     1      36.619 -19.579 -20.430  0.00  0.00    -0.001 C 
ATOM     23  C   UNL     1      35.131 -21.755 -19.517  0.00  0.00    +0.172 C 
ATOM     24  C   UNL     1      37.123 -20.391 -19.414  0.00  0.00    +0.040 C 
ATOM     25  C   UNL     1      36.379 -21.479 -18.958  0.00  0.00    +0.172 C 
BRANCH  23  26
ATOM     26  O   UNL     1      34.396 -22.814 -19.080  0.00  0.00    -0.468 OA
ATOM     27  C   UNL     1      33.294 -22.528 -18.219  0.00  0.00    +0.253 C 
ENDBRANCH  23  26
BRANCH  25  28
ATOM     28  O   UNL     1      36.881 -22.266 -17.967  0.00  0.00    -0.468 OA
ATOM     29  C   UNL     1      36.757 -21.781 -16.630  0.00  0.00    +0.253 C 
ENDBRANCH  25  28
ENDBRANCH  19  20
ENDBRANCH  18  19
ENDBRANCH   2  18
TORSDOF 9
ENDMDL
MODEL 6
REMARK VINA RESULT:      -9.9      4.479     10.947
REMARK  Name = 9907323
REMARK  9 active torsions:
REMARK  status: ('A' for Active; 'I' for Inactive)
REMARK    1  A    between atoms: N_1  and  C_9
REMARK    2  A    between atoms: N_2  and  C_18
REMARK    3  A    between atoms: C_9  and  C_10
REMARK    4  A    between atoms: C_10  and  C_11
REMARK    5  A    between atoms: C_11  and  C_12
REMARK    6  A    between atoms: C_18  and  C_19
REMARK    7  A    between atoms: C_19  and  C_20
REMARK    8  A    between atoms: C_23  and  O_26
REMARK    9  A    between atoms: C_25  and  O_28
REMARK                            x       y       z     vdW  Elec       q    Type
REMARK                         _______ _______ _______ _____ _____    ______ ____
ROOT
ATOM      1  N   UNL     1      34.646 -16.847 -22.863  0.00  0.00    +0.384 N 
ATOM      2  N   UNL     1      33.974 -14.107 -23.501  0.00  0.00    +0.384 N 
ATOM      3  C   UNL     1      34.763 -16.332 -24.233  0.00  0.00    -0.101 C 
ATOM      4  C   UNL     1      34.850 -15.766 -21.891  0.00  0.00    -0.101 C 
ATOM      5  C   UNL     1      33.771 -15.189 -24.473  0.00  0.00    -0.101 C 
ATOM      6  C   UNL     1      33.859 -14.621 -22.130  0.00  0.00    -0.101 C 
ATOM      7  H   UNL     1      33.703 -17.217 -22.738  0.00  0.00    -0.080 HD
ATOM      8  H   UNL     1      34.916 -13.736 -23.626  0.00  0.00    -0.080 HD
ENDROOT
BRANCH   1   9
ATOM      9  C   UNL     1      35.593 -17.935 -22.634  0.00  0.00    -0.077 C 
BRANCH   9  10
ATOM     10  C   UNL     1      34.859 -19.275 -22.583  0.00  0.00    -0.018 C 
BRANCH  10  11
ATOM     11  C   UNL     1      33.848 -19.306 -21.435  0.00  0.00    +0.024 C 
BRANCH  11  12
ATOM     12  C   UNL     1      34.178 -20.380 -20.430  0.00  0.00    -0.022 C 
ATOM     13  C   UNL     1      33.152 -21.083 -19.799  0.00  0.00    -0.004 C 
ATOM     14  C   UNL     1      35.510 -20.670 -20.131  0.00  0.00    -0.004 C 
ATOM     15  C   UNL     1      33.458 -22.077 -18.869  0.00  0.00    -0.000 C 
ATOM     16  C   UNL     1      35.814 -21.665 -19.201  0.00  0.00    -0.000 C 
ATOM     17  C   UNL     1      34.788 -22.368 -18.571  0.00  0.00    -0.000 C 
ENDBRANCH  11  12
ENDBRANCH  10  11
ENDBRANCH   9  10
ENDBRANCH   1   9
BRANCH   2  18
ATOM     18  C   UNL     1      33.025 -13.020 -23.729  0.00  0.00    -0.073 C 
BRANCH  18  19
ATOM     19  C   UNL     1      33.688 -11.864 -24.479  0.00  0.00    +0.004 C 
BRANCH  19  20
ATOM     20  C   UNL     1      33.466 -10.548 -23.776  0.00  0.00    -0.021 C 
ATOM     21  C   UNL     1      34.244  -9.440 -24.109  0.00  0.00    +0.036 C 
ATOM     22  C   UNL     1      32.482 -10.439 -22.793  0.00  0.00    -0.001 C 
ATOM     23  C   UNL     1      34.039  -8.222 -23.459  0.00  0.00    +0.172 C 
ATOM     24  C   UNL     1      32.276  -9.223 -22.143  0.00  0.00    +0.040 C 
ATOM     25  C   UNL     1      33.054  -8.115 -22.476  0.00  0.00    +0.172 C 
BRANCH  23  26
ATOM     26  O   UNL     1      34.804  -7.147 -23.792  0.00  0.00    -0.468 OA
ATOM     27  C   UNL     1      34.571  -6.556 -25.070  0.00  0.00    +0.253 C 
ENDBRANCH  23  26
BRANCH  25  28
ATOM     28  O   UNL     1      32.844  -6.931 -21.836  0.00  0.00    -0.468 OA
ATOM     29  C   UNL     1      32.234  -6.991 -20.547  0.00  0.00    +0.253 C 
ENDBRANCH  25  28
ENDBRANCH  19  20
ENDBRANCH  18  19
ENDBRANCH   2  18
TORSDOF 9
ENDMDL
MODEL 7
REMARK VINA RESULT:      -9.8      4.045     10.671
REMARK  Name = 9907323
REMARK  9 active torsions:
REMARK  status: ('A' for Active; 'I' for Inactive)
REMARK    1  A    between atoms: N_1  and  C_9
REMARK    2  A    between atoms: N_2  and  C_18
REMARK    3  A    between atoms: C_9  and  C_10
REMARK    4  A    between atoms: C_10  and  C_11
REMARK    5  A    between atoms: C_11  and  C_12
REMARK    6  A    between atoms: C_18  and  C_19
REMARK    7  A    between atoms: C_19  and  C_20
REMARK    8  A    between atoms: C_23  and  O_26
REMARK    9  A    between atoms: C_25  and  O_28
REMARK                            x       y       z     vdW  Elec       q    Type
REMARK                         _______ _______ _______ _____ _____    ______ ____
ROOT
ATOM      1  N   UNL     1      34.690 -21.614 -20.261  0.00  0.00    +0.384 N 
ATOM      2  N   UNL     1      35.167 -18.783 -20.613  0.00  0.00    +0.384 N 
ATOM      3  C   UNL     1      35.932 -20.985 -19.795  0.00  0.00    -0.101 C 
ATOM      4  C   UNL     1      33.586 -20.646 -20.236  0.00  0.00    -0.101 C 
ATOM      5  C   UNL     1      36.269 -19.752 -20.639  0.00  0.00    -0.101 C 
ATOM      6  C   UNL     1      33.923 -19.410 -21.078  0.00  0.00    -0.101 C 
ATOM      7  H   UNL     1      34.826 -21.919 -21.225  0.00  0.00    -0.080 HD
ATOM      8  H   UNL     1      35.031 -18.476 -19.650  0.00  0.00    -0.080 HD
ENDROOT
BRANCH   1   9
ATOM      9  C   UNL     1      34.367 -22.789 -19.456  0.00  0.00    -0.077 C 
BRANCH   9  10
ATOM     10  C   UNL     1      33.380 -22.419 -18.349  0.00  0.00    -0.018 C 
BRANCH  10  11
ATOM     11  C   UNL     1      33.656 -23.220 -17.075  0.00  0.00    +0.024 C 
BRANCH  11  12
ATOM     12  C   UNL     1      32.485 -23.181 -16.126  0.00  0.00    -0.022 C 
ATOM     13  C   UNL     1      31.191 -23.032 -16.623  0.00  0.00    -0.004 C 
ATOM     14  C   UNL     1      32.696 -23.295 -14.752  0.00  0.00    -0.004 C 
ATOM     15  C   UNL     1      30.107 -22.996 -15.745  0.00  0.00    -0.000 C 
ATOM     16  C   UNL     1      31.612 -23.260 -13.875  0.00  0.00    -0.000 C 
ATOM     17  C   UNL     1      30.318 -23.111 -14.371  0.00  0.00    -0.000 C 
ENDBRANCH  11  12
ENDBRANCH  10  11
ENDBRANCH   9  10
ENDBRANCH   1   9
BRANCH   2  18
ATOM     18  C   UNL     1      35.488 -17.609 -21.421  0.00  0.00    -0.073 C 
BRANCH  18  19
ATOM     19  C   UNL     1      35.430 -17.938 -22.913  0.00  0.00    +0.004 C 
BRANCH  19  20
ATOM     20  C   UNL     1      34.706 -16.866 -23.688  0.00  0.00    -0.021 C 
ATOM     21  C   UNL     1      34.302 -15.695 -23.048  0.00  0.00    +0.036 C 
ATOM     22  C   UNL     1      34.440 -17.045 -25.046  0.00  0.00    -0.001 C 
ATOM     23  C   UNL     1      33.632 -14.702 -23.765  0.00  0.00    +0.172 C 
ATOM     24  C   UNL     1      33.771 -16.055 -25.763  0.00  0.00    +0.040 C 
ATOM     25  C   UNL     1      33.367 -14.883 -25.123  0.00  0.00    +0.172 C 
BRANCH  23  26
ATOM     26  O   UNL     1      33.243 -13.563 -23.130  0.00  0.00    -0.468 OA
ATOM     27  C   UNL     1      32.424 -13.714 -21.971  0.00  0.00    +0.253 C 
ENDBRANCH  23  26
BRANCH  25  28
ATOM     28  O   UNL     1      32.716 -13.921 -25.834  0.00  0.00    -0.468 OA
ATOM     29  C   UNL     1      33.302 -13.520 -27.072  0.00  0.00    +0.253 C 
ENDBRANCH  25  28
ENDBRANCH  19  20
ENDBRANCH  18  19
ENDBRANCH   2  18
TORSDOF 9
ENDMDL
MODEL 8
REMARK VINA RESULT:      -9.8      1.875      2.954
REMARK  Name = 9907323
REMARK  9 active torsions:
REMARK  status: ('A' for Active; 'I' for Inactive)
REMARK    1  A    between atoms: N_1  and  C_9
REMARK    2  A    between atoms: N_2  and  C_18
REMARK    3  A    between atoms: C_9  and  C_10
REMARK    4  A    between atoms: C_10  and  C_11
REMARK    5  A    between atoms: C_11  and  C_12
REMARK    6  A    between atoms: C_18  and  C_19
REMARK    7  A    between atoms: C_19  and  C_20
REMARK    8  A    between atoms: C_23  and  O_26
REMARK    9  A    between atoms: C_25  and  O_28
REMARK                            x       y       z     vdW  Elec       q    Type
REMARK                         _______ _______ _______ _____ _____    ______ ____
ROOT
ATOM      1  N   UNL     1      33.989 -15.245 -22.813  0.00  0.00    +0.384 N 
ATOM      2  N   UNL     1      35.079 -17.915 -22.595  0.00  0.00    +0.384 N 
ATOM      3  C   UNL     1      34.516 -15.753 -21.541  0.00  0.00    -0.101 C 
ATOM      4  C   UNL     1      34.679 -15.882 -23.943  0.00  0.00    -0.101 C 
ATOM      5  C   UNL     1      34.389 -17.278 -21.467  0.00  0.00    -0.101 C 
ATOM      6  C   UNL     1      34.555 -17.408 -23.869  0.00  0.00    -0.101 C 
ATOM      7  H   UNL     1      32.998 -15.482 -22.869  0.00  0.00    -0.080 HD
ATOM      8  H   UNL     1      36.071 -17.680 -22.540  0.00  0.00    -0.080 HD
ENDROOT
BRANCH   1   9
ATOM      9  C   UNL     1      34.111 -13.791 -22.884  0.00  0.00    -0.077 C 
BRANCH   9  10
ATOM     10  C   UNL     1      32.734 -13.151 -23.064  0.00  0.00    -0.018 C 
BRANCH  10  11
ATOM     11  C   UNL     1      31.949 -13.156 -21.750  0.00  0.00    +0.024 C 
BRANCH  11  12
ATOM     12  C   UNL     1      31.892 -11.783 -21.129  0.00  0.00    -0.022 C 
ATOM     13  C   UNL     1      31.990 -10.649 -21.935  0.00  0.00    -0.004 C 
ATOM     14  C   UNL     1      31.740 -11.648 -19.749  0.00  0.00    -0.004 C 
ATOM     15  C   UNL     1      31.936  -9.379 -21.360  0.00  0.00    -0.000 C 
ATOM     16  C   UNL     1      31.686 -10.378 -19.175  0.00  0.00    -0.000 C 
ATOM     17  C   UNL     1      31.784  -9.244 -19.981  0.00  0.00    -0.000 C 
ENDBRANCH  11  12
ENDBRANCH  10  11
ENDBRANCH   9  10
ENDBRANCH   1   9
BRANCH   2  18
ATOM     18  C   UNL     1      34.955 -19.369 -22.525  0.00  0.00    -0.073 C 
BRANCH  18  19
ATOM     19  C   UNL     1      34.001 -19.784 -21.405  0.00  0.00    +0.004 C 
BRANCH  19  20
ATOM     20  C   UNL     1      34.719 -20.552 -20.323  0.00  0.00    -0.021 C 
ATOM     21  C   UNL     1      34.033 -21.510 -19.577  0.00  0.00    +0.036 C 
ATOM     22  C   UNL     1      36.067 -20.303 -20.068  0.00  0.00    -0.001 C 
ATOM     23  C   UNL     1      34.697 -22.221 -18.576  0.00  0.00    +0.172 C 
ATOM     24  C   UNL     1      36.731 -21.012 -19.067  0.00  0.00    +0.040 C 
ATOM     25  C   UNL     1      36.046 -21.971 -18.322  0.00  0.00    +0.172 C 
BRANCH  23  26
ATOM     26  O   UNL     1      34.018 -23.155 -17.855  0.00  0.00    -0.468 OA
ATOM     27  C   UNL     1      32.684 -22.829 -17.464  0.00  0.00    +0.253 C 
ENDBRANCH  23  26
BRANCH  25  28
ATOM     28  O   UNL     1      36.704 -22.660 -17.348  0.00  0.00    -0.468 OA
ATOM     29  C   UNL     1      37.151 -21.913 -16.217  0.00  0.00    +0.253 C 
ENDBRANCH  25  28
ENDBRANCH  19  20
ENDBRANCH  18  19
ENDBRANCH   2  18
TORSDOF 9
ENDMDL
MODEL 9
REMARK VINA RESULT:      -9.7      3.650      6.757
REMARK  Name = 9907323
REMARK  9 active torsions:
REMARK  status: ('A' for Active; 'I' for Inactive)
REMARK    1  A    between atoms: N_1  and  C_9
REMARK    2  A    between atoms: N_2  and  C_18
REMARK    3  A    between atoms: C_9  and  C_10
REMARK    4  A    between atoms: C_10  and  C_11
REMARK    5  A    between atoms: C_11  and  C_12
REMARK    6  A    between atoms: C_18  and  C_19
REMARK    7  A    between atoms: C_19  and  C_20
REMARK    8  A    between atoms: C_23  and  O_26
REMARK    9  A    between atoms: C_25  and  O_28
REMARK                            x       y       z     vdW  Elec       q    Type
REMARK                         _______ _______ _______ _____ _____    ______ ____
ROOT
ATOM      1  N   UNL     1      35.345 -19.731 -20.206  0.00  0.00    +0.384 N 
ATOM      2  N   UNL     1      34.417 -22.391 -19.555  0.00  0.00    +0.384 N 
ATOM      3  C   UNL     1      36.281 -20.852 -20.066  0.00  0.00    -0.101 C 
ATOM      4  C   UNL     1      34.034 -20.212 -20.659  0.00  0.00    -0.101 C 
ATOM      5  C   UNL     1      35.727 -21.908 -19.104  0.00  0.00    -0.101 C 
ATOM      6  C   UNL     1      33.479 -21.270 -19.699  0.00  0.00    -0.101 C 
ATOM      7  H   UNL     1      35.228 -19.292 -19.293  0.00  0.00    -0.080 HD
ATOM      8  H   UNL     1      34.533 -22.830 -20.469  0.00  0.00    -0.080 HD
ENDROOT
BRANCH   1   9
ATOM      9  C   UNL     1      35.873 -18.725 -21.125  0.00  0.00    -0.077 C 
BRANCH   9  10
ATOM     10  C   UNL     1      34.766 -18.214 -22.046  0.00  0.00    -0.018 C 
BRANCH  10  11
ATOM     11  C   UNL     1      35.328 -17.804 -23.409  0.00  0.00    +0.024 C 
BRANCH  11  12
ATOM     12  C   UNL     1      34.624 -16.592 -23.962  0.00  0.00    -0.022 C 
ATOM     13  C   UNL     1      34.112 -16.614 -25.259  0.00  0.00    -0.004 C 
ATOM     14  C   UNL     1      34.485 -15.447 -23.177  0.00  0.00    -0.004 C 
ATOM     15  C   UNL     1      33.460 -15.491 -25.771  0.00  0.00    -0.000 C 
ATOM     16  C   UNL     1      33.832 -14.326 -23.689  0.00  0.00    -0.000 C 
ATOM     17  C   UNL     1      33.319 -14.348 -24.985  0.00  0.00    -0.000 C 
ENDBRANCH  11  12
ENDBRANCH  10  11
ENDBRANCH   9  10
ENDBRANCH   1   9
BRANCH   2  18
ATOM     18  C   UNL     1      33.888 -23.395 -18.636  0.00  0.00    -0.073 C 
BRANCH  18  19
ATOM     19  C   UNL     1      32.985 -22.751 -17.583  0.00  0.00    +0.004 C 
BRANCH  19  20
ATOM     20  C   UNL     1      33.356 -23.193 -16.190  0.00  0.00    -0.021 C 
ATOM     21  C   UNL     1      32.364 -23.618 -15.306  0.00  0.00    +0.036 C 
ATOM     22  C   UNL     1      34.691 -23.177 -15.785  0.00  0.00    -0.001 C 
ATOM     23  C   UNL     1      32.707 -24.027 -14.016  0.00  0.00    +0.172 C 
ATOM     24  C   UNL     1      35.034 -23.585 -14.496  0.00  0.00    +0.040 C 
ATOM     25  C   UNL     1      34.043 -24.011 -13.613  0.00  0.00    +0.172 C 
BRANCH  23  26
ATOM     26  O   UNL     1      31.731 -24.441 -13.162  0.00  0.00    -0.468 OA
ATOM     27  C   UNL     1      30.450 -24.720 -13.728  0.00  0.00    +0.253 C 
ENDBRANCH  23  26
BRANCH  25  28
ATOM     28  O   UNL     1      34.389 -24.409 -12.357  0.00  0.00    -0.468 OA
ATOM     29  C   UNL     1      35.758 -24.750 -12.140  0.00  0.00    +0.253 C 
ENDBRANCH  25  28
ENDBRANCH  19  20
ENDBRANCH  18  19
ENDBRANCH   2  18
TORSDOF 9
ENDMDL
