MODEL 1
REMARK VINA RESULT:      -9.6      0.000      0.000
REMARK  Name = 6441712
REMARK  16 active torsions:
REMARK  status: ('A' for Active; 'I' for Inactive)
REMARK    1  A    between atoms: C_1  and  C_24
REMARK    2  A    between atoms: C_2  and  S_10
REMARK    3  A    between atoms: C_3  and  O_6
REMARK    4  A    between atoms: C_4  and  O_8
REMARK    5  A    between atoms: S_10  and  C_11
REMARK    6  A    between atoms: C_11  and  C_12
REMARK    7  A    between atoms: C_12  and  O_13
REMARK    8  A    between atoms: C_12  and  C_15
REMARK    9  A    between atoms: C_15  and  O_16
REMARK   10  A    between atoms: O_16  and  C_18
REMARK   11  A    between atoms: C_24  and  C_25
REMARK   12  A    between atoms: C_26  and  C_27
REMARK   13  A    between atoms: C_27  and  C_28
REMARK   14  A    between atoms: C_28  and  C_29
REMARK   15  A    between atoms: C_29  and  C_31
REMARK   16  A    between atoms: C_31  and  O_32
REMARK                            x       y       z     vdW  Elec       q    Type
REMARK                         _______ _______ _______ _____ _____    ______ ____
ROOT
ATOM      1  C   UNL     1      35.499 -24.516 -13.605  0.00  0.00    +0.044 C 
ATOM      2  C   UNL     1      36.669 -23.525 -13.675  0.00  0.00    +0.077 C 
ATOM      3  C   UNL     1      35.249 -24.609 -12.094  0.00  0.00    +0.114 C 
ATOM      4  C   UNL     1      37.551 -23.892 -12.471  0.00  0.00    +0.123 C 
ATOM      5  C   UNL     1      36.656 -24.682 -11.503  0.00  0.00    +0.059 C 
ENDROOT
BRANCH   3   6
ATOM      6  O   UNL     1      34.608 -23.444 -11.588  0.00  0.00    -0.384 OA
ATOM      7  H   UNL     1      34.516 -23.516 -10.626  0.00  0.00    +0.210 HD
ENDBRANCH   3   6
BRANCH   4   8
ATOM      8  O   UNL     1      38.047 -22.715 -11.846  0.00  0.00    -0.384 OA
ATOM      9  H   UNL     1      38.306 -22.072 -12.525  0.00  0.00    +0.210 HD
ENDBRANCH   4   8
BRANCH   2  10
ATOM     10  S   UNL     1      37.589 -23.622 -15.244  0.00  0.00    -0.136 S 
BRANCH  10  11
ATOM     11  C   UNL     1      37.337 -21.921 -15.795  0.00  0.00    +0.091 C 
BRANCH  11  12
ATOM     12  C   UNL     1      36.996 -21.781 -17.282  0.00  0.00    +0.165 C 
BRANCH  12  13
ATOM     13  O   UNL     1      37.250 -20.439 -17.699  0.00  0.00    -0.380 OA
ATOM     14  H   UNL     1      36.412 -19.955 -17.764  0.00  0.00    +0.211 HD
ENDBRANCH  12  13
BRANCH  12  15
ATOM     15  C   UNL     1      35.565 -22.168 -17.647  0.00  0.00    +0.235 C 
BRANCH  15  16
ATOM     16  O   UNL     1      35.482 -22.337 -19.060  0.00  0.00    -0.473 OA
BRANCH  16  18
ATOM     17 CL   UNL     1      35.891 -18.407 -22.276  0.00  0.00    -0.082 Cl
ATOM     18  C   UNL     1      34.859 -21.343 -19.762  0.00  0.00    +0.140 C 
ATOM     19  C   UNL     1      35.606 -20.482 -20.566  0.00  0.00    +0.048 C 
ATOM     20  C   UNL     1      33.474 -21.191 -19.676  0.00  0.00    +0.037 C 
ATOM     21  C   UNL     1      34.970 -19.468 -21.283  0.00  0.00    +0.061 C 
ATOM     22  C   UNL     1      32.838 -20.177 -20.393  0.00  0.00    +0.004 C 
ATOM     23  C   UNL     1      33.586 -19.317 -21.196  0.00  0.00    +0.012 C 
ENDBRANCH  16  18
ENDBRANCH  15  16
ENDBRANCH  12  15
ENDBRANCH  11  12
ENDBRANCH  10  11
ENDBRANCH   2  10
BRANCH   1  24
ATOM     24  C   UNL     1      34.282 -24.081 -14.411  0.00  0.00    +0.029 C 
BRANCH  24  25
ATOM     25  C   UNL     1      32.986 -24.785 -14.118  0.00  0.00    -0.031 C 
ATOM     26  C   UNL     1      31.752 -24.260 -14.151  0.00  0.00    -0.031 C 
BRANCH  26  27
ATOM     27  C   UNL     1      31.468 -22.829 -14.502  0.00  0.00    +0.026 C 
BRANCH  27  28
ATOM     28  C   UNL     1      30.035 -22.587 -14.996  0.00  0.00    +0.016 C 
BRANCH  28  29
ATOM     29  C   UNL     1      29.707 -23.285 -16.320  0.00  0.00    +0.110 C 
BRANCH  29  31
ATOM     30  O   UNL     1      27.853 -21.792 -16.834  0.00  0.00    -0.250 OA
ATOM     31  C   UNL     1      28.359 -22.904 -16.891  0.00  0.00    +0.314 C 
BRANCH  31  32
ATOM     32  O   UNL     1      27.734 -23.971 -17.455  0.00  0.00    -0.480 OA
ATOM     33  H   UNL     1      27.519 -23.959 -18.367  0.00  0.00    +0.295 HD
ENDBRANCH  31  32
ENDBRANCH  29  31
ENDBRANCH  28  29
ENDBRANCH  27  28
ENDBRANCH  26  27
ENDBRANCH  24  25
ENDBRANCH   1  24
TORSDOF 16
ENDMDL
MODEL 2
REMARK VINA RESULT:      -9.3      8.133     11.912
REMARK  Name = 6441712
REMARK  16 active torsions:
REMARK  status: ('A' for Active; 'I' for Inactive)
REMARK    1  A    between atoms: C_1  and  C_24
REMARK    2  A    between atoms: C_2  and  S_10
REMARK    3  A    between atoms: C_3  and  O_6
REMARK    4  A    between atoms: C_4  and  O_8
REMARK    5  A    between atoms: S_10  and  C_11
REMARK    6  A    between atoms: C_11  and  C_12
REMARK    7  A    between atoms: C_12  and  O_13
REMARK    8  A    between atoms: C_12  and  C_15
REMARK    9  A    between atoms: C_15  and  O_16
REMARK   10  A    between atoms: O_16  and  C_18
REMARK   11  A    between atoms: C_24  and  C_25
REMARK   12  A    between atoms: C_26  and  C_27
REMARK   13  A    between atoms: C_27  and  C_28
REMARK   14  A    between atoms: C_28  and  C_29
REMARK   15  A    between atoms: C_29  and  C_31
REMARK   16  A    between atoms: C_31  and  O_32
REMARK                            x       y       z     vdW  Elec       q    Type
REMARK                         _______ _______ _______ _____ _____    ______ ____
ROOT
ATOM      1  C   UNL     1      33.931 -16.190 -22.251  0.00  0.00    +0.044 C 
ATOM      2  C   UNL     1      33.941 -14.671 -22.026  0.00  0.00    +0.077 C 
ATOM      3  C   UNL     1      34.411 -16.301 -23.704  0.00  0.00    +0.114 C 
ATOM      4  C   UNL     1      33.443 -14.087 -23.357  0.00  0.00    +0.123 C 
ATOM      5  C   UNL     1      33.653 -15.181 -24.416  0.00  0.00    +0.059 C 
ENDROOT
BRANCH   3   6
ATOM      6  O   UNL     1      35.806 -16.047 -23.825  0.00  0.00    -0.384 OA
ATOM      7  H   UNL     1      36.119 -16.365 -24.686  0.00  0.00    +0.210 HD
ENDBRANCH   3   6
BRANCH   4   8
ATOM      8  O   UNL     1      34.185 -12.920 -23.691  0.00  0.00    -0.384 OA
ATOM      9  H   UNL     1      35.130 -13.086 -23.549  0.00  0.00    +0.210 HD
ENDBRANCH   4   8
BRANCH   2  10
ATOM     10  S   UNL     1      32.895 -14.155 -20.627  0.00  0.00    -0.136 S 
BRANCH  10  11
ATOM     11  C   UNL     1      31.856 -12.968 -21.507  0.00  0.00    +0.091 C 
BRANCH  11  12
ATOM     12  C   UNL     1      31.940 -11.535 -20.973  0.00  0.00    +0.165 C 
BRANCH  12  13
ATOM     13  O   UNL     1      31.207 -11.445 -19.750  0.00  0.00    -0.380 OA
ATOM     14  H   UNL     1      30.377 -11.940 -19.832  0.00  0.00    +0.211 HD
ENDBRANCH  12  13
BRANCH  12  15
ATOM     15  C   UNL     1      31.451 -10.463 -21.943  0.00  0.00    +0.235 C 
BRANCH  15  16
ATOM     16  O   UNL     1      32.334 -10.420 -23.061  0.00  0.00    -0.473 OA
BRANCH  16  18
ATOM     17 CL   UNL     1      31.167  -5.650 -24.419  0.00  0.00    -0.082 Cl
ATOM     18  C   UNL     1      32.772  -9.183 -23.450  0.00  0.00    +0.140 C 
ATOM     19  C   UNL     1      31.853  -8.166 -23.707  0.00  0.00    +0.048 C 
ATOM     20  C   UNL     1      34.139  -8.939 -23.588  0.00  0.00    +0.037 C 
ATOM     21  C   UNL     1      32.299  -6.905 -24.103  0.00  0.00    +0.061 C 
ATOM     22  C   UNL     1      34.586  -7.679 -23.983  0.00  0.00    +0.004 C 
ATOM     23  C   UNL     1      33.666  -6.662 -24.241  0.00  0.00    +0.012 C 
ENDBRANCH  16  18
ENDBRANCH  15  16
ENDBRANCH  12  15
ENDBRANCH  11  12
ENDBRANCH  10  11
ENDBRANCH   2  10
BRANCH   1  24
ATOM     24  C   UNL     1      34.788 -16.959 -21.253  0.00  0.00    +0.029 C 
BRANCH  24  25
ATOM     25  C   UNL     1      35.261 -18.323 -21.674  0.00  0.00    -0.031 C 
ATOM     26  C   UNL     1      34.603 -19.486 -21.543  0.00  0.00    -0.031 C 
BRANCH  26  27
ATOM     27  C   UNL     1      33.239 -19.603 -20.931  0.00  0.00    +0.026 C 
BRANCH  27  28
ATOM     28  C   UNL     1      33.120 -20.734 -19.899  0.00  0.00    +0.016 C 
BRANCH  28  29
ATOM     29  C   UNL     1      34.457 -21.387 -19.536  0.00  0.00    +0.110 C 
BRANCH  29  31
ATOM     30  O   UNL     1      33.888 -23.755 -19.537  0.00  0.00    -0.250 OA
ATOM     31  C   UNL     1      34.318 -22.773 -18.946  0.00  0.00    +0.314 C 
BRANCH  31  32
ATOM     32  O   UNL     1      34.692 -22.804 -17.641  0.00  0.00    -0.480 OA
ATOM     33  H   UNL     1      34.744 -22.008 -17.149  0.00  0.00    +0.295 HD
ENDBRANCH  31  32
ENDBRANCH  29  31
ENDBRANCH  28  29
ENDBRANCH  27  28
ENDBRANCH  26  27
ENDBRANCH  24  25
ENDBRANCH   1  24
TORSDOF 16
ENDMDL
MODEL 3
REMARK VINA RESULT:      -9.2      2.084      3.131
REMARK  Name = 6441712
REMARK  16 active torsions:
REMARK  status: ('A' for Active; 'I' for Inactive)
REMARK    1  A    between atoms: C_1  and  C_24
REMARK    2  A    between atoms: C_2  and  S_10
REMARK    3  A    between atoms: C_3  and  O_6
REMARK    4  A    between atoms: C_4  and  O_8
REMARK    5  A    between atoms: S_10  and  C_11
REMARK    6  A    between atoms: C_11  and  C_12
REMARK    7  A    between atoms: C_12  and  O_13
REMARK    8  A    between atoms: C_12  and  C_15
REMARK    9  A    between atoms: C_15  and  O_16
REMARK   10  A    between atoms: O_16  and  C_18
REMARK   11  A    between atoms: C_24  and  C_25
REMARK   12  A    between atoms: C_26  and  C_27
REMARK   13  A    between atoms: C_27  and  C_28
REMARK   14  A    between atoms: C_28  and  C_29
REMARK   15  A    between atoms: C_29  and  C_31
REMARK   16  A    between atoms: C_31  and  O_32
REMARK                            x       y       z     vdW  Elec       q    Type
REMARK                         _______ _______ _______ _____ _____    ______ ____
ROOT
ATOM      1  C   UNL     1      33.929 -24.184 -14.805  0.00  0.00    +0.044 C 
ATOM      2  C   UNL     1      34.322 -23.080 -15.796  0.00  0.00    +0.077 C 
ATOM      3  C   UNL     1      35.185 -24.293 -13.931  0.00  0.00    +0.114 C 
ATOM      4  C   UNL     1      35.805 -23.350 -16.096  0.00  0.00    +0.123 C 
ATOM      5  C   UNL     1      36.329 -24.219 -14.942  0.00  0.00    +0.059 C 
ENDROOT
BRANCH   3   6
ATOM      6  O   UNL     1      35.306 -23.195 -13.035  0.00  0.00    -0.384 OA
ATOM      7  H   UNL     1      35.653 -22.424 -13.511  0.00  0.00    +0.210 HD
ENDBRANCH   3   6
BRANCH   4   8
ATOM      8  O   UNL     1      36.524 -22.125 -16.165  0.00  0.00    -0.384 OA
ATOM      9  H   UNL     1      35.952 -21.397 -15.878  0.00  0.00    +0.210 HD
ENDBRANCH   4   8
BRANCH   2  10
ATOM     10  S   UNL     1      33.311 -23.094 -17.312  0.00  0.00    -0.136 S 
BRANCH  10  11
ATOM     11  C   UNL     1      34.534 -22.394 -18.442  0.00  0.00    +0.091 C 
BRANCH  11  12
ATOM     12  C   UNL     1      33.981 -21.323 -19.388  0.00  0.00    +0.165 C 
BRANCH  12  13
ATOM     13  O   UNL     1      32.808 -21.824 -20.031  0.00  0.00    -0.380 OA
ATOM     14  H   UNL     1      32.993 -21.977 -20.970  0.00  0.00    +0.211 HD
ENDBRANCH  12  13
BRANCH  12  15
ATOM     15  C   UNL     1      34.971 -20.830 -20.441  0.00  0.00    +0.235 C 
BRANCH  15  16
ATOM     16  O   UNL     1      35.056 -19.410 -20.359  0.00  0.00    -0.473 OA
BRANCH  16  18
ATOM     17 CL   UNL     1      34.615 -14.911 -22.710  0.00  0.00    -0.082 Cl
ATOM     18  C   UNL     1      34.957 -18.720 -21.537  0.00  0.00    +0.140 C 
ATOM     19  C   UNL     1      34.848 -17.330 -21.524  0.00  0.00    +0.048 C 
ATOM     20  C   UNL     1      34.967 -19.408 -22.751  0.00  0.00    +0.037 C 
ATOM     21  C   UNL     1      34.748 -16.626 -22.725  0.00  0.00    +0.061 C 
ATOM     22  C   UNL     1      34.867 -18.705 -23.952  0.00  0.00    +0.004 C 
ATOM     23  C   UNL     1      34.758 -17.314 -23.938  0.00  0.00    +0.012 C 
ENDBRANCH  16  18
ENDBRANCH  15  16
ENDBRANCH  12  15
ENDBRANCH  11  12
ENDBRANCH  10  11
ENDBRANCH   2  10
BRANCH   1  24
ATOM     24  C   UNL     1      32.655 -23.879 -14.026  0.00  0.00    +0.029 C 
BRANCH  24  25
ATOM     25  C   UNL     1      31.710 -25.026 -13.793  0.00  0.00    -0.031 C 
ATOM     26  C   UNL     1      30.590 -25.305 -14.477  0.00  0.00    -0.031 C 
BRANCH  26  27
ATOM     27  C   UNL     1      30.091 -24.480 -15.626  0.00  0.00    +0.026 C 
BRANCH  27  28
ATOM     28  C   UNL     1      28.634 -24.021 -15.470  0.00  0.00    +0.016 C 
BRANCH  28  29
ATOM     29  C   UNL     1      28.403 -22.551 -15.831  0.00  0.00    +0.110 C 
BRANCH  29  31
ATOM     30  O   UNL     1      26.954 -21.326 -17.359  0.00  0.00    -0.250 OA
ATOM     31  C   UNL     1      27.551 -22.354 -17.066  0.00  0.00    +0.314 C 
BRANCH  31  32
ATOM     32  O   UNL     1      27.482 -23.485 -17.815  0.00  0.00    -0.480 OA
ATOM     33  H   UNL     1      28.269 -23.920 -18.079  0.00  0.00    +0.295 HD
ENDBRANCH  31  32
ENDBRANCH  29  31
ENDBRANCH  28  29
ENDBRANCH  27  28
ENDBRANCH  26  27
ENDBRANCH  24  25
ENDBRANCH   1  24
TORSDOF 16
ENDMDL
MODEL 4
REMARK VINA RESULT:      -9.2      9.314     13.343
REMARK  Name = 6441712
REMARK  16 active torsions:
REMARK  status: ('A' for Active; 'I' for Inactive)
REMARK    1  A    between atoms: C_1  and  C_24
REMARK    2  A    between atoms: C_2  and  S_10
REMARK    3  A    between atoms: C_3  and  O_6
REMARK    4  A    between atoms: C_4  and  O_8
REMARK    5  A    between atoms: S_10  and  C_11
REMARK    6  A    between atoms: C_11  and  C_12
REMARK    7  A    between atoms: C_12  and  O_13
REMARK    8  A    between atoms: C_12  and  C_15
REMARK    9  A    between atoms: C_15  and  O_16
REMARK   10  A    between atoms: O_16  and  C_18
REMARK   11  A    between atoms: C_24  and  C_25
REMARK   12  A    between atoms: C_26  and  C_27
REMARK   13  A    between atoms: C_27  and  C_28
REMARK   14  A    between atoms: C_28  and  C_29
REMARK   15  A    between atoms: C_29  and  C_31
REMARK   16  A    between atoms: C_31  and  O_32
REMARK                            x       y       z     vdW  Elec       q    Type
REMARK                         _______ _______ _______ _____ _____    ______ ____
ROOT
ATOM      1  C   UNL     1      33.829 -15.553 -24.131  0.00  0.00    +0.044 C 
ATOM      2  C   UNL     1      33.897 -14.230 -24.907  0.00  0.00    +0.077 C 
ATOM      3  C   UNL     1      33.823 -16.587 -25.264  0.00  0.00    +0.114 C 
ATOM      4  C   UNL     1      32.997 -14.460 -26.131  0.00  0.00    +0.123 C 
ATOM      5  C   UNL     1      32.868 -15.983 -26.294  0.00  0.00    +0.059 C 
ENDROOT
BRANCH   3   6
ATOM      6  O   UNL     1      35.104 -16.726 -25.866  0.00  0.00    -0.384 OA
ATOM      7  H   UNL     1      35.017 -16.676 -26.830  0.00  0.00    +0.210 HD
ENDBRANCH   3   6
BRANCH   4   8
ATOM      8  O   UNL     1      33.585 -13.882 -27.290  0.00  0.00    -0.384 OA
ATOM      9  H   UNL     1      34.313 -14.443 -27.598  0.00  0.00    +0.210 HD
ENDBRANCH   4   8
BRANCH   2  10
ATOM     10  S   UNL     1      33.346 -12.800 -23.921  0.00  0.00    -0.136 S 
BRANCH  10  11
ATOM     11  C   UNL     1      34.034 -11.492 -24.960  0.00  0.00    +0.091 C 
BRANCH  11  12
ATOM     12  C   UNL     1      34.011 -10.100 -24.322  0.00  0.00    +0.165 C 
BRANCH  12  13
ATOM     13  O   UNL     1      35.333  -9.750 -23.908  0.00  0.00    -0.380 OA
ATOM     14  H   UNL     1      35.975 -10.110 -24.539  0.00  0.00    +0.211 HD
ENDBRANCH  12  13
BRANCH  12  15
ATOM     15  C   UNL     1      33.050  -9.953 -23.145  0.00  0.00    +0.235 C 
BRANCH  15  16
ATOM     16  O   UNL     1      31.883  -9.267 -23.589  0.00  0.00    -0.473 OA
BRANCH  16  18
ATOM     17 CL   UNL     1      30.826  -4.460 -24.905  0.00  0.00    -0.082 Cl
ATOM     18  C   UNL     1      31.755  -7.960 -23.206  0.00  0.00    +0.140 C 
ATOM     19  C   UNL     1      31.398  -6.990 -24.142  0.00  0.00    +0.048 C 
ATOM     20  C   UNL     1      31.979  -7.598 -21.877  0.00  0.00    +0.037 C 
ATOM     21  C   UNL     1      31.267  -5.657 -23.751  0.00  0.00    +0.061 C 
ATOM     22  C   UNL     1      31.847  -6.265 -21.485  0.00  0.00    +0.004 C 
ATOM     23  C   UNL     1      31.491  -5.296 -22.423  0.00  0.00    +0.012 C 
ENDBRANCH  16  18
ENDBRANCH  15  16
ENDBRANCH  12  15
ENDBRANCH  11  12
ENDBRANCH  10  11
ENDBRANCH   2  10
BRANCH   1  24
ATOM     24  C   UNL     1      34.964 -15.733 -23.132  0.00  0.00    +0.029 C 
BRANCH  24  25
ATOM     25  C   UNL     1      34.575 -16.027 -21.709  0.00  0.00    -0.031 C 
ATOM     26  C   UNL     1      34.842 -17.140 -21.009  0.00  0.00    -0.031 C 
BRANCH  26  27
ATOM     27  C   UNL     1      35.602 -18.309 -21.565  0.00  0.00    +0.026 C 
BRANCH  27  28
ATOM     28  C   UNL     1      34.770 -19.596 -21.662  0.00  0.00    +0.016 C 
BRANCH  28  29
ATOM     29  C   UNL     1      34.693 -20.386 -20.353  0.00  0.00    +0.110 C 
BRANCH  29  31
ATOM     30  O   UNL     1      33.046 -22.066 -19.722  0.00  0.00    -0.250 OA
ATOM     31  C   UNL     1      33.310 -20.915 -20.041  0.00  0.00    +0.314 C 
BRANCH  31  32
ATOM     32  O   UNL     1      32.359 -19.957 -20.197  0.00  0.00    -0.480 OA
ATOM     33  H   UNL     1      32.288 -19.496 -21.010  0.00  0.00    +0.295 HD
ENDBRANCH  31  32
ENDBRANCH  29  31
ENDBRANCH  28  29
ENDBRANCH  27  28
ENDBRANCH  26  27
ENDBRANCH  24  25
ENDBRANCH   1  24
TORSDOF 16
ENDMDL
MODEL 5
REMARK VINA RESULT:      -9.1      2.924      6.338
REMARK  Name = 6441712
REMARK  16 active torsions:
REMARK  status: ('A' for Active; 'I' for Inactive)
REMARK    1  A    between atoms: C_1  and  C_24
REMARK    2  A    between atoms: C_2  and  S_10
REMARK    3  A    between atoms: C_3  and  O_6
REMARK    4  A    between atoms: C_4  and  O_8
REMARK    5  A    between atoms: S_10  and  C_11
REMARK    6  A    between atoms: C_11  and  C_12
REMARK    7  A    between atoms: C_12  and  O_13
REMARK    8  A    between atoms: C_12  and  C_15
REMARK    9  A    between atoms: C_15  and  O_16
REMARK   10  A    between atoms: O_16  and  C_18
REMARK   11  A    between atoms: C_24  and  C_25
REMARK   12  A    between atoms: C_26  and  C_27
REMARK   13  A    between atoms: C_27  and  C_28
REMARK   14  A    between atoms: C_28  and  C_29
REMARK   15  A    between atoms: C_29  and  C_31
REMARK   16  A    between atoms: C_31  and  O_32
REMARK                            x       y       z     vdW  Elec       q    Type
REMARK                         _______ _______ _______ _____ _____    ______ ____
ROOT
ATOM      1  C   UNL     1      35.514 -22.819 -15.184  0.00  0.00    +0.044 C 
ATOM      2  C   UNL     1      35.539 -23.055 -16.701  0.00  0.00    +0.077 C 
ATOM      3  C   UNL     1      34.305 -23.658 -14.750  0.00  0.00    +0.114 C 
ATOM      4  C   UNL     1      34.057 -23.074 -17.107  0.00  0.00    +0.123 C 
ATOM      5  C   UNL     1      33.260 -23.361 -15.825  0.00  0.00    +0.059 C 
ENDROOT
BRANCH   3   6
ATOM      6  O   UNL     1      34.589 -25.052 -14.773  0.00  0.00    -0.384 OA
ATOM      7  H   UNL     1      34.390 -25.438 -13.906  0.00  0.00    +0.210 HD
ENDBRANCH   3   6
BRANCH   4   8
ATOM      8  O   UNL     1      33.825 -24.089 -18.077  0.00  0.00    -0.384 OA
ATOM      9  H   UNL     1      32.873 -24.263 -18.142  0.00  0.00    +0.210 HD
ENDBRANCH   4   8
BRANCH   2  10
ATOM     10  S   UNL     1      36.472 -21.776 -17.603  0.00  0.00    -0.136 S 
BRANCH  10  11
ATOM     11  C   UNL     1      35.409 -21.663 -19.060  0.00  0.00    +0.091 C 
BRANCH  11  12
ATOM     12  C   UNL     1      35.922 -20.711 -20.145  0.00  0.00    +0.165 C 
BRANCH  12  13
ATOM     13  O   UNL     1      36.965 -19.898 -19.604  0.00  0.00    -0.380 OA
ATOM     14  H   UNL     1      37.755 -20.441 -19.456  0.00  0.00    +0.211 HD
ENDBRANCH  12  13
BRANCH  12  15
ATOM     15  C   UNL     1      34.851 -19.821 -20.770  0.00  0.00    +0.235 C 
BRANCH  15  16
ATOM     16  O   UNL     1      35.366 -18.497 -20.885  0.00  0.00    -0.473 OA
BRANCH  16  18
ATOM     17 CL   UNL     1      34.245 -14.139 -23.274  0.00  0.00    -0.082 Cl
ATOM     18  C   UNL     1      35.133 -17.848 -22.066  0.00  0.00    +0.140 C 
ATOM     19  C   UNL     1      34.841 -16.484 -22.067  0.00  0.00    +0.048 C 
ATOM     20  C   UNL     1      35.190 -18.550 -23.271  0.00  0.00    +0.037 C 
ATOM     21  C   UNL     1      34.604 -15.821 -23.272  0.00  0.00    +0.061 C 
ATOM     22  C   UNL     1      34.954 -17.888 -24.476  0.00  0.00    +0.004 C 
ATOM     23  C   UNL     1      34.661 -16.524 -24.476  0.00  0.00    +0.012 C 
ENDBRANCH  16  18
ENDBRANCH  15  16
ENDBRANCH  12  15
ENDBRANCH  11  12
ENDBRANCH  10  11
ENDBRANCH   2  10
BRANCH   1  24
ATOM     24  C   UNL     1      36.815 -23.195 -14.487  0.00  0.00    +0.029 C 
BRANCH  24  25
ATOM     25  C   UNL     1      36.829 -23.114 -12.986  0.00  0.00    -0.031 C 
ATOM     26  C   UNL     1      36.967 -24.129 -12.120  0.00  0.00    -0.031 C 
BRANCH  26  27
ATOM     27  C   UNL     1      37.136 -25.560 -12.538  0.00  0.00    +0.026 C 
BRANCH  27  28
ATOM     28  C   UNL     1      38.586 -25.938 -12.874  0.00  0.00    +0.016 C 
BRANCH  28  29
ATOM     29  C   UNL     1      38.845 -26.141 -14.369  0.00  0.00    +0.110 C 
BRANCH  29  31
ATOM     30  O   UNL     1      40.809 -24.708 -14.230  0.00  0.00    -0.250 OA
ATOM     31  C   UNL     1      40.132 -25.512 -14.856  0.00  0.00    +0.314 C 
BRANCH  31  32
ATOM     32  O   UNL     1      40.442 -25.914 -16.116  0.00  0.00    -0.480 OA
ATOM     33  H   UNL     1      40.103 -26.722 -16.447  0.00  0.00    +0.295 HD
ENDBRANCH  31  32
ENDBRANCH  29  31
ENDBRANCH  28  29
ENDBRANCH  27  28
ENDBRANCH  26  27
ENDBRANCH  24  25
ENDBRANCH   1  24
TORSDOF 16
ENDMDL
MODEL 6
REMARK VINA RESULT:      -9.0      2.463      3.786
REMARK  Name = 6441712
REMARK  16 active torsions:
REMARK  status: ('A' for Active; 'I' for Inactive)
REMARK    1  A    between atoms: C_1  and  C_24
REMARK    2  A    between atoms: C_2  and  S_10
REMARK    3  A    between atoms: C_3  and  O_6
REMARK    4  A    between atoms: C_4  and  O_8
REMARK    5  A    between atoms: S_10  and  C_11
REMARK    6  A    between atoms: C_11  and  C_12
REMARK    7  A    between atoms: C_12  and  O_13
REMARK    8  A    between atoms: C_12  and  C_15
REMARK    9  A    between atoms: C_15  and  O_16
REMARK   10  A    between atoms: O_16  and  C_18
REMARK   11  A    between atoms: C_24  and  C_25
REMARK   12  A    between atoms: C_26  and  C_27
REMARK   13  A    between atoms: C_27  and  C_28
REMARK   14  A    between atoms: C_28  and  C_29
REMARK   15  A    between atoms: C_29  and  C_31
REMARK   16  A    between atoms: C_31  and  O_32
REMARK                            x       y       z     vdW  Elec       q    Type
REMARK                         _______ _______ _______ _____ _____    ______ ____
ROOT
ATOM      1  C   UNL     1      35.091 -23.445 -16.525  0.00  0.00    +0.044 C 
ATOM      2  C   UNL     1      35.371 -22.140 -17.283  0.00  0.00    +0.077 C 
ATOM      3  C   UNL     1      36.114 -23.379 -15.384  0.00  0.00    +0.114 C 
ATOM      4  C   UNL     1      36.900 -21.992 -17.233  0.00  0.00    +0.123 C 
ATOM      5  C   UNL     1      37.383 -22.875 -16.072  0.00  0.00    +0.059 C 
ENDROOT
BRANCH   3   6
ATOM      6  O   UNL     1      35.738 -22.436 -14.388  0.00  0.00    -0.384 OA
ATOM      7  H   UNL     1      36.067 -21.557 -14.632  0.00  0.00    +0.210 HD
ENDBRANCH   3   6
BRANCH   4   8
ATOM      8  O   UNL     1      37.256 -20.633 -17.009  0.00  0.00    -0.384 OA
ATOM      9  H   UNL     1      36.966 -20.364 -16.124  0.00  0.00    +0.210 HD
ENDBRANCH   4   8
BRANCH   2  10
ATOM     10  S   UNL     1      34.749 -22.165 -18.995  0.00  0.00    -0.136 S 
BRANCH  10  11
ATOM     11  C   UNL     1      36.289 -21.736 -19.834  0.00  0.00    +0.091 C 
BRANCH  11  12
ATOM     12  C   UNL     1      36.254 -20.396 -20.577  0.00  0.00    +0.165 C 
BRANCH  12  13
ATOM     13  O   UNL     1      36.898 -19.400 -19.781  0.00  0.00    -0.380 OA
ATOM     14  H   UNL     1      36.874 -19.665 -18.849  0.00  0.00    +0.211 HD
ENDBRANCH  12  13
BRANCH  12  15
ATOM     15  C   UNL     1      34.857 -19.918 -20.964  0.00  0.00    +0.235 C 
BRANCH  15  16
ATOM     16  O   UNL     1      34.857 -19.572 -22.346  0.00  0.00    -0.473 OA
BRANCH  16  18
ATOM     17 CL   UNL     1      34.489 -14.776 -20.666  0.00  0.00    -0.082 Cl
ATOM     18  C   UNL     1      34.805 -18.238 -22.645  0.00  0.00    +0.140 C 
ATOM     19  C   UNL     1      34.687 -17.297 -21.622  0.00  0.00    +0.048 C 
ATOM     20  C   UNL     1      34.872 -17.818 -23.974  0.00  0.00    +0.037 C 
ATOM     21  C   UNL     1      34.634 -15.937 -21.927  0.00  0.00    +0.061 C 
ATOM     22  C   UNL     1      34.820 -16.458 -24.280  0.00  0.00    +0.004 C 
ATOM     23  C   UNL     1      34.701 -15.518 -23.256  0.00  0.00    +0.012 C 
ENDBRANCH  16  18
ENDBRANCH  15  16
ENDBRANCH  12  15
ENDBRANCH  11  12
ENDBRANCH  10  11
ENDBRANCH   2  10
BRANCH   1  24
ATOM     24  C   UNL     1      33.647 -23.582 -16.059  0.00  0.00    +0.029 C 
BRANCH  24  25
ATOM     25  C   UNL     1      32.580 -23.102 -17.005  0.00  0.00    -0.031 C 
ATOM     26  C   UNL     1      31.295 -22.848 -16.715  0.00  0.00    -0.031 C 
BRANCH  26  27
ATOM     27  C   UNL     1      30.704 -23.010 -15.346  0.00  0.00    +0.026 C 
BRANCH  27  28
ATOM     28  C   UNL     1      29.269 -23.555 -15.353  0.00  0.00    +0.016 C 
BRANCH  28  29
ATOM     29  C   UNL     1      28.202 -22.494 -15.639  0.00  0.00    +0.110 C 
BRANCH  29  31
ATOM     30  O   UNL     1      27.612 -23.584 -17.736  0.00  0.00    -0.250 OA
ATOM     31  C   UNL     1      27.611 -22.586 -17.029  0.00  0.00    +0.314 C 
BRANCH  31  32
ATOM     32  O   UNL     1      27.099 -21.394 -17.436  0.00  0.00    -0.480 OA
ATOM     33  H   UNL     1      26.276 -21.366 -17.882  0.00  0.00    +0.295 HD
ENDBRANCH  31  32
ENDBRANCH  29  31
ENDBRANCH  28  29
ENDBRANCH  27  28
ENDBRANCH  26  27
ENDBRANCH  24  25
ENDBRANCH   1  24
TORSDOF 16
ENDMDL
MODEL 7
REMARK VINA RESULT:      -9.0      7.716     11.402
REMARK  Name = 6441712
REMARK  16 active torsions:
REMARK  status: ('A' for Active; 'I' for Inactive)
REMARK    1  A    between atoms: C_1  and  C_24
REMARK    2  A    between atoms: C_2  and  S_10
REMARK    3  A    between atoms: C_3  and  O_6
REMARK    4  A    between atoms: C_4  and  O_8
REMARK    5  A    between atoms: S_10  and  C_11
REMARK    6  A    between atoms: C_11  and  C_12
REMARK    7  A    between atoms: C_12  and  O_13
REMARK    8  A    between atoms: C_12  and  C_15
REMARK    9  A    between atoms: C_15  and  O_16
REMARK   10  A    between atoms: O_16  and  C_18
REMARK   11  A    between atoms: C_24  and  C_25
REMARK   12  A    between atoms: C_26  and  C_27
REMARK   13  A    between atoms: C_27  and  C_28
REMARK   14  A    between atoms: C_28  and  C_29
REMARK   15  A    between atoms: C_29  and  C_31
REMARK   16  A    between atoms: C_31  and  O_32
REMARK                            x       y       z     vdW  Elec       q    Type
REMARK                         _______ _______ _______ _____ _____    ______ ____
ROOT
ATOM      1  C   UNL     1      34.543 -16.133 -22.421  0.00  0.00    +0.044 C 
ATOM      2  C   UNL     1      33.597 -15.322 -23.318  0.00  0.00    +0.077 C 
ATOM      3  C   UNL     1      34.047 -15.765 -21.017  0.00  0.00    +0.114 C 
ATOM      4  C   UNL     1      33.413 -13.992 -22.570  0.00  0.00    +0.123 C 
ATOM      5  C   UNL     1      33.805 -14.259 -21.108  0.00  0.00    +0.059 C 
ENDROOT
BRANCH   3   6
ATOM      6  O   UNL     1      32.814 -16.401 -20.705  0.00  0.00    -0.384 OA
ATOM      7  H   UNL     1      32.985 -17.204 -20.188  0.00  0.00    +0.210 HD
ENDBRANCH   3   6
BRANCH   4   8
ATOM      8  O   UNL     1      32.060 -13.563 -22.654  0.00  0.00    -0.384 OA
ATOM      9  H   UNL     1      31.998 -12.632 -22.387  0.00  0.00    +0.210 HD
ENDBRANCH   4   8
BRANCH   2  10
ATOM     10  S   UNL     1      34.254 -15.069 -24.998  0.00  0.00    -0.136 S 
BRANCH  10  11
ATOM     11  C   UNL     1      32.837 -14.197 -25.699  0.00  0.00    +0.091 C 
BRANCH  11  12
ATOM     12  C   UNL     1      33.204 -13.037 -26.630  0.00  0.00    +0.165 C 
BRANCH  12  13
ATOM     13  O   UNL     1      33.939 -13.543 -27.745  0.00  0.00    -0.380 OA
ATOM     14  H   UNL     1      34.885 -13.557 -27.530  0.00  0.00    +0.211 HD
ENDBRANCH  12  13
BRANCH  12  15
ATOM     15  C   UNL     1      33.992 -11.911 -25.966  0.00  0.00    +0.235 C 
BRANCH  15  16
ATOM     16  O   UNL     1      33.468 -11.693 -24.659  0.00  0.00    -0.473 OA
BRANCH  16  18
ATOM     17 CL   UNL     1      31.822  -8.074 -21.473  0.00  0.00    -0.082 Cl
ATOM     18  C   UNL     1      33.651 -10.448 -24.123  0.00  0.00    +0.140 C 
ATOM     19  C   UNL     1      32.747  -9.954 -23.182  0.00  0.00    +0.048 C 
ATOM     20  C   UNL     1      34.742  -9.672 -24.517  0.00  0.00    +0.037 C 
ATOM     21  C   UNL     1      32.934  -8.684 -22.635  0.00  0.00    +0.061 C 
ATOM     22  C   UNL     1      34.929  -8.403 -23.970  0.00  0.00    +0.004 C 
ATOM     23  C   UNL     1      34.025  -7.909 -23.029  0.00  0.00    +0.012 C 
ENDBRANCH  16  18
ENDBRANCH  15  16
ENDBRANCH  12  15
ENDBRANCH  11  12
ENDBRANCH  10  11
ENDBRANCH   2  10
BRANCH   1  24
ATOM     24  C   UNL     1      34.527 -17.628 -22.714  0.00  0.00    +0.029 C 
BRANCH  24  25
ATOM     25  C   UNL     1      35.271 -18.516 -21.755  0.00  0.00    -0.031 C 
ATOM     26  C   UNL     1      34.754 -19.466 -20.961  0.00  0.00    -0.031 C 
BRANCH  26  27
ATOM     27  C   UNL     1      33.292 -19.799 -20.909  0.00  0.00    +0.026 C 
BRANCH  27  28
ATOM     28  C   UNL     1      32.929 -20.816 -19.818  0.00  0.00    +0.016 C 
BRANCH  28  29
ATOM     29  C   UNL     1      34.087 -21.732 -19.412  0.00  0.00    +0.110 C 
BRANCH  29  31
ATOM     30  O   UNL     1      34.598 -23.229 -17.559  0.00  0.00    -0.250 OA
ATOM     31  C   UNL     1      33.772 -22.624 -18.231  0.00  0.00    +0.314 C 
BRANCH  31  32
ATOM     32  O   UNL     1      32.434 -22.718 -18.014  0.00  0.00    -0.480 OA
ATOM     33  H   UNL     1      32.025 -23.559 -17.968  0.00  0.00    +0.295 HD
ENDBRANCH  31  32
ENDBRANCH  29  31
ENDBRANCH  28  29
ENDBRANCH  27  28
ENDBRANCH  26  27
ENDBRANCH  24  25
ENDBRANCH   1  24
TORSDOF 16
ENDMDL
MODEL 8
REMARK VINA RESULT:      -9.0      7.332     11.800
REMARK  Name = 6441712
REMARK  16 active torsions:
REMARK  status: ('A' for Active; 'I' for Inactive)
REMARK    1  A    between atoms: C_1  and  C_24
REMARK    2  A    between atoms: C_2  and  S_10
REMARK    3  A    between atoms: C_3  and  O_6
REMARK    4  A    between atoms: C_4  and  O_8
REMARK    5  A    between atoms: S_10  and  C_11
REMARK    6  A    between atoms: C_11  and  C_12
REMARK    7  A    between atoms: C_12  and  O_13
REMARK    8  A    between atoms: C_12  and  C_15
REMARK    9  A    between atoms: C_15  and  O_16
REMARK   10  A    between atoms: O_16  and  C_18
REMARK   11  A    between atoms: C_24  and  C_25
REMARK   12  A    between atoms: C_26  and  C_27
REMARK   13  A    between atoms: C_27  and  C_28
REMARK   14  A    between atoms: C_28  and  C_29
REMARK   15  A    between atoms: C_29  and  C_31
REMARK   16  A    between atoms: C_31  and  O_32
REMARK                            x       y       z     vdW  Elec       q    Type
REMARK                         _______ _______ _______ _____ _____    ______ ____
ROOT
ATOM      1  C   UNL     1      32.364 -13.614 -22.402  0.00  0.00    +0.044 C 
ATOM      2  C   UNL     1      33.813 -14.118 -22.331  0.00  0.00    +0.077 C 
ATOM      3  C   UNL     1      31.985 -13.521 -20.918  0.00  0.00    +0.114 C 
ATOM      4  C   UNL     1      33.809 -15.124 -21.170  0.00  0.00    +0.123 C 
ATOM      5  C   UNL     1      32.570 -14.801 -20.321  0.00  0.00    +0.059 C 
ENDROOT
BRANCH   3   6
ATOM      6  O   UNL     1      32.598 -12.407 -20.281  0.00  0.00    -0.384 OA
ATOM      7  H   UNL     1      31.998 -11.646 -20.312  0.00  0.00    +0.210 HD
ENDBRANCH   3   6
BRANCH   4   8
ATOM      8  O   UNL     1      34.995 -14.989 -20.397  0.00  0.00    -0.384 OA
ATOM      9  H   UNL     1      34.826 -15.288 -19.490  0.00  0.00    +0.210 HD
ENDBRANCH   4   8
BRANCH   2  10
ATOM     10  S   UNL     1      34.376 -14.880 -23.887  0.00  0.00    -0.136 S 
BRANCH  10  11
ATOM     11  C   UNL     1      34.252 -16.610 -23.385  0.00  0.00    +0.091 C 
BRANCH  11  12
ATOM     12  C   UNL     1      34.949 -17.595 -24.328  0.00  0.00    +0.165 C 
BRANCH  12  13
ATOM     13  O   UNL     1      34.150 -17.770 -25.500  0.00  0.00    -0.380 OA
ATOM     14  H   UNL     1      34.243 -16.994 -26.074  0.00  0.00    +0.211 HD
ENDBRANCH  12  13
BRANCH  12  15
ATOM     15  C   UNL     1      35.260 -18.957 -23.713  0.00  0.00    +0.235 C 
BRANCH  15  16
ATOM     16  O   UNL     1      35.607 -18.773 -22.344  0.00  0.00    -0.473 OA
BRANCH  16  18
ATOM     17 CL   UNL     1      35.912 -22.087 -18.486  0.00  0.00    -0.082 Cl
ATOM     18  C   UNL     1      34.954 -19.557 -21.433  0.00  0.00    +0.140 C 
ATOM     19  C   UNL     1      35.682 -20.332 -20.530  0.00  0.00    +0.048 C 
ATOM     20  C   UNL     1      33.558 -19.582 -21.407  0.00  0.00    +0.037 C 
ATOM     21  C   UNL     1      35.016 -21.132 -19.601  0.00  0.00    +0.061 C 
ATOM     22  C   UNL     1      32.892 -20.381 -20.478  0.00  0.00    +0.004 C 
ATOM     23  C   UNL     1      33.621 -21.156 -19.575  0.00  0.00    +0.012 C 
ENDBRANCH  16  18
ENDBRANCH  15  16
ENDBRANCH  12  15
ENDBRANCH  11  12
ENDBRANCH  10  11
ENDBRANCH   2  10
BRANCH   1  24
ATOM     24  C   UNL     1      32.211 -12.305 -23.166  0.00  0.00    +0.029 C 
BRANCH  24  25
ATOM     25  C   UNL     1      33.474 -11.657 -23.663  0.00  0.00    -0.031 C 
ATOM     26  C   UNL     1      33.669 -10.356 -23.925  0.00  0.00    -0.031 C 
BRANCH  26  27
ATOM     27  C   UNL     1      32.610  -9.306 -23.752  0.00  0.00    +0.026 C 
BRANCH  27  28
ATOM     28  C   UNL     1      32.698  -8.556 -22.416  0.00  0.00    +0.016 C 
BRANCH  28  29
ATOM     29  C   UNL     1      31.806  -9.138 -21.315  0.00  0.00    +0.110 C 
BRANCH  29  31
ATOM     30  O   UNL     1      32.209  -9.725 -18.986  0.00  0.00    -0.250 OA
ATOM     31  C   UNL     1      32.358  -8.948 -19.919  0.00  0.00    +0.314 C 
BRANCH  31  32
ATOM     32  O   UNL     1      33.019  -7.767 -19.798  0.00  0.00    -0.480 OA
ATOM     33  H   UNL     1      33.668  -7.527 -20.430  0.00  0.00    +0.295 HD
ENDBRANCH  31  32
ENDBRANCH  29  31
ENDBRANCH  28  29
ENDBRANCH  27  28
ENDBRANCH  26  27
ENDBRANCH  24  25
ENDBRANCH   1  24
TORSDOF 16
ENDMDL
MODEL 9
REMARK VINA RESULT:      -9.0      2.256      5.901
REMARK  Name = 6441712
REMARK  16 active torsions:
REMARK  status: ('A' for Active; 'I' for Inactive)
REMARK    1  A    between atoms: C_1  and  C_24
REMARK    2  A    between atoms: C_2  and  S_10
REMARK    3  A    between atoms: C_3  and  O_6
REMARK    4  A    between atoms: C_4  and  O_8
REMARK    5  A    between atoms: S_10  and  C_11
REMARK    6  A    between atoms: C_11  and  C_12
REMARK    7  A    between atoms: C_12  and  O_13
REMARK    8  A    between atoms: C_12  and  C_15
REMARK    9  A    between atoms: C_15  and  O_16
REMARK   10  A    between atoms: O_16  and  C_18
REMARK   11  A    between atoms: C_24  and  C_25
REMARK   12  A    between atoms: C_26  and  C_27
REMARK   13  A    between atoms: C_27  and  C_28
REMARK   14  A    between atoms: C_28  and  C_29
REMARK   15  A    between atoms: C_29  and  C_31
REMARK   16  A    between atoms: C_31  and  O_32
REMARK                            x       y       z     vdW  Elec       q    Type
REMARK                         _______ _______ _______ _____ _____    ______ ____
ROOT
ATOM      1  C   UNL     1      33.307 -23.522 -14.118  0.00  0.00    +0.044 C 
ATOM      2  C   UNL     1      32.807 -23.883 -15.524  0.00  0.00    +0.077 C 
ATOM      3  C   UNL     1      32.000 -23.467 -13.318  0.00  0.00    +0.114 C 
ATOM      4  C   UNL     1      31.499 -23.090 -15.677  0.00  0.00    +0.123 C 
ATOM      5  C   UNL     1      31.039 -22.735 -14.255  0.00  0.00    +0.059 C 
ENDROOT
BRANCH   3   6
ATOM      6  O   UNL     1      31.477 -24.765 -13.063  0.00  0.00    -0.384 OA
ATOM      7  H   UNL     1      32.207 -25.398 -12.978  0.00  0.00    +0.210 HD
ENDBRANCH   3   6
BRANCH   4   8
ATOM      8  O   UNL     1      30.518 -23.881 -16.337  0.00  0.00    -0.384 OA
ATOM      9  H   UNL     1      29.864 -23.301 -16.757  0.00  0.00    +0.210 HD
ENDBRANCH   4   8
BRANCH   2  10
ATOM     10  S   UNL     1      34.006 -23.471 -16.832  0.00  0.00    -0.136 S 
BRANCH  10  11
ATOM     11  C   UNL     1      35.294 -22.761 -15.783  0.00  0.00    +0.091 C 
BRANCH  11  12
ATOM     12  C   UNL     1      36.654 -22.604 -16.470  0.00  0.00    +0.165 C 
BRANCH  12  13
ATOM     13  O   UNL     1      37.666 -22.429 -15.477  0.00  0.00    -0.380 OA
ATOM     14  H   UNL     1      37.261 -22.442 -14.596  0.00  0.00    +0.211 HD
ENDBRANCH  12  13
BRANCH  12  15
ATOM     15  C   UNL     1      36.729 -21.464 -17.483  0.00  0.00    +0.235 C 
BRANCH  15  16
ATOM     16  O   UNL     1      36.405 -21.975 -18.773  0.00  0.00    -0.473 OA
BRANCH  16  18
ATOM     17 CL   UNL     1      36.156 -18.286 -22.278  0.00  0.00    -0.082 Cl
ATOM     18  C   UNL     1      35.625 -21.182 -19.570  0.00  0.00    +0.140 C 
ATOM     19  C   UNL     1      36.219 -20.247 -20.418  0.00  0.00    +0.048 C 
ATOM     20  C   UNL     1      34.236 -21.309 -19.535  0.00  0.00    +0.037 C 
ATOM     21  C   UNL     1      35.425 -19.438 -21.231  0.00  0.00    +0.061 C 
ATOM     22  C   UNL     1      33.441 -20.500 -20.348  0.00  0.00    +0.004 C 
ATOM     23  C   UNL     1      34.036 -19.566 -21.196  0.00  0.00    +0.012 C 
ENDBRANCH  16  18
ENDBRANCH  15  16
ENDBRANCH  12  15
ENDBRANCH  11  12
ENDBRANCH  10  11
ENDBRANCH   2  10
BRANCH   1  24
ATOM     24  C   UNL     1      34.333 -24.504 -13.566  0.00  0.00    +0.029 C 
BRANCH  24  25
ATOM     25  C   UNL     1      35.176 -24.028 -12.415  0.00  0.00    -0.031 C 
ATOM     26  C   UNL     1      36.319 -24.571 -11.969  0.00  0.00    -0.031 C 
BRANCH  26  27
ATOM     27  C   UNL     1      36.956 -25.786 -12.578  0.00  0.00    +0.026 C 
BRANCH  27  28
ATOM     28  C   UNL     1      38.423 -25.579 -12.978  0.00  0.00    +0.016 C 
BRANCH  28  29
ATOM     29  C   UNL     1      38.687 -25.735 -14.479  0.00  0.00    +0.110 C 
BRANCH  29  31
ATOM     30  O   UNL     1      40.934 -24.834 -14.206  0.00  0.00    -0.250 OA
ATOM     31  C   UNL     1      40.118 -25.451 -14.879  0.00  0.00    +0.314 C 
BRANCH  31  32
ATOM     32  O   UNL     1      40.398 -25.932 -16.118  0.00  0.00    -0.480 OA
ATOM     33  H   UNL     1      41.260 -26.241 -16.317  0.00  0.00    +0.295 HD
ENDBRANCH  31  32
ENDBRANCH  29  31
ENDBRANCH  28  29
ENDBRANCH  27  28
ENDBRANCH  26  27
ENDBRANCH  24  25
ENDBRANCH   1  24
TORSDOF 16
ENDMDL
