MODEL 1
REMARK VINA RESULT:      -7.5      0.000      0.000
REMARK  Name = 6914579
REMARK  7 active torsions:
REMARK  status: ('A' for Active; 'I' for Inactive)
REMARK    1  A    between atoms: N_2  and  C_7
REMARK    2  A    between atoms: C_3  and  C_11
REMARK    3  A    between atoms: C_11  and  C_12
REMARK    4  A    between atoms: C_12  and  C_13
REMARK    5  A    between atoms: C_13  and  C_14
REMARK    6  A    between atoms: C_14  and  C_15
REMARK    7  A    between atoms: C_15  and  C_16
REMARK                            x       y       z     vdW  Elec       q    Type
REMARK                         _______ _______ _______ _____ _____    ______ ____
ROOT
ATOM      1  O   UNL     1      35.895 -22.592 -15.051  0.00  0.00    -0.275 OA
ATOM      2  N   UNL     1      37.883 -23.606 -15.700  0.00  0.00    -0.297 N 
ATOM      3  C   UNL     1      36.876 -22.656 -15.788  0.00  0.00    +0.223 C 
ATOM      4  H   UNL     1      38.626 -23.565 -16.345  0.00  0.00    +0.150 HD
ENDROOT
BRANCH   2   7
ATOM      5  O   UNL     1      39.010 -26.695 -14.516  0.00  0.00    -0.447 OA
ATOM      6  O   UNL     1      40.315 -24.835 -14.828  0.00  0.00    -0.248 OA
ATOM      7  C   UNL     1      37.887 -24.644 -14.717  0.00  0.00    +0.175 C 
ATOM      8  C   UNL     1      36.933 -25.771 -15.033  0.00  0.00    +0.078 C 
ATOM      9  C   UNL     1      37.608 -26.952 -14.384  0.00  0.00    +0.211 C 
ATOM     10  C   UNL     1      39.215 -25.355 -14.714  0.00  0.00    +0.335 C 
ENDBRANCH   2   7
BRANCH   3  11
ATOM     11  C   UNL     1      37.127 -21.680 -16.925  0.00  0.00    +0.085 C 
BRANCH  11  12
ATOM     12  C   UNL     1      36.073 -21.781 -18.025  0.00  0.00    +0.010 C 
BRANCH  12  13
ATOM     13  C   UNL     1      36.621 -21.297 -19.367  0.00  0.00    +0.001 C 
BRANCH  13  14
ATOM     14  C   UNL     1      35.493 -20.852 -20.302  0.00  0.00    +0.000 C 
BRANCH  14  15
ATOM     15  C   UNL     1      34.125 -21.267 -19.757  0.00  0.00    +0.000 C 
BRANCH  15  16
ATOM     16  C   UNL     1      32.984 -20.363 -20.228  0.00  0.00    +0.000 C 
ATOM     17  C   UNL     1      33.453 -19.169 -21.044  0.00  0.00    +0.000 C 
ENDBRANCH  15  16
ENDBRANCH  14  15
ENDBRANCH  13  14
ENDBRANCH  12  13
ENDBRANCH  11  12
ENDBRANCH   3  11
TORSDOF 7
ENDMDL
MODEL 2
REMARK VINA RESULT:      -7.5      8.278     11.726
REMARK  Name = 6914579
REMARK  7 active torsions:
REMARK  status: ('A' for Active; 'I' for Inactive)
REMARK    1  A    between atoms: N_2  and  C_7
REMARK    2  A    between atoms: C_3  and  C_11
REMARK    3  A    between atoms: C_11  and  C_12
REMARK    4  A    between atoms: C_12  and  C_13
REMARK    5  A    between atoms: C_13  and  C_14
REMARK    6  A    between atoms: C_14  and  C_15
REMARK    7  A    between atoms: C_15  and  C_16
REMARK                            x       y       z     vdW  Elec       q    Type
REMARK                         _______ _______ _______ _____ _____    ______ ____
ROOT
ATOM      1  O   UNL     1      32.279 -14.907 -22.020  0.00  0.00    -0.275 OA
ATOM      2  N   UNL     1      34.010 -14.749 -23.563  0.00  0.00    -0.297 N 
ATOM      3  C   UNL     1      33.476 -14.927 -22.295  0.00  0.00    +0.223 C 
ATOM      4  H   UNL     1      34.988 -14.784 -23.671  0.00  0.00    +0.150 HD
ENDROOT
BRANCH   2   7
ATOM      5  O   UNL     1      33.514 -14.850 -27.021  0.00  0.00    -0.447 OA
ATOM      6  O   UNL     1      33.805 -16.678 -25.666  0.00  0.00    -0.248 OA
ATOM      7  C   UNL     1      33.202 -14.514 -24.720  0.00  0.00    +0.175 C 
ATOM      8  C   UNL     1      33.485 -13.188 -25.385  0.00  0.00    +0.078 C 
ATOM      9  C   UNL     1      33.152 -13.479 -26.826  0.00  0.00    +0.211 C 
ATOM     10  C   UNL     1      33.556 -15.490 -25.810  0.00  0.00    +0.335 C 
ENDBRANCH   2   7
BRANCH   3  11
ATOM     11  C   UNL     1      34.564 -15.155 -21.259  0.00  0.00    +0.085 C 
BRANCH  11  12
ATOM     12  C   UNL     1      34.784 -16.637 -20.960  0.00  0.00    +0.010 C 
BRANCH  12  13
ATOM     13  C   UNL     1      35.253 -17.391 -22.203  0.00  0.00    +0.001 C 
BRANCH  13  14
ATOM     14  C   UNL     1      34.797 -18.852 -22.174  0.00  0.00    +0.000 C 
BRANCH  14  15
ATOM     15  C   UNL     1      35.296 -19.564 -20.916  0.00  0.00    +0.000 C 
BRANCH  15  16
ATOM     16  C   UNL     1      34.264 -20.517 -20.308  0.00  0.00    +0.000 C 
ATOM     17  C   UNL     1      32.827 -20.060 -20.501  0.00  0.00    +0.000 C 
ENDBRANCH  15  16
ENDBRANCH  14  15
ENDBRANCH  13  14
ENDBRANCH  12  13
ENDBRANCH  11  12
ENDBRANCH   3  11
TORSDOF 7
ENDMDL
MODEL 3
REMARK VINA RESULT:      -7.4      5.031      7.120
REMARK  Name = 6914579
REMARK  7 active torsions:
REMARK  status: ('A' for Active; 'I' for Inactive)
REMARK    1  A    between atoms: N_2  and  C_7
REMARK    2  A    between atoms: C_3  and  C_11
REMARK    3  A    between atoms: C_11  and  C_12
REMARK    4  A    between atoms: C_12  and  C_13
REMARK    5  A    between atoms: C_13  and  C_14
REMARK    6  A    between atoms: C_14  and  C_15
REMARK    7  A    between atoms: C_15  and  C_16
REMARK                            x       y       z     vdW  Elec       q    Type
REMARK                         _______ _______ _______ _____ _____    ______ ____
ROOT
ATOM      1  O   UNL     1      35.317 -17.661 -20.718  0.00  0.00    -0.275 OA
ATOM      2  N   UNL     1      35.081 -19.886 -21.348  0.00  0.00    -0.297 N 
ATOM      3  C   UNL     1      35.361 -18.545 -21.570  0.00  0.00    +0.223 C 
ATOM      4  H   UNL     1      35.147 -20.512 -22.105  0.00  0.00    +0.150 HD
ENDROOT
BRANCH   2   7
ATOM      5  O   UNL     1      34.884 -22.494 -19.031  0.00  0.00    -0.447 OA
ATOM      6  O   UNL     1      36.825 -21.564 -19.823  0.00  0.00    -0.248 OA
ATOM      7  C   UNL     1      34.699 -20.398 -20.069  0.00  0.00    +0.175 C 
ATOM      8  C   UNL     1      33.352 -21.081 -20.077  0.00  0.00    +0.078 C 
ATOM      9  C   UNL     1      33.507 -22.103 -18.981  0.00  0.00    +0.211 C 
ATOM     10  C   UNL     1      35.615 -21.522 -19.662  0.00  0.00    +0.335 C 
ENDBRANCH   2   7
BRANCH   3  11
ATOM     11  C   UNL     1      35.736 -18.286 -23.019  0.00  0.00    +0.085 C 
BRANCH  11  12
ATOM     12  C   UNL     1      34.943 -19.155 -23.993  0.00  0.00    +0.010 C 
BRANCH  12  13
ATOM     13  C   UNL     1      34.236 -18.305 -25.048  0.00  0.00    +0.001 C 
BRANCH  13  14
ATOM     14  C   UNL     1      34.818 -16.890 -25.106  0.00  0.00    +0.000 C 
BRANCH  14  15
ATOM     15  C   UNL     1      33.747 -15.865 -25.483  0.00  0.00    +0.000 C 
BRANCH  15  16
ATOM     16  C   UNL     1      33.477 -14.837 -24.383  0.00  0.00    +0.000 C 
ATOM     17  C   UNL     1      34.464 -14.909 -23.228  0.00  0.00    +0.000 C 
ENDBRANCH  15  16
ENDBRANCH  14  15
ENDBRANCH  13  14
ENDBRANCH  12  13
ENDBRANCH  11  12
ENDBRANCH   3  11
TORSDOF 7
ENDMDL
MODEL 4
REMARK VINA RESULT:      -7.4      4.580      6.079
REMARK  Name = 6914579
REMARK  7 active torsions:
REMARK  status: ('A' for Active; 'I' for Inactive)
REMARK    1  A    between atoms: N_2  and  C_7
REMARK    2  A    between atoms: C_3  and  C_11
REMARK    3  A    between atoms: C_11  and  C_12
REMARK    4  A    between atoms: C_12  and  C_13
REMARK    5  A    between atoms: C_13  and  C_14
REMARK    6  A    between atoms: C_14  and  C_15
REMARK    7  A    between atoms: C_15  and  C_16
REMARK                            x       y       z     vdW  Elec       q    Type
REMARK                         _______ _______ _______ _____ _____    ______ ____
ROOT
ATOM      1  O   UNL     1      34.228 -23.761 -17.431  0.00  0.00    -0.275 OA
ATOM      2  N   UNL     1      32.169 -22.697 -17.600  0.00  0.00    -0.297 N 
ATOM      3  C   UNL     1      33.475 -22.964 -17.984  0.00  0.00    +0.223 C 
ATOM      4  H   UNL     1      31.652 -22.036 -18.115  0.00  0.00    +0.150 HD
ENDROOT
BRANCH   2   7
ATOM      5  O   UNL     1      29.926 -22.671 -14.920  0.00  0.00    -0.447 OA
ATOM      6  O   UNL     1      29.355 -22.475 -17.133  0.00  0.00    -0.248 OA
ATOM      7  C   UNL     1      31.541 -23.338 -16.486  0.00  0.00    +0.175 C 
ATOM      8  C   UNL     1      32.215 -23.039 -15.168  0.00  0.00    +0.078 C 
ATOM      9  C   UNL     1      31.069 -23.138 -14.194  0.00  0.00    +0.211 C 
ATOM     10  C   UNL     1      30.164 -22.770 -16.266  0.00  0.00    +0.335 C 
ENDBRANCH   2   7
BRANCH   3  11
ATOM     11  C   UNL     1      33.880 -22.139 -19.195  0.00  0.00    +0.085 C 
BRANCH  11  12
ATOM     12  C   UNL     1      32.907 -20.996 -19.474  0.00  0.00    +0.010 C 
BRANCH  12  13
ATOM     13  C   UNL     1      33.442 -20.062 -20.559  0.00  0.00    +0.001 C 
BRANCH  13  14
ATOM     14  C   UNL     1      34.968 -20.137 -20.655  0.00  0.00    +0.000 C 
BRANCH  14  15
ATOM     15  C   UNL     1      35.539 -18.911 -21.371  0.00  0.00    +0.000 C 
BRANCH  15  16
ATOM     16  C   UNL     1      34.665 -18.422 -22.528  0.00  0.00    +0.000 C 
ATOM     17  C   UNL     1      34.962 -19.114 -23.849  0.00  0.00    +0.000 C 
ENDBRANCH  15  16
ENDBRANCH  14  15
ENDBRANCH  13  14
ENDBRANCH  12  13
ENDBRANCH  11  12
ENDBRANCH   3  11
TORSDOF 7
ENDMDL
MODEL 5
REMARK VINA RESULT:      -7.2      8.881     12.044
REMARK  Name = 6914579
REMARK  7 active torsions:
REMARK  status: ('A' for Active; 'I' for Inactive)
REMARK    1  A    between atoms: N_2  and  C_7
REMARK    2  A    between atoms: C_3  and  C_11
REMARK    3  A    between atoms: C_11  and  C_12
REMARK    4  A    between atoms: C_12  and  C_13
REMARK    5  A    between atoms: C_13  and  C_14
REMARK    6  A    between atoms: C_14  and  C_15
REMARK    7  A    between atoms: C_15  and  C_16
REMARK                            x       y       z     vdW  Elec       q    Type
REMARK                         _______ _______ _______ _____ _____    ______ ____
ROOT
ATOM      1  O   UNL     1      33.068 -15.670 -26.153  0.00  0.00    -0.275 OA
ATOM      2  N   UNL     1      33.741 -15.160 -23.988  0.00  0.00    -0.297 N 
ATOM      3  C   UNL     1      33.803 -15.856 -25.186  0.00  0.00    +0.223 C 
ATOM      4  H   UNL     1      34.381 -15.391 -23.276  0.00  0.00    +0.150 HD
ENDROOT
BRANCH   2   7
ATOM      5  O   UNL     1      32.954 -11.874 -23.095  0.00  0.00    -0.447 OA
ATOM      6  O   UNL     1      34.130 -12.499 -24.963  0.00  0.00    -0.248 OA
ATOM      7  C   UNL     1      32.787 -14.124 -23.740  0.00  0.00    +0.175 C 
ATOM      8  C   UNL     1      32.415 -13.992 -22.282  0.00  0.00    +0.078 C 
ATOM      9  C   UNL     1      32.076 -12.528 -22.172  0.00  0.00    +0.211 C 
ATOM     10  C   UNL     1      33.394 -12.777 -24.028  0.00  0.00    +0.335 C 
ENDBRANCH   2   7
BRANCH   3  11
ATOM     11  C   UNL     1      34.908 -16.898 -25.170  0.00  0.00    +0.085 C 
BRANCH  11  12
ATOM     12  C   UNL     1      34.370 -18.318 -25.008  0.00  0.00    +0.010 C 
BRANCH  12  13
ATOM     13  C   UNL     1      35.044 -19.039 -23.841  0.00  0.00    +0.001 C 
BRANCH  13  14
ATOM     14  C   UNL     1      34.572 -18.483 -22.495  0.00  0.00    +0.000 C 
BRANCH  14  15
ATOM     15  C   UNL     1      34.606 -19.560 -21.408  0.00  0.00    +0.000 C 
BRANCH  15  16
ATOM     16  C   UNL     1      33.240 -19.824 -20.773  0.00  0.00    +0.000 C 
ATOM     17  C   UNL     1      33.243 -20.979 -19.783  0.00  0.00    +0.000 C 
ENDBRANCH  15  16
ENDBRANCH  14  15
ENDBRANCH  13  14
ENDBRANCH  12  13
ENDBRANCH  11  12
ENDBRANCH   3  11
TORSDOF 7
ENDMDL
MODEL 6
REMARK VINA RESULT:      -7.2      2.048      2.524
REMARK  Name = 6914579
REMARK  7 active torsions:
REMARK  status: ('A' for Active; 'I' for Inactive)
REMARK    1  A    between atoms: N_2  and  C_7
REMARK    2  A    between atoms: C_3  and  C_11
REMARK    3  A    between atoms: C_11  and  C_12
REMARK    4  A    between atoms: C_12  and  C_13
REMARK    5  A    between atoms: C_13  and  C_14
REMARK    6  A    between atoms: C_14  and  C_15
REMARK    7  A    between atoms: C_15  and  C_16
REMARK                            x       y       z     vdW  Elec       q    Type
REMARK                         _______ _______ _______ _____ _____    ______ ____
ROOT
ATOM      1  O   UNL     1      35.750 -22.484 -15.511  0.00  0.00    -0.275 OA
ATOM      2  N   UNL     1      35.322 -24.765 -15.385  0.00  0.00    -0.297 N 
ATOM      3  C   UNL     1      35.018 -23.450 -15.709  0.00  0.00    +0.223 C 
ATOM      4  H   UNL     1      34.660 -25.464 -15.588  0.00  0.00    +0.150 HD
ENDROOT
BRANCH   2   7
ATOM      5  O   UNL     1      37.399 -27.171 -13.932  0.00  0.00    -0.447 OA
ATOM      6  O   UNL     1      36.676 -27.179 -16.109  0.00  0.00    -0.248 OA
ATOM      7  C   UNL     1      36.554 -25.147 -14.768  0.00  0.00    +0.175 C 
ATOM      8  C   UNL     1      36.496 -25.129 -13.259  0.00  0.00    +0.078 C 
ATOM      9  C   UNL     1      37.496 -26.195 -12.889  0.00  0.00    +0.211 C 
ATOM     10  C   UNL     1      36.850 -26.597 -15.049  0.00  0.00    +0.335 C 
ENDBRANCH   2   7
BRANCH   3  11
ATOM     11  C   UNL     1      33.645 -23.337 -16.350  0.00  0.00    +0.085 C 
BRANCH  11  12
ATOM     12  C   UNL     1      33.708 -23.378 -17.875  0.00  0.00    +0.010 C 
BRANCH  12  13
ATOM     13  C   UNL     1      32.979 -22.188 -18.495  0.00  0.00    +0.001 C 
BRANCH  13  14
ATOM     14  C   UNL     1      33.870 -21.446 -19.494  0.00  0.00    +0.000 C 
BRANCH  14  15
ATOM     15  C   UNL     1      33.053 -20.486 -20.361  0.00  0.00    +0.000 C 
BRANCH  15  16
ATOM     16  C   UNL     1      33.887 -19.354 -20.965  0.00  0.00    +0.000 C 
ATOM     17  C   UNL     1      35.346 -19.723 -21.180  0.00  0.00    +0.000 C 
ENDBRANCH  15  16
ENDBRANCH  14  15
ENDBRANCH  13  14
ENDBRANCH  12  13
ENDBRANCH  11  12
ENDBRANCH   3  11
TORSDOF 7
ENDMDL
MODEL 7
REMARK VINA RESULT:      -7.1      5.168      7.636
REMARK  Name = 6914579
REMARK  7 active torsions:
REMARK  status: ('A' for Active; 'I' for Inactive)
REMARK    1  A    between atoms: N_2  and  C_7
REMARK    2  A    between atoms: C_3  and  C_11
REMARK    3  A    between atoms: C_11  and  C_12
REMARK    4  A    between atoms: C_12  and  C_13
REMARK    5  A    between atoms: C_13  and  C_14
REMARK    6  A    between atoms: C_14  and  C_15
REMARK    7  A    between atoms: C_15  and  C_16
REMARK                            x       y       z     vdW  Elec       q    Type
REMARK                         _______ _______ _______ _____ _____    ______ ____
ROOT
ATOM      1  O   UNL     1      34.689 -19.259 -23.028  0.00  0.00    -0.275 OA
ATOM      2  N   UNL     1      35.029 -19.280 -20.729  0.00  0.00    -0.297 N 
ATOM      3  C   UNL     1      34.985 -18.686 -21.982  0.00  0.00    +0.223 C 
ATOM      4  H   UNL     1      35.280 -18.726 -19.954  0.00  0.00    +0.150 HD
ENDROOT
BRANCH   2   7
ATOM      5  O   UNL     1      33.268 -21.806 -19.076  0.00  0.00    -0.447 OA
ATOM      6  O   UNL     1      32.337 -20.197 -20.420  0.00  0.00    -0.248 OA
ATOM      7  C   UNL     1      34.728 -20.661 -20.513  0.00  0.00    +0.175 C 
ATOM      8  C   UNL     1      35.518 -21.274 -19.381  0.00  0.00    +0.078 C 
ATOM      9  C   UNL     1      34.581 -22.344 -18.882  0.00  0.00    +0.211 C 
ATOM     10  C   UNL     1      33.313 -20.816 -20.023  0.00  0.00    +0.335 C 
ENDBRANCH   2   7
BRANCH   3  11
ATOM     11  C   UNL     1      35.353 -17.214 -21.915  0.00  0.00    +0.085 C 
BRANCH  11  12
ATOM     12  C   UNL     1      34.709 -16.504 -20.726  0.00  0.00    +0.010 C 
BRANCH  12  13
ATOM     13  C   UNL     1      34.574 -15.003 -20.980  0.00  0.00    +0.001 C 
BRANCH  13  14
ATOM     14  C   UNL     1      33.112 -14.555 -20.906  0.00  0.00    +0.000 C 
BRANCH  14  15
ATOM     15  C   UNL     1      32.586 -14.148 -22.283  0.00  0.00    +0.000 C 
BRANCH  15  16
ATOM     16  C   UNL     1      33.690 -13.985 -23.330  0.00  0.00    +0.000 C 
ATOM     17  C   UNL     1      33.501 -14.867 -24.555  0.00  0.00    +0.000 C 
ENDBRANCH  15  16
ENDBRANCH  14  15
ENDBRANCH  13  14
ENDBRANCH  12  13
ENDBRANCH  11  12
ENDBRANCH   3  11
TORSDOF 7
ENDMDL
MODEL 8
REMARK VINA RESULT:      -7.0      5.304      7.929
REMARK  Name = 6914579
REMARK  7 active torsions:
REMARK  status: ('A' for Active; 'I' for Inactive)
REMARK    1  A    between atoms: N_2  and  C_7
REMARK    2  A    between atoms: C_3  and  C_11
REMARK    3  A    between atoms: C_11  and  C_12
REMARK    4  A    between atoms: C_12  and  C_13
REMARK    5  A    between atoms: C_13  and  C_14
REMARK    6  A    between atoms: C_14  and  C_15
REMARK    7  A    between atoms: C_15  and  C_16
REMARK                            x       y       z     vdW  Elec       q    Type
REMARK                         _______ _______ _______ _____ _____    ______ ____
ROOT
ATOM      1  O   UNL     1      34.576 -18.965 -22.838  0.00  0.00    -0.275 OA
ATOM      2  N   UNL     1      34.989 -19.276 -20.573  0.00  0.00    -0.297 N 
ATOM      3  C   UNL     1      34.927 -18.534 -21.743  0.00  0.00    +0.223 C 
ATOM      4  H   UNL     1      35.285 -18.828 -19.747  0.00  0.00    +0.150 HD
ENDROOT
BRANCH   2   7
ATOM      5  O   UNL     1      33.050 -21.895 -19.310  0.00  0.00    -0.447 OA
ATOM      6  O   UNL     1      32.263 -20.143 -20.565  0.00  0.00    -0.248 OA
ATOM      7  C   UNL     1      34.644 -20.663 -20.513  0.00  0.00    +0.175 C 
ATOM      8  C   UNL     1      35.327 -21.400 -19.386  0.00  0.00    +0.078 C 
ATOM      9  C   UNL     1      34.332 -22.485 -19.066  0.00  0.00    +0.211 C 
ATOM     10  C   UNL     1      33.191 -20.823 -20.152  0.00  0.00    +0.335 C 
ENDBRANCH   2   7
BRANCH   3  11
ATOM     11  C   UNL     1      35.351 -17.093 -21.514  0.00  0.00    +0.085 C 
BRANCH  11  12
ATOM     12  C   UNL     1      34.215 -16.103 -21.762  0.00  0.00    +0.010 C 
BRANCH  12  13
ATOM     13  C   UNL     1      34.159 -15.036 -20.670  0.00  0.00    +0.001 C 
BRANCH  13  14
ATOM     14  C   UNL     1      32.765 -14.410 -20.573  0.00  0.00    +0.000 C 
BRANCH  14  15
ATOM     15  C   UNL     1      32.434 -13.597 -21.827  0.00  0.00    +0.000 C 
BRANCH  15  16
ATOM     16  C   UNL     1      31.714 -12.282 -21.524  0.00  0.00    +0.000 C 
ATOM     17  C   UNL     1      31.756 -11.889 -20.056  0.00  0.00    +0.000 C 
ENDBRANCH  15  16
ENDBRANCH  14  15
ENDBRANCH  13  14
ENDBRANCH  12  13
ENDBRANCH  11  12
ENDBRANCH   3  11
TORSDOF 7
ENDMDL
MODEL 9
REMARK VINA RESULT:      -7.0      4.381      5.528
REMARK  Name = 6914579
REMARK  7 active torsions:
REMARK  status: ('A' for Active; 'I' for Inactive)
REMARK    1  A    between atoms: N_2  and  C_7
REMARK    2  A    between atoms: C_3  and  C_11
REMARK    3  A    between atoms: C_11  and  C_12
REMARK    4  A    between atoms: C_12  and  C_13
REMARK    5  A    between atoms: C_13  and  C_14
REMARK    6  A    between atoms: C_14  and  C_15
REMARK    7  A    between atoms: C_15  and  C_16
REMARK                            x       y       z     vdW  Elec       q    Type
REMARK                         _______ _______ _______ _____ _____    ______ ____
ROOT
ATOM      1  O   UNL     1      33.989 -23.819 -19.538  0.00  0.00    -0.275 OA
ATOM      2  N   UNL     1      33.356 -22.428 -17.788  0.00  0.00    -0.297 N 
ATOM      3  C   UNL     1      33.861 -22.699 -19.051  0.00  0.00    +0.223 C 
ATOM      4  H   UNL     1      33.297 -21.489 -17.496  0.00  0.00    +0.150 HD
ENDROOT
BRANCH   2   7
ATOM      5  O   UNL     1      31.492 -23.487 -15.027  0.00  0.00    -0.447 OA
ATOM      6  O   UNL     1      30.621 -22.642 -16.974  0.00  0.00    -0.248 OA
ATOM      7  C   UNL     1      32.919 -23.452 -16.890  0.00  0.00    +0.175 C 
ATOM      8  C   UNL     1      33.744 -23.532 -15.628  0.00  0.00    +0.078 C 
ATOM      9  C   UNL     1      32.745 -24.051 -14.626  0.00  0.00    +0.211 C 
ATOM     10  C   UNL     1      31.554 -23.122 -16.347  0.00  0.00    +0.335 C 
ENDBRANCH   2   7
BRANCH   3  11
ATOM     11  C   UNL     1      34.248 -21.425 -19.782  0.00  0.00    +0.085 C 
BRANCH  11  12
ATOM     12  C   UNL     1      33.057 -20.497 -20.010  0.00  0.00    +0.010 C 
BRANCH  12  13
ATOM     13  C   UNL     1      33.273 -19.603 -21.230  0.00  0.00    +0.001 C 
BRANCH  13  14
ATOM     14  C   UNL     1      34.637 -18.911 -21.179  0.00  0.00    +0.000 C 
BRANCH  14  15
ATOM     15  C   UNL     1      35.359 -19.008 -22.525  0.00  0.00    +0.000 C 
BRANCH  15  16
ATOM     16  C   UNL     1      35.024 -17.859 -23.478  0.00  0.00    +0.000 C 
ATOM     17  C   UNL     1      35.113 -16.486 -22.829  0.00  0.00    +0.000 C 
ENDBRANCH  15  16
ENDBRANCH  14  15
ENDBRANCH  13  14
ENDBRANCH  12  13
ENDBRANCH  11  12
ENDBRANCH   3  11
TORSDOF 7
ENDMDL
