MODEL 1
REMARK VINA RESULT:      -8.8      0.000      0.000
REMARK  Name = 2309
REMARK  8 active torsions:
REMARK  status: ('A' for Active; 'I' for Inactive)
REMARK    1  A    between atoms: O_1  and  C_3
REMARK    2  A    between atoms: O_1  and  C_14
REMARK    3  A    between atoms: C_9  and  C_12
REMARK    4  A    between atoms: C_14  and  C_15
REMARK    5  A    between atoms: C_15  and  O_16
REMARK    6  A    between atoms: C_15  and  C_18
REMARK    7  A    between atoms: C_18  and  N_19
REMARK    8  A    between atoms: N_19  and  C_22
REMARK                            x       y       z     vdW  Elec       q    Type
REMARK                         _______ _______ _______ _____ _____    ______ ____
ROOT
ATOM      1  O   UNL     1      33.180 -23.082 -18.440  0.00  0.00    -0.470 OA
ENDROOT
BRANCH   1   3
ATOM      2  O   UNL     1      30.541 -22.989 -17.193  0.00  0.00    -0.448 OA
ATOM      3  C   UNL     1      32.984 -23.169 -17.094  0.00  0.00    +0.173 C 
ATOM      4  C   UNL     1      31.716 -23.123 -16.518  0.00  0.00    +0.179 C 
ATOM      5  C   UNL     1      31.478 -23.209 -15.149  0.00  0.00    +0.041 C 
ATOM      6  C   UNL     1      34.062 -23.312 -16.215  0.00  0.00    +0.040 C 
ATOM      7  C   UNL     1      30.070 -23.121 -14.997  0.00  0.00    +0.044 C 
ATOM      8  C   UNL     1      32.577 -23.352 -14.284  0.00  0.00    +0.003 C 
ATOM      9  C   UNL     1      29.549 -22.989 -16.263  0.00  0.00    +0.180 C 
ATOM     10  C   UNL     1      33.865 -23.402 -14.835  0.00  0.00    +0.003 C 
BRANCH   9  12
ATOM     11  O   UNL     1      27.798 -23.229 -17.852  0.00  0.00    -0.288 OA
ATOM     12  C   UNL     1      28.209 -22.859 -16.721  0.00  0.00    +0.208 C 
ATOM     13  C   UNL     1      27.144 -22.228 -15.813  0.00  0.00    +0.081 C 
ENDBRANCH   9  12
ENDBRANCH   1   3
BRANCH   1  14
ATOM     14  C   UNL     1      34.186 -22.176 -18.890  0.00  0.00    +0.232 C 
BRANCH  14  15
ATOM     15  C   UNL     1      33.596 -21.287 -19.982  0.00  0.00    +0.133 C 
BRANCH  15  16
ATOM     16  O   UNL     1      32.451 -20.609 -19.453  0.00  0.00    -0.383 OA
ATOM     17  H   UNL     1      32.542 -19.656 -19.604  0.00  0.00    +0.210 HD
ENDBRANCH  15  16
BRANCH  15  18
ATOM     18  C   UNL     1      34.576 -20.233 -20.500  0.00  0.00    -0.048 C 
BRANCH  18  19
ATOM     19  N   UNL     1      33.963 -19.351 -21.484  0.00  0.00    +0.387 N 
ATOM     20  H   UNL     1      33.276 -18.757 -21.018  0.00  0.00    -0.084 HD
ATOM     21  H   UNL     1      33.513 -19.922 -22.198  0.00  0.00    -0.084 HD
BRANCH  19  22
ATOM     22  C   UNL     1      34.963 -18.508 -22.125  0.00  0.00    -0.062 C 
ATOM     23  C   UNL     1      35.102 -18.879 -23.599  0.00  0.00    -0.023 C 
ATOM     24  C   UNL     1      36.294 -18.654 -21.396  0.00  0.00    -0.023 C 
ENDBRANCH  19  22
ENDBRANCH  18  19
ENDBRANCH  15  18
ENDBRANCH  14  15
ENDBRANCH   1  14
TORSDOF 8
ENDMDL
MODEL 2
REMARK VINA RESULT:      -8.5      4.828      9.548
REMARK  Name = 2309
REMARK  8 active torsions:
REMARK  status: ('A' for Active; 'I' for Inactive)
REMARK    1  A    between atoms: O_1  and  C_3
REMARK    2  A    between atoms: O_1  and  C_14
REMARK    3  A    between atoms: C_9  and  C_12
REMARK    4  A    between atoms: C_14  and  C_15
REMARK    5  A    between atoms: C_15  and  O_16
REMARK    6  A    between atoms: C_15  and  C_18
REMARK    7  A    between atoms: C_18  and  N_19
REMARK    8  A    between atoms: N_19  and  C_22
REMARK                            x       y       z     vdW  Elec       q    Type
REMARK                         _______ _______ _______ _____ _____    ______ ____
ROOT
ATOM      1  O   UNL     1      35.413 -16.774 -22.156  0.00  0.00    -0.470 OA
ENDROOT
BRANCH   1   3
ATOM      2  O   UNL     1      34.004 -15.323 -24.263  0.00  0.00    -0.448 OA
ATOM      3  C   UNL     1      34.480 -15.812 -21.908  0.00  0.00    +0.173 C 
ATOM      4  C   UNL     1      33.818 -15.131 -22.927  0.00  0.00    +0.179 C 
ATOM      5  C   UNL     1      32.860 -14.143 -22.712  0.00  0.00    +0.041 C 
ATOM      6  C   UNL     1      34.138 -15.458 -20.599  0.00  0.00    +0.040 C 
ATOM      7  C   UNL     1      32.448 -13.719 -24.002  0.00  0.00    +0.044 C 
ATOM      8  C   UNL     1      32.532 -13.803 -21.388  0.00  0.00    +0.003 C 
ATOM      9  C   UNL     1      33.170 -14.464 -24.905  0.00  0.00    +0.180 C 
ATOM     10  C   UNL     1      33.182 -14.472 -20.341  0.00  0.00    +0.003 C 
BRANCH   9  12
ATOM     11  O   UNL     1      33.107 -15.506 -27.041  0.00  0.00    -0.288 OA
ATOM     12  C   UNL     1      33.176 -14.471 -26.328  0.00  0.00    +0.208 C 
ATOM     13  C   UNL     1      33.273 -13.149 -27.103  0.00  0.00    +0.081 C 
ENDBRANCH   9  12
ENDBRANCH   1   3
BRANCH   1  14
ATOM     14  C   UNL     1      35.446 -17.888 -21.266  0.00  0.00    +0.232 C 
BRANCH  14  15
ATOM     15  C   UNL     1      34.425 -18.923 -21.732  0.00  0.00    +0.133 C 
BRANCH  15  16
ATOM     16  O   UNL     1      34.823 -19.413 -23.016  0.00  0.00    -0.383 OA
ATOM     17  H   UNL     1      35.702 -19.817 -22.950  0.00  0.00    +0.210 HD
ENDBRANCH  15  16
BRANCH  15  18
ATOM     18  C   UNL     1      34.297 -20.117 -20.784  0.00  0.00    -0.048 C 
BRANCH  18  19
ATOM     19  N   UNL     1      35.500 -20.315 -19.988  0.00  0.00    +0.387 N 
ATOM     20  H   UNL     1      35.499 -19.653 -19.211  0.00  0.00    -0.084 HD
ATOM     21  H   UNL     1      36.314 -20.164 -20.583  0.00  0.00    -0.084 HD
BRANCH  19  22
ATOM     22  C   UNL     1      35.558 -21.670 -19.458  0.00  0.00    -0.062 C 
ATOM     23  C   UNL     1      34.165 -22.136 -19.041  0.00  0.00    -0.023 C 
ATOM     24  C   UNL     1      36.525 -21.715 -18.280  0.00  0.00    -0.023 C 
ENDBRANCH  19  22
ENDBRANCH  18  19
ENDBRANCH  15  18
ENDBRANCH  14  15
ENDBRANCH   1  14
TORSDOF 8
ENDMDL
MODEL 3
REMARK VINA RESULT:      -8.4      5.468     10.099
REMARK  Name = 2309
REMARK  8 active torsions:
REMARK  status: ('A' for Active; 'I' for Inactive)
REMARK    1  A    between atoms: O_1  and  C_3
REMARK    2  A    between atoms: O_1  and  C_14
REMARK    3  A    between atoms: C_9  and  C_12
REMARK    4  A    between atoms: C_14  and  C_15
REMARK    5  A    between atoms: C_15  and  O_16
REMARK    6  A    between atoms: C_15  and  C_18
REMARK    7  A    between atoms: C_18  and  N_19
REMARK    8  A    between atoms: N_19  and  C_22
REMARK                            x       y       z     vdW  Elec       q    Type
REMARK                         _______ _______ _______ _____ _____    ______ ____
ROOT
ATOM      1  O   UNL     1      35.247 -16.236 -22.677  0.00  0.00    -0.470 OA
ENDROOT
BRANCH   1   3
ATOM      2  O   UNL     1      34.328 -13.740 -23.883  0.00  0.00    -0.448 OA
ATOM      3  C   UNL     1      34.291 -15.441 -22.117  0.00  0.00    +0.173 C 
ATOM      4  C   UNL     1      33.865 -14.253 -22.709  0.00  0.00    +0.179 C 
ATOM      5  C   UNL     1      32.894 -13.417 -22.167  0.00  0.00    +0.041 C 
ATOM      6  C   UNL     1      33.684 -15.785 -20.905  0.00  0.00    +0.040 C 
ATOM      7  C   UNL     1      32.766 -12.334 -23.076  0.00  0.00    +0.044 C 
ATOM      8  C   UNL     1      32.297 -13.782 -20.948  0.00  0.00    +0.003 C 
ATOM      9  C   UNL     1      33.655 -12.578 -24.097  0.00  0.00    +0.180 C 
ATOM     10  C   UNL     1      32.705 -14.972 -20.329  0.00  0.00    +0.003 C 
BRANCH   9  12
ATOM     11  O   UNL     1      33.583 -12.152 -26.435  0.00  0.00    -0.288 OA
ATOM     12  C   UNL     1      33.961 -11.841 -25.275  0.00  0.00    +0.208 C 
ATOM     13  C   UNL     1      34.812 -10.566 -25.185  0.00  0.00    +0.081 C 
ENDBRANCH   9  12
ENDBRANCH   1   3
BRANCH   1  14
ATOM     14  C   UNL     1      34.828 -17.118 -23.716  0.00  0.00    +0.232 C 
BRANCH  14  15
ATOM     15  C   UNL     1      34.746 -18.536 -23.157  0.00  0.00    +0.133 C 
BRANCH  15  16
ATOM     16  O   UNL     1      34.994 -19.463 -24.219  0.00  0.00    -0.383 OA
ATOM     17  H   UNL     1      35.708 -19.126 -24.781  0.00  0.00    +0.210 HD
ENDBRANCH  15  16
BRANCH  15  18
ATOM     18  C   UNL     1      35.759 -18.807 -22.042  0.00  0.00    -0.048 C 
BRANCH  18  19
ATOM     19  N   UNL     1      35.113 -18.999 -20.751  0.00  0.00    +0.387 N 
ATOM     20  H   UNL     1      34.433 -18.253 -20.603  0.00  0.00    -0.084 HD
ATOM     21  H   UNL     1      35.826 -18.981 -20.023  0.00  0.00    -0.084 HD
BRANCH  19  22
ATOM     22  C   UNL     1      34.428 -20.283 -20.696  0.00  0.00    -0.062 C 
ATOM     23  C   UNL     1      32.954 -20.084 -20.351  0.00  0.00    -0.023 C 
ATOM     24  C   UNL     1      35.113 -21.183 -19.673  0.00  0.00    -0.023 C 
ENDBRANCH  19  22
ENDBRANCH  18  19
ENDBRANCH  15  18
ENDBRANCH  14  15
ENDBRANCH   1  14
TORSDOF 8
ENDMDL
MODEL 4
REMARK VINA RESULT:      -8.4      9.906     13.049
REMARK  Name = 2309
REMARK  8 active torsions:
REMARK  status: ('A' for Active; 'I' for Inactive)
REMARK    1  A    between atoms: O_1  and  C_3
REMARK    2  A    between atoms: O_1  and  C_14
REMARK    3  A    between atoms: C_9  and  C_12
REMARK    4  A    between atoms: C_14  and  C_15
REMARK    5  A    between atoms: C_15  and  O_16
REMARK    6  A    between atoms: C_15  and  C_18
REMARK    7  A    between atoms: C_18  and  N_19
REMARK    8  A    between atoms: N_19  and  C_22
REMARK                            x       y       z     vdW  Elec       q    Type
REMARK                         _______ _______ _______ _____ _____    ______ ____
ROOT
ATOM      1  O   UNL     1      31.844 -12.270 -22.434  0.00  0.00    -0.470 OA
ENDROOT
BRANCH   1   3
ATOM      2  O   UNL     1      32.517  -9.451 -22.796  0.00  0.00    -0.448 OA
ATOM      3  C   UNL     1      31.805 -11.355 -21.424  0.00  0.00    +0.173 C 
ATOM      4  C   UNL     1      32.129 -10.013 -21.617  0.00  0.00    +0.179 C 
ATOM      5  C   UNL     1      32.101  -9.052 -20.611  0.00  0.00    +0.041 C 
ATOM      6  C   UNL     1      31.432 -11.724 -20.128  0.00  0.00    +0.040 C 
ATOM      7  C   UNL     1      32.496  -7.836 -21.229  0.00  0.00    +0.044 C 
ATOM      8  C   UNL     1      31.723  -9.446 -19.315  0.00  0.00    +0.003 C 
ATOM      9  C   UNL     1      32.736  -8.132 -22.550  0.00  0.00    +0.180 C 
ATOM     10  C   UNL     1      31.391 -10.789 -19.091  0.00  0.00    +0.003 C 
BRANCH   9  12
ATOM     11  O   UNL     1      32.388  -6.614 -24.346  0.00  0.00    -0.288 OA
ATOM     12  C   UNL     1      33.156  -7.315 -23.637  0.00  0.00    +0.208 C 
ATOM     13  C   UNL     1      34.642  -7.246 -24.017  0.00  0.00    +0.081 C 
ENDBRANCH   9  12
ENDBRANCH   1   3
BRANCH   1  14
ATOM     14  C   UNL     1      32.270 -13.589 -22.095  0.00  0.00    +0.232 C 
BRANCH  14  15
ATOM     15  C   UNL     1      33.645 -13.837 -22.711  0.00  0.00    +0.133 C 
BRANCH  15  16
ATOM     16  O   UNL     1      33.848 -15.249 -22.824  0.00  0.00    -0.383 OA
ATOM     17  H   UNL     1      33.748 -15.660 -21.952  0.00  0.00    +0.210 HD
ENDBRANCH  15  16
BRANCH  15  18
ATOM     18  C   UNL     1      33.807 -13.218 -24.100  0.00  0.00    -0.048 C 
BRANCH  18  19
ATOM     19  N   UNL     1      34.253 -11.833 -24.034  0.00  0.00    +0.387 N 
ATOM     20  H   UNL     1      35.239 -11.812 -23.773  0.00  0.00    -0.084 HD
ATOM     21  H   UNL     1      33.690 -11.342 -23.340  0.00  0.00    -0.084 HD
BRANCH  19  22
ATOM     22  C   UNL     1      34.088 -11.169 -25.320  0.00  0.00    -0.062 C 
ATOM     23  C   UNL     1      33.714 -12.185 -26.396  0.00  0.00    -0.023 C 
ATOM     24  C   UNL     1      35.374 -10.435 -25.683  0.00  0.00    -0.023 C 
ENDBRANCH  19  22
ENDBRANCH  18  19
ENDBRANCH  15  18
ENDBRANCH  14  15
ENDBRANCH   1  14
TORSDOF 8
ENDMDL
MODEL 5
REMARK VINA RESULT:      -8.4      8.369     11.709
REMARK  Name = 2309
REMARK  8 active torsions:
REMARK  status: ('A' for Active; 'I' for Inactive)
REMARK    1  A    between atoms: O_1  and  C_3
REMARK    2  A    between atoms: O_1  and  C_14
REMARK    3  A    between atoms: C_9  and  C_12
REMARK    4  A    between atoms: C_14  and  C_15
REMARK    5  A    between atoms: C_15  and  O_16
REMARK    6  A    between atoms: C_15  and  C_18
REMARK    7  A    between atoms: C_18  and  N_19
REMARK    8  A    between atoms: N_19  and  C_22
REMARK                            x       y       z     vdW  Elec       q    Type
REMARK                         _______ _______ _______ _____ _____    ______ ____
ROOT
ATOM      1  O   UNL     1      32.173 -14.278 -22.099  0.00  0.00    -0.470 OA
ENDROOT
BRANCH   1   3
ATOM      2  O   UNL     1      33.311 -12.343 -23.968  0.00  0.00    -0.448 OA
ATOM      3  C   UNL     1      32.069 -12.928 -21.937  0.00  0.00    +0.173 C 
ATOM      4  C   UNL     1      32.619 -12.021 -22.840  0.00  0.00    +0.179 C 
ATOM      5  C   UNL     1      32.533 -10.638 -22.707  0.00  0.00    +0.041 C 
ATOM      6  C   UNL     1      31.396 -12.383 -20.839  0.00  0.00    +0.040 C 
ATOM      7  C   UNL     1      33.217 -10.100 -23.827  0.00  0.00    +0.044 C 
ATOM      8  C   UNL     1      31.851 -10.112 -21.595  0.00  0.00    +0.003 C 
ATOM      9  C   UNL     1      33.668 -11.173 -24.560  0.00  0.00    +0.180 C 
ATOM     10  C   UNL     1      31.288 -11.001 -20.669  0.00  0.00    +0.003 C 
BRANCH   9  12
ATOM     11  O   UNL     1      34.142 -12.003 -26.736  0.00  0.00    -0.288 OA
ATOM     12  C   UNL     1      34.411 -11.240 -25.771  0.00  0.00    +0.208 C 
ATOM     13  C   UNL     1      35.639 -10.341 -25.971  0.00  0.00    +0.081 C 
ENDBRANCH   9  12
ENDBRANCH   1   3
BRANCH   1  14
ATOM     14  C   UNL     1      32.800 -15.010 -21.048  0.00  0.00    +0.232 C 
BRANCH  14  15
ATOM     15  C   UNL     1      34.312 -14.980 -21.259  0.00  0.00    +0.133 C 
BRANCH  15  16
ATOM     16  O   UNL     1      34.947 -15.522 -20.097  0.00  0.00    -0.383 OA
ATOM     17  H   UNL     1      34.959 -16.490 -20.157  0.00  0.00    +0.210 HD
ENDBRANCH  15  16
BRANCH  15  18
ATOM     18  C   UNL     1      34.770 -15.788 -22.474  0.00  0.00    -0.048 C 
BRANCH  18  19
ATOM     19  N   UNL     1      34.461 -15.113 -23.728  0.00  0.00    +0.387 N 
ATOM     20  H   UNL     1      35.322 -14.741 -24.128  0.00  0.00    -0.084 HD
ATOM     21  H   UNL     1      33.801 -14.359 -23.538  0.00  0.00    -0.084 HD
BRANCH  19  22
ATOM     22  C   UNL     1      33.853 -16.033 -24.679  0.00  0.00    -0.062 C 
ATOM     23  C   UNL     1      34.856 -17.107 -25.092  0.00  0.00    -0.023 C 
ATOM     24  C   UNL     1      33.354 -15.255 -25.892  0.00  0.00    -0.023 C 
ENDBRANCH  19  22
ENDBRANCH  18  19
ENDBRANCH  15  18
ENDBRANCH  14  15
ENDBRANCH   1  14
TORSDOF 8
ENDMDL
MODEL 6
REMARK VINA RESULT:      -8.3      5.648      9.282
REMARK  Name = 2309
REMARK  8 active torsions:
REMARK  status: ('A' for Active; 'I' for Inactive)
REMARK    1  A    between atoms: O_1  and  C_3
REMARK    2  A    between atoms: O_1  and  C_14
REMARK    3  A    between atoms: C_9  and  C_12
REMARK    4  A    between atoms: C_14  and  C_15
REMARK    5  A    between atoms: C_15  and  O_16
REMARK    6  A    between atoms: C_15  and  C_18
REMARK    7  A    between atoms: C_18  and  N_19
REMARK    8  A    between atoms: N_19  and  C_22
REMARK                            x       y       z     vdW  Elec       q    Type
REMARK                         _______ _______ _______ _____ _____    ______ ____
ROOT
ATOM      1  O   UNL     1      35.009 -14.858 -22.330  0.00  0.00    -0.470 OA
ENDROOT
BRANCH   1   3
ATOM      2  O   UNL     1      35.322 -17.687 -21.678  0.00  0.00    -0.448 OA
ATOM      3  C   UNL     1      34.801 -15.861 -23.229  0.00  0.00    +0.173 C 
ATOM      4  C   UNL     1      34.955 -17.206 -22.899  0.00  0.00    +0.179 C 
ATOM      5  C   UNL     1      34.751 -18.256 -23.789  0.00  0.00    +0.041 C 
ATOM      6  C   UNL     1      34.417 -15.584 -24.545  0.00  0.00    +0.040 C 
ATOM      7  C   UNL     1      35.013 -19.441 -23.053  0.00  0.00    +0.044 C 
ATOM      8  C   UNL     1      34.366 -17.954 -25.107  0.00  0.00    +0.003 C 
ATOM      9  C   UNL     1      35.354 -19.042 -21.782  0.00  0.00    +0.180 C 
ATOM     10  C   UNL     1      34.203 -16.610 -25.469  0.00  0.00    +0.003 C 
BRANCH   9  12
ATOM     11  O   UNL     1      36.804 -19.669 -20.006  0.00  0.00    -0.288 OA
ATOM     12  C   UNL     1      35.715 -19.789 -20.626  0.00  0.00    +0.208 C 
ATOM     13  C   UNL     1      34.745 -20.830 -20.050  0.00  0.00    +0.081 C 
ENDBRANCH   9  12
ENDBRANCH   1   3
BRANCH   1  14
ATOM     14  C   UNL     1      34.202 -14.864 -21.154  0.00  0.00    +0.232 C 
BRANCH  14  15
ATOM     15  C   UNL     1      32.749 -14.618 -21.551  0.00  0.00    +0.133 C 
BRANCH  15  16
ATOM     16  O   UNL     1      31.947 -15.690 -21.045  0.00  0.00    -0.383 OA
ATOM     17  H   UNL     1      31.994 -16.443 -21.653  0.00  0.00    +0.210 HD
ENDBRANCH  15  16
BRANCH  15  18
ATOM     18  C   UNL     1      32.187 -13.303 -21.006  0.00  0.00    -0.048 C 
BRANCH  18  19
ATOM     19  N   UNL     1      31.643 -12.461 -22.062  0.00  0.00    +0.387 N 
ATOM     20  H   UNL     1      30.934 -12.984 -22.575  0.00  0.00    -0.084 HD
ATOM     21  H   UNL     1      32.403 -12.187 -22.684  0.00  0.00    -0.084 HD
BRANCH  19  22
ATOM     22  C   UNL     1      31.039 -11.256 -21.510  0.00  0.00    -0.062 C 
ATOM     23  C   UNL     1      31.595 -10.017 -22.207  0.00  0.00    -0.023 C 
ATOM     24  C   UNL     1      31.296 -11.200 -20.008  0.00  0.00    -0.023 C 
ENDBRANCH  19  22
ENDBRANCH  18  19
ENDBRANCH  15  18
ENDBRANCH  14  15
ENDBRANCH   1  14
TORSDOF 8
ENDMDL
MODEL 7
REMARK VINA RESULT:      -8.2      8.583     13.197
REMARK  Name = 2309
REMARK  8 active torsions:
REMARK  status: ('A' for Active; 'I' for Inactive)
REMARK    1  A    between atoms: O_1  and  C_3
REMARK    2  A    between atoms: O_1  and  C_14
REMARK    3  A    between atoms: C_9  and  C_12
REMARK    4  A    between atoms: C_14  and  C_15
REMARK    5  A    between atoms: C_15  and  O_16
REMARK    6  A    between atoms: C_15  and  C_18
REMARK    7  A    between atoms: C_18  and  N_19
REMARK    8  A    between atoms: N_19  and  C_22
REMARK                            x       y       z     vdW  Elec       q    Type
REMARK                         _______ _______ _______ _____ _____    ______ ____
ROOT
ATOM      1  O   UNL     1      31.562  -9.517 -21.870  0.00  0.00    -0.470 OA
ENDROOT
BRANCH   1   3
ATOM      2  O   UNL     1      32.881 -11.185 -23.872  0.00  0.00    -0.448 OA
ATOM      3  C   UNL     1      32.672  -9.126 -22.557  0.00  0.00    +0.173 C 
ATOM      4  C   UNL     1      33.287  -9.937 -23.509  0.00  0.00    +0.179 C 
ATOM      5  C   UNL     1      34.421  -9.572 -24.230  0.00  0.00    +0.041 C 
ATOM      6  C   UNL     1      33.256  -7.875 -22.335  0.00  0.00    +0.040 C 
ATOM      7  C   UNL     1      34.710 -10.672 -25.078  0.00  0.00    +0.044 C 
ATOM      8  C   UNL     1      34.990  -8.308 -23.990  0.00  0.00    +0.003 C 
ATOM      9  C   UNL     1      33.748 -11.622 -24.823  0.00  0.00    +0.180 C 
ATOM     10  C   UNL     1      34.393  -7.471 -23.038  0.00  0.00    +0.003 C 
BRANCH   9  12
ATOM     11  O   UNL     1      33.453 -13.978 -24.695  0.00  0.00    -0.288 OA
ATOM     12  C   UNL     1      33.537 -12.918 -25.370  0.00  0.00    +0.208 C 
ATOM     13  C   UNL     1      33.393 -13.097 -26.888  0.00  0.00    +0.081 C 
ENDBRANCH   9  12
ENDBRANCH   1   3
BRANCH   1  14
ATOM     14  C   UNL     1      31.772 -10.211 -20.641  0.00  0.00    +0.232 C 
BRANCH  14  15
ATOM     15  C   UNL     1      31.206 -11.623 -20.769  0.00  0.00    +0.133 C 
BRANCH  15  16
ATOM     16  O   UNL     1      30.461 -11.710 -21.988  0.00  0.00    -0.383 OA
ATOM     17  H   UNL     1      30.437 -12.631 -22.288  0.00  0.00    +0.210 HD
ENDBRANCH  15  16
BRANCH  15  18
ATOM     18  C   UNL     1      32.284 -12.708 -20.792  0.00  0.00    -0.048 C 
BRANCH  18  19
ATOM     19  N   UNL     1      32.102 -13.638 -21.898  0.00  0.00    +0.387 N 
ATOM     20  H   UNL     1      32.446 -13.207 -22.756  0.00  0.00    -0.084 HD
ATOM     21  H   UNL     1      31.110 -13.856 -21.981  0.00  0.00    -0.084 HD
BRANCH  19  22
ATOM     22  C   UNL     1      32.831 -14.877 -21.663  0.00  0.00    -0.062 C 
ATOM     23  C   UNL     1      32.135 -15.706 -20.587  0.00  0.00    -0.023 C 
ATOM     24  C   UNL     1      34.267 -14.555 -21.262  0.00  0.00    -0.023 C 
ENDBRANCH  19  22
ENDBRANCH  18  19
ENDBRANCH  15  18
ENDBRANCH  14  15
ENDBRANCH   1  14
TORSDOF 8
ENDMDL
MODEL 8
REMARK VINA RESULT:      -8.2      2.358      4.902
REMARK  Name = 2309
REMARK  8 active torsions:
REMARK  status: ('A' for Active; 'I' for Inactive)
REMARK    1  A    between atoms: O_1  and  C_3
REMARK    2  A    between atoms: O_1  and  C_14
REMARK    3  A    between atoms: C_9  and  C_12
REMARK    4  A    between atoms: C_14  and  C_15
REMARK    5  A    between atoms: C_15  and  O_16
REMARK    6  A    between atoms: C_15  and  C_18
REMARK    7  A    between atoms: C_18  and  N_19
REMARK    8  A    between atoms: N_19  and  C_22
REMARK                            x       y       z     vdW  Elec       q    Type
REMARK                         _______ _______ _______ _____ _____    ______ ____
ROOT
ATOM      1  O   UNL     1      34.042 -23.149 -18.577  0.00  0.00    -0.470 OA
ENDROOT
BRANCH   1   3
ATOM      2  O   UNL     1      35.751 -23.559 -16.245  0.00  0.00    -0.448 OA
ATOM      3  C   UNL     1      33.565 -23.221 -17.302  0.00  0.00    +0.173 C 
ATOM      4  C   UNL     1      34.397 -23.416 -16.202  0.00  0.00    +0.179 C 
ATOM      5  C   UNL     1      33.946 -23.495 -14.887  0.00  0.00    +0.041 C 
ATOM      6  C   UNL     1      32.197 -23.100 -17.035  0.00  0.00    +0.040 C 
ATOM      7  C   UNL     1      35.105 -23.697 -14.093  0.00  0.00    +0.044 C 
ATOM      8  C   UNL     1      32.567 -23.370 -14.642  0.00  0.00    +0.003 C 
ATOM      9  C   UNL     1      36.170 -23.727 -14.963  0.00  0.00    +0.180 C 
ATOM     10  C   UNL     1      31.705 -23.172 -15.729  0.00  0.00    +0.003 C 
BRANCH   9  12
ATOM     11  O   UNL     1      38.473 -23.461 -15.490  0.00  0.00    -0.288 OA
ATOM     12  C   UNL     1      37.564 -23.900 -14.737  0.00  0.00    +0.208 C 
ATOM     13  C   UNL     1      38.054 -24.670 -13.503  0.00  0.00    +0.081 C 
ENDBRANCH   9  12
ENDBRANCH   1   3
BRANCH   1  14
ATOM     14  C   UNL     1      33.687 -21.996 -19.337  0.00  0.00    +0.232 C 
BRANCH  14  15
ATOM     15  C   UNL     1      34.946 -21.176 -19.607  0.00  0.00    +0.133 C 
BRANCH  15  16
ATOM     16  O   UNL     1      35.965 -22.050 -20.101  0.00  0.00    -0.383 OA
ATOM     17  H   UNL     1      35.778 -22.958 -19.818  0.00  0.00    +0.210 HD
ENDBRANCH  15  16
BRANCH  15  18
ATOM     18  C   UNL     1      34.734 -20.061 -20.633  0.00  0.00    -0.048 C 
BRANCH  18  19
ATOM     19  N   UNL     1      35.822 -19.093 -20.621  0.00  0.00    +0.387 N 
ATOM     20  H   UNL     1      36.706 -19.582 -20.763  0.00  0.00    -0.084 HD
ATOM     21  H   UNL     1      35.822 -18.612 -19.722  0.00  0.00    -0.084 HD
BRANCH  19  22
ATOM     22  C   UNL     1      35.652 -18.103 -21.676  0.00  0.00    -0.062 C 
ATOM     23  C   UNL     1      34.921 -16.876 -21.137  0.00  0.00    -0.023 C 
ATOM     24  C   UNL     1      34.889 -18.726 -22.840  0.00  0.00    -0.023 C 
ENDBRANCH  19  22
ENDBRANCH  18  19
ENDBRANCH  15  18
ENDBRANCH  14  15
ENDBRANCH   1  14
TORSDOF 8
ENDMDL
MODEL 9
REMARK VINA RESULT:      -8.2      8.877     12.810
REMARK  Name = 2309
REMARK  8 active torsions:
REMARK  status: ('A' for Active; 'I' for Inactive)
REMARK    1  A    between atoms: O_1  and  C_3
REMARK    2  A    between atoms: O_1  and  C_14
REMARK    3  A    between atoms: C_9  and  C_12
REMARK    4  A    between atoms: C_14  and  C_15
REMARK    5  A    between atoms: C_15  and  O_16
REMARK    6  A    between atoms: C_15  and  C_18
REMARK    7  A    between atoms: C_18  and  N_19
REMARK    8  A    between atoms: N_19  and  C_22
REMARK                            x       y       z     vdW  Elec       q    Type
REMARK                         _______ _______ _______ _____ _____    ______ ____
ROOT
ATOM      1  O   UNL     1      31.563 -12.059 -22.567  0.00  0.00    -0.470 OA
ENDROOT
BRANCH   1   3
ATOM      2  O   UNL     1      32.430  -9.282 -22.832  0.00  0.00    -0.448 OA
ATOM      3  C   UNL     1      31.651 -11.198 -21.514  0.00  0.00    +0.173 C 
ATOM      4  C   UNL     1      32.066  -9.876 -21.661  0.00  0.00    +0.179 C 
ATOM      5  C   UNL     1      32.168  -8.969 -20.610  0.00  0.00    +0.041 C 
ATOM      6  C   UNL     1      31.324 -11.606 -20.217  0.00  0.00    +0.040 C 
ATOM      7  C   UNL     1      32.621  -7.755 -21.191  0.00  0.00    +0.044 C 
ATOM      8  C   UNL     1      31.834  -9.402 -19.314  0.00  0.00    +0.003 C 
ATOM      9  C   UNL     1      32.763  -7.998 -22.537  0.00  0.00    +0.180 C 
ATOM     10  C   UNL     1      31.413 -10.726 -19.136  0.00  0.00    +0.003 C 
BRANCH   9  12
ATOM     11  O   UNL     1      32.435  -6.357 -24.225  0.00  0.00    -0.288 OA
ATOM     12  C   UNL     1      33.183  -7.158 -23.606  0.00  0.00    +0.208 C 
ATOM     13  C   UNL     1      34.642  -7.191 -24.081  0.00  0.00    +0.081 C 
ENDBRANCH   9  12
ENDBRANCH   1   3
BRANCH   1  14
ATOM     14  C   UNL     1      32.304 -13.274 -22.472  0.00  0.00    +0.232 C 
BRANCH  14  15
ATOM     15  C   UNL     1      33.083 -13.479 -23.769  0.00  0.00    +0.133 C 
BRANCH  15  16
ATOM     16  O   UNL     1      34.239 -12.634 -23.748  0.00  0.00    -0.383 OA
ATOM     17  H   UNL     1      34.530 -12.508 -22.832  0.00  0.00    +0.210 HD
ENDBRANCH  15  16
BRANCH  15  18
ATOM     18  C   UNL     1      33.551 -14.922 -23.973  0.00  0.00    -0.048 C 
BRANCH  18  19
ATOM     19  N   UNL     1      34.748 -15.223 -23.200  0.00  0.00    +0.387 N 
ATOM     20  H   UNL     1      35.029 -14.391 -22.682  0.00  0.00    -0.084 HD
ATOM     21  H   UNL     1      35.486 -15.510 -23.841  0.00  0.00    -0.084 HD
BRANCH  19  22
ATOM     22  C   UNL     1      34.502 -16.308 -22.260  0.00  0.00    -0.062 C 
ATOM     23  C   UNL     1      34.640 -15.807 -20.825  0.00  0.00    -0.023 C 
ATOM     24  C   UNL     1      35.473 -17.451 -22.536  0.00  0.00    -0.023 C 
ENDBRANCH  19  22
ENDBRANCH  18  19
ENDBRANCH  15  18
ENDBRANCH  14  15
ENDBRANCH   1  14
TORSDOF 8
ENDMDL
