MODEL 1
REMARK VINA RESULT:      -8.9      0.000      0.000
REMARK  Name = 446824
REMARK  4 active torsions:
REMARK  status: ('A' for Active; 'I' for Inactive)
REMARK    1  A    between atoms: N9_1  and  C1*_12
REMARK    2  A    between atoms: C2*_13  and  O2*_16
REMARK    3  A    between atoms: C4*_14  and  C5*_18
REMARK    4  A    between atoms: C5*_18  and  O5*_19
REMARK                            x       y       z     vdW  Elec       q    Type
REMARK                         _______ _______ _______ _____ _____    ______ ____
ROOT
ATOM      1  N9  A   A   1      34.315 -19.739 -21.026  0.00  0.00    -0.247 N 
ATOM      2  N7  A   A   1      32.627 -20.925 -20.175  0.00  0.00    -0.242 NA
ATOM      3  N3  A   A   1      36.163 -20.684 -19.764  0.00  0.00    -0.228 NA
ATOM      4  N1  A   A   1      35.394 -22.410 -18.220  0.00  0.00    -0.229 NA
ATOM      5  C4  A   A   1      34.870 -20.581 -20.102  0.00  0.00    +0.152 C 
ATOM      6  C8  A   A   1      32.966 -19.984 -21.031  0.00  0.00    +0.223 C 
ATOM      7  C5  A   A   1      33.808 -21.307 -19.587  0.00  0.00    +0.140 C 
ATOM      8  C6  A   A   1      34.106 -22.252 -18.611  0.00  0.00    +0.143 C 
ATOM      9  C2  A   A   1      36.328 -21.628 -18.812  0.00  0.00    +0.253 C 
ATOM     10  N6  A   A   1      33.091 -23.034 -18.035  0.00  0.00    -0.342 N 
ATOM     11  H61 A   A   1      33.313 -23.700 -17.345  0.00  0.00    +0.144 HD
ATOM     12  H62 A   A   1      32.156 -22.917 -18.322  0.00  0.00    +0.144 HD
ENDROOT
BRANCH   1  15
ATOM     13  O4* A   A   1      34.857 -17.456 -21.273  0.00  0.00    -0.327 OA
ATOM     14  O3* A   A   1      34.863 -16.738 -24.676  0.00  0.00    -0.291 OA
ATOM     15  C1* A   A   1      35.016 -18.760 -21.854  0.00  0.00    +0.230 C 
ATOM     16  C2* A   A   1      34.465 -18.654 -23.267  0.00  0.00    +0.218 C 
ATOM     17  C4* A   A   1      35.163 -16.485 -22.289  0.00  0.00    +0.206 C 
ATOM     18  C3* A   A   1      34.830 -17.230 -23.555  0.00  0.00    +0.211 C 
BRANCH  16  19
ATOM     19  O2* A   A   1      35.094 -19.560 -24.133  0.00  0.00    -0.374 OA
ATOM     20  H2* A   A   1      35.996 -19.257 -24.318  0.00  0.00    +0.211 HD
ENDBRANCH  16  19
BRANCH  17  21
ATOM     21  C5* A   A   1      34.310 -15.253 -22.087  0.00  0.00    +0.174 C 
BRANCH  21  22
ATOM     22  O5* A   A   1      34.761 -14.228 -22.960  0.00  0.00    -0.379 OA
ATOM     23  H5* A   A   1      35.685 -14.013 -22.756  0.00  0.00    +0.211 HD
ENDBRANCH  21  22
ENDBRANCH  17  21
ENDBRANCH   1  15
TORSDOF 4
ENDMDL
MODEL 2
REMARK VINA RESULT:      -8.5      6.639      9.594
REMARK  Name = 446824
REMARK  4 active torsions:
REMARK  status: ('A' for Active; 'I' for Inactive)
REMARK    1  A    between atoms: N9_1  and  C1*_12
REMARK    2  A    between atoms: C2*_13  and  O2*_16
REMARK    3  A    between atoms: C4*_14  and  C5*_18
REMARK    4  A    between atoms: C5*_18  and  O5*_19
REMARK                            x       y       z     vdW  Elec       q    Type
REMARK                         _______ _______ _______ _____ _____    ______ ____
ROOT
ATOM      1  N9  A   A   1      36.167 -23.311 -15.578  0.00  0.00    -0.247 N 
ATOM      2  N7  A   A   1      37.382 -21.910 -16.819  0.00  0.00    -0.242 NA
ATOM      3  N3  A   A   1      34.166 -23.451 -16.948  0.00  0.00    -0.228 NA
ATOM      4  N1  A   A   1      34.367 -22.078 -18.956  0.00  0.00    -0.229 NA
ATOM      5  C4  A   A   1      35.400 -23.007 -16.668  0.00  0.00    +0.152 C 
ATOM      6  C8  A   A   1      37.347 -22.627 -15.715  0.00  0.00    +0.223 C 
ATOM      7  C5  A   A   1      36.171 -22.138 -17.424  0.00  0.00    +0.140 C 
ATOM      8  C6  A   A   1      35.612 -21.671 -18.609  0.00  0.00    +0.143 C 
ATOM      9  C2  A   A   1      33.731 -22.931 -18.117  0.00  0.00    +0.253 C 
ATOM     10  N6  A   A   1      36.324 -20.787 -19.439  0.00  0.00    -0.342 N 
ATOM     11  H61 A   A   1      35.919 -20.462 -20.275  0.00  0.00    +0.144 HD
ATOM     12  H62 A   A   1      37.228 -20.493 -19.184  0.00  0.00    +0.144 HD
ENDROOT
BRANCH   1  15
ATOM     13  O4* A   A   1      35.629 -23.407 -13.282  0.00  0.00    -0.327 OA
ATOM     14  O3* A   A   1      36.977 -26.349 -12.008  0.00  0.00    -0.291 OA
ATOM     15  C1* A   A   1      35.807 -24.194 -14.471  0.00  0.00    +0.230 C 
ATOM     16  C2* A   A   1      36.883 -25.215 -14.134  0.00  0.00    +0.218 C 
ATOM     17  C4* A   A   1      35.706 -24.296 -12.154  0.00  0.00    +0.206 C 
ATOM     18  C3* A   A   1      36.577 -25.407 -12.679  0.00  0.00    +0.211 C 
BRANCH  16  19
ATOM     19  O2* A   A   1      36.724 -26.392 -14.879  0.00  0.00    -0.374 OA
ATOM     20  H2* A   A   1      36.007 -26.276 -15.521  0.00  0.00    +0.211 HD
ENDBRANCH  16  19
BRANCH  17  21
ATOM     21  C5* A   A   1      36.320 -23.571 -10.978  0.00  0.00    +0.174 C 
BRANCH  21  22
ATOM     22  O5* A   A   1      36.055 -24.304  -9.791  0.00  0.00    -0.379 OA
ATOM     23  H5* A   A   1      35.864 -23.688  -9.067  0.00  0.00    +0.211 HD
ENDBRANCH  21  22
ENDBRANCH  17  21
ENDBRANCH   1  15
TORSDOF 4
ENDMDL
MODEL 3
REMARK VINA RESULT:      -8.5      7.842      9.508
REMARK  Name = 446824
REMARK  4 active torsions:
REMARK  status: ('A' for Active; 'I' for Inactive)
REMARK    1  A    between atoms: N9_1  and  C1*_12
REMARK    2  A    between atoms: C2*_13  and  O2*_16
REMARK    3  A    between atoms: C4*_14  and  C5*_18
REMARK    4  A    between atoms: C5*_18  and  O5*_19
REMARK                            x       y       z     vdW  Elec       q    Type
REMARK                         _______ _______ _______ _____ _____    ______ ____
ROOT
ATOM      1  N9  A   A   1      34.209 -24.086 -14.961  0.00  0.00    -0.247 N 
ATOM      2  N7  A   A   1      33.136 -23.082 -16.640  0.00  0.00    -0.242 NA
ATOM      3  N3  A   A   1      32.318 -24.680 -13.557  0.00  0.00    -0.228 NA
ATOM      4  N1  A   A   1      30.210 -23.956 -14.552  0.00  0.00    -0.229 NA
ATOM      5  C4  A   A   1      32.879 -24.139 -14.647  0.00  0.00    +0.152 C 
ATOM      6  C8  A   A   1      34.311 -23.441 -16.166  0.00  0.00    +0.223 C 
ATOM      7  C5  A   A   1      32.232 -23.512 -15.700  0.00  0.00    +0.140 C 
ATOM      8  C6  A   A   1      30.846 -23.430 -15.627  0.00  0.00    +0.143 C 
ATOM      9  C2  A   A   1      30.975 -24.540 -13.598  0.00  0.00    +0.253 C 
ATOM     10  N6  A   A   1      30.108 -22.812 -16.651  0.00  0.00    -0.342 N 
ATOM     11  H61 A   A   1      29.127 -22.760 -16.589  0.00  0.00    +0.144 HD
ATOM     12  H62 A   A   1      30.572 -22.431 -17.432  0.00  0.00    +0.144 HD
ENDROOT
BRANCH   1  15
ATOM     13  O4* A   A   1      35.478 -23.806 -12.991  0.00  0.00    -0.327 OA
ATOM     14  O3* A   A   1      38.765 -24.674 -13.723  0.00  0.00    -0.291 OA
ATOM     15  C1* A   A   1      35.318 -24.613 -14.169  0.00  0.00    +0.230 C 
ATOM     16  C2* A   A   1      36.657 -24.562 -14.890  0.00  0.00    +0.218 C 
ATOM     17  C4* A   A   1      36.793 -24.055 -12.466  0.00  0.00    +0.206 C 
ATOM     18  C3* A   A   1      37.560 -24.455 -13.699  0.00  0.00    +0.211 C 
BRANCH  16  19
ATOM     19  O2* A   A   1      36.883 -25.726 -15.637  0.00  0.00    -0.374 OA
ATOM     20  H2* A   A   1      36.119 -25.897 -16.209  0.00  0.00    +0.211 HD
ENDBRANCH  16  19
BRANCH  17  21
ATOM     21  C5* A   A   1      37.328 -22.795 -11.822  0.00  0.00    +0.174 C 
BRANCH  21  22
ATOM     22  O5* A   A   1      38.719 -22.953 -11.580  0.00  0.00    -0.379 OA
ATOM     23  H5* A   A   1      39.219 -22.583 -12.324  0.00  0.00    +0.211 HD
ENDBRANCH  21  22
ENDBRANCH  17  21
ENDBRANCH   1  15
TORSDOF 4
ENDMDL
MODEL 4
REMARK VINA RESULT:      -8.5      6.448      9.326
REMARK  Name = 446824
REMARK  4 active torsions:
REMARK  status: ('A' for Active; 'I' for Inactive)
REMARK    1  A    between atoms: N9_1  and  C1*_12
REMARK    2  A    between atoms: C2*_13  and  O2*_16
REMARK    3  A    between atoms: C4*_14  and  C5*_18
REMARK    4  A    between atoms: C5*_18  and  O5*_19
REMARK                            x       y       z     vdW  Elec       q    Type
REMARK                         _______ _______ _______ _____ _____    ______ ____
ROOT
ATOM      1  N9  A   A   1      34.810 -23.327 -15.494  0.00  0.00    -0.247 N 
ATOM      2  N7  A   A   1      33.000 -23.371 -16.798  0.00  0.00    -0.242 NA
ATOM      3  N3  A   A   1      36.394 -22.292 -17.018  0.00  0.00    -0.228 NA
ATOM      4  N1  A   A   1      35.358 -21.790 -19.170  0.00  0.00    -0.229 NA
ATOM      5  C4  A   A   1      35.186 -22.771 -16.685  0.00  0.00    +0.152 C 
ATOM      6  C8  A   A   1      33.488 -23.672 -15.613  0.00  0.00    +0.223 C 
ATOM      7  C5  A   A   1      34.051 -22.807 -17.479  0.00  0.00    +0.140 C 
ATOM      8  C6  A   A   1      34.165 -22.291 -18.765  0.00  0.00    +0.143 C 
ATOM      9  C2  A   A   1      36.383 -21.821 -18.284  0.00  0.00    +0.253 C 
ATOM     10  N6  A   A   1      33.064 -22.286 -19.638  0.00  0.00    -0.342 N 
ATOM     11  H61 A   A   1      33.156 -21.918 -20.546  0.00  0.00    +0.144 HD
ATOM     12  H62 A   A   1      32.199 -22.650 -19.341  0.00  0.00    +0.144 HD
ENDROOT
BRANCH   1  15
ATOM     13  O4* A   A   1      36.810 -24.282 -14.685  0.00  0.00    -0.327 OA
ATOM     14  O3* A   A   1      36.201 -25.423 -11.457  0.00  0.00    -0.291 OA
ATOM     15  C1* A   A   1      35.648 -23.523 -14.314  0.00  0.00    +0.230 C 
ATOM     16  C2* A   A   1      34.968 -24.320 -13.211  0.00  0.00    +0.218 C 
ATOM     17  C4* A   A   1      37.381 -24.823 -13.482  0.00  0.00    +0.206 C 
ATOM     18  C3* A   A   1      36.183 -24.923 -12.574  0.00  0.00    +0.211 C 
BRANCH  16  19
ATOM     19  O2* A   A   1      34.257 -23.485 -12.338  0.00  0.00    -0.374 OA
ATOM     20  H2* A   A   1      33.664 -24.020 -11.789  0.00  0.00    +0.211 HD
ENDBRANCH  16  19
BRANCH  17  21
ATOM     21  C5* A   A   1      38.010 -26.166 -13.778  0.00  0.00    +0.174 C 
BRANCH  21  22
ATOM     22  O5* A   A   1      37.028 -27.181 -13.630  0.00  0.00    -0.379 OA
ATOM     23  H5* A   A   1      36.383 -27.114 -14.352  0.00  0.00    +0.211 HD
ENDBRANCH  21  22
ENDBRANCH  17  21
ENDBRANCH   1  15
TORSDOF 4
ENDMDL
MODEL 5
REMARK VINA RESULT:      -8.3      6.957      9.566
REMARK  Name = 446824
REMARK  4 active torsions:
REMARK  status: ('A' for Active; 'I' for Inactive)
REMARK    1  A    between atoms: N9_1  and  C1*_12
REMARK    2  A    between atoms: C2*_13  and  O2*_16
REMARK    3  A    between atoms: C4*_14  and  C5*_18
REMARK    4  A    between atoms: C5*_18  and  O5*_19
REMARK                            x       y       z     vdW  Elec       q    Type
REMARK                         _______ _______ _______ _____ _____    ______ ____
ROOT
ATOM      1  N9  A   A   1      35.521 -23.130 -15.349  0.00  0.00    -0.247 N 
ATOM      2  N7  A   A   1      35.604 -22.568 -17.507  0.00  0.00    -0.242 NA
ATOM      3  N3  A   A   1      33.125 -23.433 -15.092  0.00  0.00    -0.228 NA
ATOM      4  N1  A   A   1      31.946 -23.013 -17.187  0.00  0.00    -0.229 NA
ATOM      5  C4  A   A   1      34.229 -23.144 -15.795  0.00  0.00    +0.152 C 
ATOM      6  C8  A   A   1      36.309 -22.778 -16.414  0.00  0.00    +0.223 C 
ATOM      7  C5  A   A   1      34.302 -22.793 -17.134  0.00  0.00    +0.140 C 
ATOM      8  C6  A   A   1      33.103 -22.734 -17.835  0.00  0.00    +0.143 C 
ATOM      9  C2  A   A   1      32.028 -23.342 -15.875  0.00  0.00    +0.253 C 
ATOM     10  N6  A   A   1      33.084 -22.388 -19.197  0.00  0.00    -0.342 N 
ATOM     11  H61 A   A   1      32.229 -22.348 -19.684  0.00  0.00    +0.144 HD
ATOM     12  H62 A   A   1      33.926 -22.185 -19.666  0.00  0.00    +0.144 HD
ENDROOT
BRANCH   1  15
ATOM     13  O4* A   A   1      37.420 -23.510 -14.001  0.00  0.00    -0.327 OA
ATOM     14  O3* A   A   1      36.569 -25.916 -11.638  0.00  0.00    -0.291 OA
ATOM     15  C1* A   A   1      35.986 -23.431 -13.997  0.00  0.00    +0.230 C 
ATOM     16  C2* A   A   1      35.499 -24.773 -13.472  0.00  0.00    +0.218 C 
ATOM     17  C4* A   A   1      37.822 -24.211 -12.812  0.00  0.00    +0.206 C 
ATOM     18  C3* A   A   1      36.623 -25.078 -12.529  0.00  0.00    +0.211 C 
BRANCH  16  19
ATOM     19  O2* A   A   1      34.263 -24.652 -12.820  0.00  0.00    -0.374 OA
ATOM     20  H2* A   A   1      33.889 -25.533 -12.668  0.00  0.00    +0.211 HD
ENDBRANCH  16  19
BRANCH  17  21
ATOM     21  C5* A   A   1      39.074 -25.012 -13.094  0.00  0.00    +0.174 C 
BRANCH  21  22
ATOM     22  O5* A   A   1      38.709 -26.253 -13.680  0.00  0.00    -0.379 OA
ATOM     23  H5* A   A   1      38.745 -26.177 -14.646  0.00  0.00    +0.211 HD
ENDBRANCH  21  22
ENDBRANCH  17  21
ENDBRANCH   1  15
TORSDOF 4
ENDMDL
MODEL 6
REMARK VINA RESULT:      -8.3      6.946      9.623
REMARK  Name = 446824
REMARK  4 active torsions:
REMARK  status: ('A' for Active; 'I' for Inactive)
REMARK    1  A    between atoms: N9_1  and  C1*_12
REMARK    2  A    between atoms: C2*_13  and  O2*_16
REMARK    3  A    between atoms: C4*_14  and  C5*_18
REMARK    4  A    between atoms: C5*_18  and  O5*_19
REMARK                            x       y       z     vdW  Elec       q    Type
REMARK                         _______ _______ _______ _____ _____    ______ ____
ROOT
ATOM      1  N9  A   A   1      34.145 -23.811 -14.664  0.00  0.00    -0.247 N 
ATOM      2  N7  A   A   1      31.930 -23.603 -14.490  0.00  0.00    -0.242 NA
ATOM      3  N3  A   A   1      34.440 -23.171 -16.988  0.00  0.00    -0.228 NA
ATOM      4  N1  A   A   1      32.306 -22.617 -18.035  0.00  0.00    -0.229 NA
ATOM      5  C4  A   A   1      33.704 -23.403 -15.892  0.00  0.00    +0.152 C 
ATOM      6  C8  A   A   1      33.042 -23.917 -13.857  0.00  0.00    +0.223 C 
ATOM      7  C5  A   A   1      32.330 -23.280 -15.763  0.00  0.00    +0.140 C 
ATOM      8  C6  A   A   1      31.626 -22.869 -16.890  0.00  0.00    +0.143 C 
ATOM      9  C2  A   A   1      33.651 -22.781 -18.013  0.00  0.00    +0.253 C 
ATOM     10  N6  A   A   1      30.230 -22.716 -16.849  0.00  0.00    -0.342 N 
ATOM     11  H61 A   A   1      29.742 -22.425 -17.653  0.00  0.00    +0.144 HD
ATOM     12  H62 A   A   1      29.739 -22.900 -16.016  0.00  0.00    +0.144 HD
ENDROOT
BRANCH   1  15
ATOM     13  O4* A   A   1      36.079 -25.066 -15.167  0.00  0.00    -0.327 OA
ATOM     14  O3* A   A   1      37.620 -25.878 -12.158  0.00  0.00    -0.291 OA
ATOM     15  C1* A   A   1      35.526 -24.085 -14.274  0.00  0.00    +0.230 C 
ATOM     16  C2* A   A   1      35.658 -24.676 -12.879  0.00  0.00    +0.218 C 
ATOM     17  C4* A   A   1      37.240 -25.628 -14.534  0.00  0.00    +0.206 C 
ATOM     18  C3* A   A   1      36.925 -25.452 -13.071  0.00  0.00    +0.211 C 
BRANCH  16  19
ATOM     19  O2* A   A   1      35.780 -23.673 -11.906  0.00  0.00    -0.374 OA
ATOM     20  H2* A   A   1      35.567 -24.040 -11.035  0.00  0.00    +0.211 HD
ENDBRANCH  16  19
BRANCH  17  21
ATOM     21  C5* A   A   1      37.384 -27.079 -14.935  0.00  0.00    +0.174 C 
BRANCH  21  22
ATOM     22  O5* A   A   1      36.815 -27.263 -16.223  0.00  0.00    -0.379 OA
ATOM     23  H5* A   A   1      35.866 -27.446 -16.134  0.00  0.00    +0.211 HD
ENDBRANCH  21  22
ENDBRANCH  17  21
ENDBRANCH   1  15
TORSDOF 4
ENDMDL
MODEL 7
REMARK VINA RESULT:      -8.3      7.462      9.712
REMARK  Name = 446824
REMARK  4 active torsions:
REMARK  status: ('A' for Active; 'I' for Inactive)
REMARK    1  A    between atoms: N9_1  and  C1*_12
REMARK    2  A    between atoms: C2*_13  and  O2*_16
REMARK    3  A    between atoms: C4*_14  and  C5*_18
REMARK    4  A    between atoms: C5*_18  and  O5*_19
REMARK                            x       y       z     vdW  Elec       q    Type
REMARK                         _______ _______ _______ _____ _____    ______ ____
ROOT
ATOM      1  N9  A   A   1      34.000 -23.591 -15.362  0.00  0.00    -0.247 N 
ATOM      2  N7  A   A   1      32.707 -23.129 -17.121  0.00  0.00    -0.242 NA
ATOM      3  N3  A   A   1      32.312 -23.675 -13.617  0.00  0.00    -0.228 NA
ATOM      4  N1  A   A   1      30.084 -23.242 -14.515  0.00  0.00    -0.229 NA
ATOM      5  C4  A   A   1      32.722 -23.512 -14.883  0.00  0.00    +0.152 C 
ATOM      6  C8  A   A   1      33.938 -23.353 -16.711  0.00  0.00    +0.223 C 
ATOM      7  C5  A   A   1      31.936 -23.225 -15.988  0.00  0.00    +0.140 C 
ATOM      8  C6  A   A   1      30.570 -23.091 -15.771  0.00  0.00    +0.143 C 
ATOM      9  C2  A   A   1      30.973 -23.521 -13.530  0.00  0.00    +0.253 C 
ATOM     10  N6  A   A   1      29.698 -22.802 -16.835  0.00  0.00    -0.342 N 
ATOM     11  H61 A   A   1      28.732 -22.709 -16.669  0.00  0.00    +0.144 HD
ATOM     12  H62 A   A   1      30.053 -22.693 -17.747  0.00  0.00    +0.144 HD
ENDROOT
BRANCH   1  15
ATOM     13  O4* A   A   1      36.011 -24.826 -15.311  0.00  0.00    -0.327 OA
ATOM     14  O3* A   A   1      36.609 -25.727 -12.006  0.00  0.00    -0.291 OA
ATOM     15  C1* A   A   1      35.209 -23.874 -14.592  0.00  0.00    +0.230 C 
ATOM     16  C2* A   A   1      34.932 -24.508 -13.237  0.00  0.00    +0.218 C 
ATOM     17  C4* A   A   1      36.941 -25.405 -14.380  0.00  0.00    +0.206 C 
ATOM     18  C3* A   A   1      36.209 -25.274 -13.070  0.00  0.00    +0.211 C 
BRANCH  16  19
ATOM     19  O2* A   A   1      34.751 -23.535 -12.243  0.00  0.00    -0.374 OA
ATOM     20  H2* A   A   1      34.610 -22.671 -12.658  0.00  0.00    +0.211 HD
ENDBRANCH  16  19
BRANCH  17  21
ATOM     21  C5* A   A   1      37.212 -26.842 -14.763  0.00  0.00    +0.174 C 
BRANCH  21  22
ATOM     22  O5* A   A   1      36.800 -27.051 -16.106  0.00  0.00    -0.379 OA
ATOM     23  H5* A   A   1      36.944 -26.240 -16.618  0.00  0.00    +0.211 HD
ENDBRANCH  21  22
ENDBRANCH  17  21
ENDBRANCH   1  15
TORSDOF 4
ENDMDL
MODEL 8
REMARK VINA RESULT:      -8.1      7.030      9.178
REMARK  Name = 446824
REMARK  4 active torsions:
REMARK  status: ('A' for Active; 'I' for Inactive)
REMARK    1  A    between atoms: N9_1  and  C1*_12
REMARK    2  A    between atoms: C2*_13  and  O2*_16
REMARK    3  A    between atoms: C4*_14  and  C5*_18
REMARK    4  A    between atoms: C5*_18  and  O5*_19
REMARK                            x       y       z     vdW  Elec       q    Type
REMARK                         _______ _______ _______ _____ _____    ______ ____
ROOT
ATOM      1  N9  A   A   1      33.799 -24.233 -14.415  0.00  0.00    -0.247 N 
ATOM      2  N7  A   A   1      31.608 -23.815 -14.453  0.00  0.00    -0.242 NA
ATOM      3  N3  A   A   1      34.399 -23.501 -16.652  0.00  0.00    -0.228 NA
ATOM      4  N1  A   A   1      32.451 -22.682 -17.872  0.00  0.00    -0.229 NA
ATOM      5  C4  A   A   1      33.532 -23.717 -15.653  0.00  0.00    +0.152 C 
ATOM      6  C8  A   A   1      32.611 -24.272 -13.733  0.00  0.00    +0.223 C 
ATOM      7  C5  A   A   1      32.169 -23.465 -15.656  0.00  0.00    +0.140 C 
ATOM      8  C6  A   A   1      31.632 -22.926 -16.820  0.00  0.00    +0.143 C 
ATOM      9  C2  A   A   1      33.764 -22.980 -17.725  0.00  0.00    +0.253 C 
ATOM     10  N6  A   A   1      30.260 -22.636 -16.910  0.00  0.00    -0.342 N 
ATOM     11  H61 A   A   1      29.890 -22.255 -17.739  0.00  0.00    +0.144 HD
ATOM     12  H62 A   A   1      29.667 -22.815 -16.144  0.00  0.00    +0.144 HD
ENDROOT
BRANCH   1  15
ATOM     13  O4* A   A   1      35.363 -23.993 -12.664  0.00  0.00    -0.327 OA
ATOM     14  O3* A   A   1      38.542 -24.218 -14.054  0.00  0.00    -0.291 OA
ATOM     15  C1* A   A   1      35.099 -24.665 -13.907  0.00  0.00    +0.230 C 
ATOM     16  C2* A   A   1      36.259 -24.308 -14.824  0.00  0.00    +0.218 C 
ATOM     17  C4* A   A   1      36.774 -24.086 -12.408  0.00  0.00    +0.206 C 
ATOM     18  C3* A   A   1      37.345 -24.202 -13.797  0.00  0.00    +0.211 C 
BRANCH  16  19
ATOM     19  O2* A   A   1      36.500 -25.319 -15.764  0.00  0.00    -0.374 OA
ATOM     20  H2* A   A   1      37.096 -24.987 -16.452  0.00  0.00    +0.211 HD
ENDBRANCH  16  19
BRANCH  17  21
ATOM     21  C5* A   A   1      37.240 -22.846 -11.681  0.00  0.00    +0.174 C 
BRANCH  21  22
ATOM     22  O5* A   A   1      38.660 -22.848 -11.621  0.00  0.00    -0.379 OA
ATOM     23  H5* A   A   1      38.952 -22.318 -10.863  0.00  0.00    +0.211 HD
ENDBRANCH  21  22
ENDBRANCH  17  21
ENDBRANCH   1  15
TORSDOF 4
ENDMDL
MODEL 9
REMARK VINA RESULT:      -8.1      1.344      2.546
REMARK  Name = 446824
REMARK  4 active torsions:
REMARK  status: ('A' for Active; 'I' for Inactive)
REMARK    1  A    between atoms: N9_1  and  C1*_12
REMARK    2  A    between atoms: C2*_13  and  O2*_16
REMARK    3  A    between atoms: C4*_14  and  C5*_18
REMARK    4  A    between atoms: C5*_18  and  O5*_19
REMARK                            x       y       z     vdW  Elec       q    Type
REMARK                         _______ _______ _______ _____ _____    ______ ____
ROOT
ATOM      1  N9  A   A   1      35.637 -18.408 -21.312  0.00  0.00    -0.247 N 
ATOM      2  N7  A   A   1      36.545 -20.170 -20.288  0.00  0.00    -0.242 NA
ATOM      3  N3  A   A   1      33.283 -18.958 -21.076  0.00  0.00    -0.228 NA
ATOM      4  N1  A   A   1      32.979 -21.070 -19.891  0.00  0.00    -0.229 NA
ATOM      5  C4  A   A   1      34.592 -19.189 -20.904  0.00  0.00    +0.152 C 
ATOM      6  C8  A   A   1      36.788 -19.041 -20.920  0.00  0.00    +0.223 C 
ATOM      7  C5  A   A   1      35.176 -20.276 -20.271  0.00  0.00    +0.140 C 
ATOM      8  C6  A   A   1      34.316 -21.238 -19.753  0.00  0.00    +0.143 C 
ATOM      9  C2  A   A   1      32.551 -19.956 -20.534  0.00  0.00    +0.253 C 
ATOM     10  N6  A   A   1      34.821 -22.372 -19.094  0.00  0.00    -0.342 N 
ATOM     11  H61 A   A   1      34.204 -23.048 -18.731  0.00  0.00    +0.144 HD
ATOM     12  H62 A   A   1      35.794 -22.492 -18.995  0.00  0.00    +0.144 HD
ENDROOT
BRANCH   1  15
ATOM     13  O4* A   A   1      35.000 -16.140 -21.159  0.00  0.00    -0.327 OA
ATOM     14  O3* A   A   1      33.707 -15.200 -24.248  0.00  0.00    -0.291 OA
ATOM     15  C1* A   A   1      35.554 -17.139 -22.032  0.00  0.00    +0.230 C 
ATOM     16  C2* A   A   1      34.634 -17.186 -23.242  0.00  0.00    +0.218 C 
ATOM     17  C4* A   A   1      34.533 -15.055 -21.978  0.00  0.00    +0.206 C 
ATOM     18  C3* A   A   1      34.222 -15.746 -23.280  0.00  0.00    +0.211 C 
BRANCH  16  19
ATOM     19  O2* A   A   1      35.324 -17.582 -24.397  0.00  0.00    -0.374 OA
ATOM     20  H2* A   A   1      34.801 -18.242 -24.876  0.00  0.00    +0.211 HD
ENDBRANCH  16  19
BRANCH  17  21
ATOM     21  C5* A   A   1      33.316 -14.425 -21.339  0.00  0.00    +0.174 C 
BRANCH  21  22
ATOM     22  O5* A   A   1      32.179 -15.231 -21.611  0.00  0.00    -0.379 OA
ATOM     23  H5* A   A   1      32.287 -16.096 -21.185  0.00  0.00    +0.211 HD
ENDBRANCH  21  22
ENDBRANCH  17  21
ENDBRANCH   1  15
TORSDOF 4
ENDMDL
