MODEL 1
REMARK VINA RESULT:      -7.4      0.000      0.000
REMARK  Name = 15876
REMARK  4 active torsions:
REMARK  status: ('A' for Active; 'I' for Inactive)
REMARK    1  A    between atoms: C_1  and  C_10
REMARK    2  A    between atoms: C_4  and  N_9
REMARK    3  A    between atoms: C_10  and  C_12
REMARK    4  A    between atoms: C_12  and  O_13
REMARK                            x       y       z     vdW  Elec       q    Type
REMARK                         _______ _______ _______ _____ _____    ______ ____
ROOT
ATOM      1  C   UNL     1      35.025 -19.382 -21.012  0.00  0.00    -0.009 C 
ATOM      2  C   UNL     1      35.338 -20.542 -20.302  0.00  0.00    +0.020 C 
ATOM      3  C   UNL     1      33.696 -18.979 -21.138  0.00  0.00    -0.004 C 
ATOM      4  C   UNL     1      34.322 -21.297 -19.718  0.00  0.00    +0.143 C 
ATOM      5  C   UNL     1      32.679 -19.734 -20.553  0.00  0.00    +0.001 C 
ATOM      6  C   UNL     1      32.993 -20.894 -19.843  0.00  0.00    +0.024 C 
ENDROOT
BRANCH   4   9
ATOM      7  O   UNL     1      34.035 -23.542 -19.272  0.00  0.00    -0.126 OA
ATOM      8  O   UNL     1      35.517 -22.424 -18.098  0.00  0.00    -0.126 OA
ATOM      9  N   UNL     1      34.640 -22.478 -18.995  0.00  0.00    +0.058 N 
ENDBRANCH   4   9
BRANCH   1  10
ATOM     10  C   UNL     1      36.112 -18.573 -21.636  0.00  0.00    +0.136 C 
BRANCH  10  12
ATOM     11  O   UNL     1      35.457 -18.764 -23.974  0.00  0.00    -0.250 OA
ATOM     12  C   UNL     1      35.766 -18.062 -23.021  0.00  0.00    +0.318 C 
BRANCH  12  13
ATOM     13  O   UNL     1      35.839 -16.706 -23.093  0.00  0.00    -0.480 OA
ATOM     14  H   UNL     1      36.521 -16.300 -23.591  0.00  0.00    +0.295 HD
ENDBRANCH  12  13
ENDBRANCH  10  12
ENDBRANCH   1  10
TORSDOF 4
ENDMDL
MODEL 2
REMARK VINA RESULT:      -7.3      1.153      2.016
REMARK  Name = 15876
REMARK  4 active torsions:
REMARK  status: ('A' for Active; 'I' for Inactive)
REMARK    1  A    between atoms: C_1  and  C_10
REMARK    2  A    between atoms: C_4  and  N_9
REMARK    3  A    between atoms: C_10  and  C_12
REMARK    4  A    between atoms: C_12  and  O_13
REMARK                            x       y       z     vdW  Elec       q    Type
REMARK                         _______ _______ _______ _____ _____    ______ ____
ROOT
ATOM      1  C   UNL     1      34.862 -19.661 -20.862  0.00  0.00    -0.009 C 
ATOM      2  C   UNL     1      33.959 -20.568 -20.306  0.00  0.00    +0.020 C 
ATOM      3  C   UNL     1      36.225 -19.780 -20.593  0.00  0.00    -0.004 C 
ATOM      4  C   UNL     1      34.420 -21.594 -19.481  0.00  0.00    +0.143 C 
ATOM      5  C   UNL     1      36.687 -20.807 -19.769  0.00  0.00    +0.001 C 
ATOM      6  C   UNL     1      35.783 -21.713 -19.212  0.00  0.00    +0.024 C 
ENDROOT
BRANCH   4   9
ATOM      7  O   UNL     1      32.400 -22.095 -18.487  0.00  0.00    -0.126 OA
ATOM      8  O   UNL     1      33.818 -23.731 -18.857  0.00  0.00    -0.126 OA
ATOM      9  N   UNL     1      33.502 -22.517 -18.914  0.00  0.00    +0.058 N 
ENDBRANCH   4   9
BRANCH   1  10
ATOM     10  C   UNL     1      34.370 -18.565 -21.745  0.00  0.00    +0.136 C 
BRANCH  10  12
ATOM     11  O   UNL     1      34.976 -19.353 -23.969  0.00  0.00    -0.250 OA
ATOM     12  C   UNL     1      35.072 -18.509 -23.088  0.00  0.00    +0.318 C 
BRANCH  12  13
ATOM     13  O   UNL     1      35.839 -17.394 -23.212  0.00  0.00    -0.480 OA
ATOM     14  H   UNL     1      35.991 -17.023 -24.060  0.00  0.00    +0.295 HD
ENDBRANCH  12  13
ENDBRANCH  10  12
ENDBRANCH   1  10
TORSDOF 4
ENDMDL
MODEL 3
REMARK VINA RESULT:      -7.1      5.961      7.911
REMARK  Name = 15876
REMARK  4 active torsions:
REMARK  status: ('A' for Active; 'I' for Inactive)
REMARK    1  A    between atoms: C_1  and  C_10
REMARK    2  A    between atoms: C_4  and  N_9
REMARK    3  A    between atoms: C_10  and  C_12
REMARK    4  A    between atoms: C_12  and  O_13
REMARK                            x       y       z     vdW  Elec       q    Type
REMARK                         _______ _______ _______ _____ _____    ______ ____
ROOT
ATOM      1  C   UNL     1      30.056 -23.521 -15.427  0.00  0.00    -0.009 C 
ATOM      2  C   UNL     1      30.903 -23.417 -16.531  0.00  0.00    +0.020 C 
ATOM      3  C   UNL     1      30.576 -23.416 -14.137  0.00  0.00    -0.004 C 
ATOM      4  C   UNL     1      32.269 -23.210 -16.345  0.00  0.00    +0.143 C 
ATOM      5  C   UNL     1      31.943 -23.208 -13.951  0.00  0.00    +0.001 C 
ATOM      6  C   UNL     1      32.789 -23.105 -15.055  0.00  0.00    +0.024 C 
ENDROOT
BRANCH   4   9
ATOM      7  O   UNL     1      32.718 -22.521 -18.500  0.00  0.00    -0.126 OA
ATOM      8  O   UNL     1      34.285 -23.596 -17.398  0.00  0.00    -0.126 OA
ATOM      9  N   UNL     1      33.132 -23.104 -17.468  0.00  0.00    +0.058 N 
ENDBRANCH   4   9
BRANCH   1  10
ATOM     10  C   UNL     1      28.594 -23.741 -15.626  0.00  0.00    +0.136 C 
BRANCH  10  12
ATOM     11  O   UNL     1      27.926 -21.703 -16.781  0.00  0.00    -0.250 OA
ATOM     12  C   UNL     1      28.009 -22.924 -16.761  0.00  0.00    +0.318 C 
BRANCH  12  13
ATOM     13  O   UNL     1      27.574 -23.711 -17.780  0.00  0.00    -0.480 OA
ATOM     14  H   UNL     1      27.187 -24.545 -17.596  0.00  0.00    +0.295 HD
ENDBRANCH  12  13
ENDBRANCH  10  12
ENDBRANCH   1  10
TORSDOF 4
ENDMDL
MODEL 4
REMARK VINA RESULT:      -7.1      2.899      5.517
REMARK  Name = 15876
REMARK  4 active torsions:
REMARK  status: ('A' for Active; 'I' for Inactive)
REMARK    1  A    between atoms: C_1  and  C_10
REMARK    2  A    between atoms: C_4  and  N_9
REMARK    3  A    between atoms: C_10  and  C_12
REMARK    4  A    between atoms: C_12  and  O_13
REMARK                            x       y       z     vdW  Elec       q    Type
REMARK                         _______ _______ _______ _____ _____    ______ ____
ROOT
ATOM      1  C   UNL     1      34.733 -19.130 -21.568  0.00  0.00    -0.009 C 
ATOM      2  C   UNL     1      34.692 -17.817 -21.099  0.00  0.00    +0.020 C 
ATOM      3  C   UNL     1      34.866 -19.380 -22.934  0.00  0.00    -0.004 C 
ATOM      4  C   UNL     1      34.784 -16.753 -21.997  0.00  0.00    +0.143 C 
ATOM      5  C   UNL     1      34.959 -18.316 -23.832  0.00  0.00    +0.001 C 
ATOM      6  C   UNL     1      34.917 -17.003 -23.362  0.00  0.00    +0.024 C 
ENDROOT
BRANCH   4   9
ATOM      7  O   UNL     1      34.876 -15.204 -20.291  0.00  0.00    -0.126 OA
ATOM      8  O   UNL     1      34.573 -14.483 -22.343  0.00  0.00    -0.126 OA
ATOM      9  N   UNL     1      34.743 -15.416 -21.520  0.00  0.00    +0.058 N 
ENDBRANCH   4   9
BRANCH   1  10
ATOM     10  C   UNL     1      34.636 -20.268 -20.609  0.00  0.00    +0.136 C 
BRANCH  10  12
ATOM     11  O   UNL     1      32.257 -19.865 -20.278  0.00  0.00    -0.250 OA
ATOM     12  C   UNL     1      33.211 -20.632 -20.244  0.00  0.00    +0.318 C 
BRANCH  12  13
ATOM     13  O   UNL     1      33.101 -21.932 -19.864  0.00  0.00    -0.480 OA
ATOM     14  H   UNL     1      32.559 -22.519 -20.355  0.00  0.00    +0.295 HD
ENDBRANCH  12  13
ENDBRANCH  10  12
ENDBRANCH   1  10
TORSDOF 4
ENDMDL
MODEL 5
REMARK VINA RESULT:      -7.0      1.806      2.672
REMARK  Name = 15876
REMARK  4 active torsions:
REMARK  status: ('A' for Active; 'I' for Inactive)
REMARK    1  A    between atoms: C_1  and  C_10
REMARK    2  A    between atoms: C_4  and  N_9
REMARK    3  A    between atoms: C_10  and  C_12
REMARK    4  A    between atoms: C_12  and  O_13
REMARK                            x       y       z     vdW  Elec       q    Type
REMARK                         _______ _______ _______ _____ _____    ______ ____
ROOT
ATOM      1  C   UNL     1      35.345 -18.774 -21.308  0.00  0.00    -0.009 C 
ATOM      2  C   UNL     1      34.290 -19.559 -20.843  0.00  0.00    +0.020 C 
ATOM      3  C   UNL     1      36.660 -19.115 -20.993  0.00  0.00    -0.004 C 
ATOM      4  C   UNL     1      34.550 -20.686 -20.064  0.00  0.00    +0.143 C 
ATOM      5  C   UNL     1      36.921 -20.243 -20.214  0.00  0.00    +0.001 C 
ATOM      6  C   UNL     1      35.865 -21.028 -19.749  0.00  0.00    +0.024 C 
ENDROOT
BRANCH   4   9
ATOM      7  O   UNL     1      32.415 -20.926 -19.225  0.00  0.00    -0.126 OA
ATOM      8  O   UNL     1      33.620 -22.733 -19.551  0.00  0.00    -0.126 OA
ATOM      9  N   UNL     1      33.477 -21.487 -19.591  0.00  0.00    +0.058 N 
ENDBRANCH   4   9
BRANCH   1  10
ATOM     10  C   UNL     1      35.067 -17.569 -22.142  0.00  0.00    +0.136 C 
BRANCH  10  12
ATOM     11  O   UNL     1      35.040 -16.199 -20.129  0.00  0.00    -0.250 OA
ATOM     12  C   UNL     1      34.831 -16.311 -21.329  0.00  0.00    +0.318 C 
BRANCH  12  13
ATOM     13  O   UNL     1      34.350 -15.296 -22.094  0.00  0.00    -0.480 OA
ATOM     14  H   UNL     1      34.469 -14.408 -21.821  0.00  0.00    +0.295 HD
ENDBRANCH  12  13
ENDBRANCH  10  12
ENDBRANCH   1  10
TORSDOF 4
ENDMDL
MODEL 6
REMARK VINA RESULT:      -6.9      8.493     10.224
REMARK  Name = 15876
REMARK  4 active torsions:
REMARK  status: ('A' for Active; 'I' for Inactive)
REMARK    1  A    between atoms: C_1  and  C_10
REMARK    2  A    between atoms: C_4  and  N_9
REMARK    3  A    between atoms: C_10  and  C_12
REMARK    4  A    between atoms: C_12  and  O_13
REMARK                            x       y       z     vdW  Elec       q    Type
REMARK                         _______ _______ _______ _____ _____    ______ ____
ROOT
ATOM      1  C   UNL     1      37.147 -24.539 -13.287  0.00  0.00    -0.009 C 
ATOM      2  C   UNL     1      38.297 -25.309 -13.468  0.00  0.00    +0.020 C 
ATOM      3  C   UNL     1      36.798 -23.575 -14.232  0.00  0.00    -0.004 C 
ATOM      4  C   UNL     1      39.097 -25.113 -14.593  0.00  0.00    +0.143 C 
ATOM      5  C   UNL     1      37.598 -23.379 -15.358  0.00  0.00    +0.001 C 
ATOM      6  C   UNL     1      38.748 -24.148 -15.537  0.00  0.00    +0.024 C 
ENDROOT
BRANCH   4   9
ATOM      7  O   UNL     1      40.864 -26.346 -13.769  0.00  0.00    -0.126 OA
ATOM      8  O   UNL     1      40.674 -26.116 -15.945  0.00  0.00    -0.126 OA
ATOM      9  N   UNL     1      40.268 -25.896 -14.778  0.00  0.00    +0.058 N 
ENDBRANCH   4   9
BRANCH   1  10
ATOM     10  C   UNL     1      36.290 -24.750 -12.084  0.00  0.00    +0.136 C 
BRANCH  10  12
ATOM     11  O   UNL     1      37.308 -22.806 -11.027  0.00  0.00    -0.250 OA
ATOM     12  C   UNL     1      36.615 -23.811 -10.939  0.00  0.00    +0.318 C 
BRANCH  12  13
ATOM     13  O   UNL     1      36.040 -24.214  -9.775  0.00  0.00    -0.480 OA
ATOM     14  H   UNL     1      36.338 -24.995  -9.352  0.00  0.00    +0.295 HD
ENDBRANCH  12  13
ENDBRANCH  10  12
ENDBRANCH   1  10
TORSDOF 4
ENDMDL
MODEL 7
REMARK VINA RESULT:      -6.8      8.456      9.646
REMARK  Name = 15876
REMARK  4 active torsions:
REMARK  status: ('A' for Active; 'I' for Inactive)
REMARK    1  A    between atoms: C_1  and  C_10
REMARK    2  A    between atoms: C_4  and  N_9
REMARK    3  A    between atoms: C_10  and  C_12
REMARK    4  A    between atoms: C_12  and  O_13
REMARK                            x       y       z     vdW  Elec       q    Type
REMARK                         _______ _______ _______ _____ _____    ______ ____
ROOT
ATOM      1  C   UNL     1      37.363 -25.551 -14.168  0.00  0.00    -0.009 C 
ATOM      2  C   UNL     1      37.273 -25.299 -12.799  0.00  0.00    +0.020 C 
ATOM      3  C   UNL     1      36.307 -25.209 -15.012  0.00  0.00    -0.004 C 
ATOM      4  C   UNL     1      36.126 -24.704 -12.274  0.00  0.00    +0.143 C 
ATOM      5  C   UNL     1      35.160 -24.613 -14.487  0.00  0.00    +0.001 C 
ATOM      6  C   UNL     1      35.070 -24.361 -13.118  0.00  0.00    +0.024 C 
ENDROOT
BRANCH   4   9
ATOM      7  O   UNL     1      36.799 -23.594 -10.367  0.00  0.00    -0.126 OA
ATOM      8  O   UNL     1      35.187 -25.077 -10.201  0.00  0.00    -0.126 OA
ATOM      9  N   UNL     1      36.033 -24.446 -10.881  0.00  0.00    +0.058 N 
ENDBRANCH   4   9
BRANCH   1  10
ATOM     10  C   UNL     1      38.591 -26.186 -14.730  0.00  0.00    +0.136 C 
BRANCH  10  12
ATOM     11  O   UNL     1      40.901 -25.416 -14.689  0.00  0.00    -0.250 OA
ATOM     12  C   UNL     1      39.726 -25.208 -14.961  0.00  0.00    +0.318 C 
BRANCH  12  13
ATOM     13  O   UNL     1      39.289 -24.046 -15.514  0.00  0.00    -0.480 OA
ATOM     14  H   UNL     1      38.527 -24.045 -16.061  0.00  0.00    +0.295 HD
ENDBRANCH  12  13
ENDBRANCH  10  12
ENDBRANCH   1  10
TORSDOF 4
ENDMDL
MODEL 8
REMARK VINA RESULT:      -6.8      6.128      7.920
REMARK  Name = 15876
REMARK  4 active torsions:
REMARK  status: ('A' for Active; 'I' for Inactive)
REMARK    1  A    between atoms: C_1  and  C_10
REMARK    2  A    between atoms: C_4  and  N_9
REMARK    3  A    between atoms: C_10  and  C_12
REMARK    4  A    between atoms: C_12  and  O_13
REMARK                            x       y       z     vdW  Elec       q    Type
REMARK                         _______ _______ _______ _____ _____    ______ ____
ROOT
ATOM      1  C   UNL     1      31.542 -23.596 -15.361  0.00  0.00    -0.009 C 
ATOM      2  C   UNL     1      30.542 -23.026 -16.150  0.00  0.00    +0.020 C 
ATOM      3  C   UNL     1      31.256 -24.707 -14.568  0.00  0.00    -0.004 C 
ATOM      4  C   UNL     1      29.256 -23.566 -16.144  0.00  0.00    +0.143 C 
ATOM      5  C   UNL     1      29.970 -25.249 -14.564  0.00  0.00    +0.001 C 
ATOM      6  C   UNL     1      28.970 -24.677 -15.351  0.00  0.00    +0.024 C 
ENDROOT
BRANCH   4   9
ATOM      7  O   UNL     1      27.582 -23.723 -17.723  0.00  0.00    -0.126 OA
ATOM      8  O   UNL     1      28.022 -21.753 -16.857  0.00  0.00    -0.126 OA
ATOM      9  N   UNL     1      28.238 -22.986 -16.947  0.00  0.00    +0.058 N 
ENDBRANCH   4   9
BRANCH   1  10
ATOM     10  C   UNL     1      32.917 -23.019 -15.368  0.00  0.00    +0.136 C 
BRANCH  10  12
ATOM     11  O   UNL     1      33.459 -23.191 -17.736  0.00  0.00    -0.250 OA
ATOM     12  C   UNL     1      33.741 -23.435 -16.570  0.00  0.00    +0.318 C 
BRANCH  12  13
ATOM     13  O   UNL     1      34.854 -24.126 -16.208  0.00  0.00    -0.480 OA
ATOM     14  H   UNL     1      35.050 -24.255 -15.300  0.00  0.00    +0.295 HD
ENDBRANCH  12  13
ENDBRANCH  10  12
ENDBRANCH   1  10
TORSDOF 4
ENDMDL
MODEL 9
REMARK VINA RESULT:      -6.8      3.937      5.353
REMARK  Name = 15876
REMARK  4 active torsions:
REMARK  status: ('A' for Active; 'I' for Inactive)
REMARK    1  A    between atoms: C_1  and  C_10
REMARK    2  A    between atoms: C_4  and  N_9
REMARK    3  A    between atoms: C_10  and  C_12
REMARK    4  A    between atoms: C_12  and  O_13
REMARK                            x       y       z     vdW  Elec       q    Type
REMARK                         _______ _______ _______ _____ _____    ______ ____
ROOT
ATOM      1  C   UNL     1      34.015 -15.853 -24.259  0.00  0.00    -0.009 C 
ATOM      2  C   UNL     1      34.352 -15.959 -22.909  0.00  0.00    +0.020 C 
ATOM      3  C   UNL     1      34.250 -16.923 -25.123  0.00  0.00    -0.004 C 
ATOM      4  C   UNL     1      34.924 -17.135 -22.424  0.00  0.00    +0.143 C 
ATOM      5  C   UNL     1      34.822 -18.099 -24.637  0.00  0.00    +0.001 C 
ATOM      6  C   UNL     1      35.159 -18.204 -23.287  0.00  0.00    +0.024 C 
ENDROOT
BRANCH   4   9
ATOM      7  O   UNL     1      35.768 -18.315 -20.631  0.00  0.00    -0.126 OA
ATOM      8  O   UNL     1      35.060 -16.264 -20.292  0.00  0.00    -0.126 OA
ATOM      9  N   UNL     1      35.267 -17.244 -21.050  0.00  0.00    +0.058 N 
ENDBRANCH   4   9
BRANCH   1  10
ATOM     10  C   UNL     1      33.402 -14.597 -24.779  0.00  0.00    +0.136 C 
BRANCH  10  12
ATOM     11  O   UNL     1      32.224 -13.476 -22.965  0.00  0.00    -0.250 OA
ATOM     12  C   UNL     1      33.192 -13.541 -23.711  0.00  0.00    +0.318 C 
BRANCH  12  13
ATOM     13  O   UNL     1      34.218 -12.650 -23.671  0.00  0.00    -0.480 OA
ATOM     14  H   UNL     1      34.293 -12.055 -22.951  0.00  0.00    +0.295 HD
ENDBRANCH  12  13
ENDBRANCH  10  12
ENDBRANCH   1  10
TORSDOF 4
ENDMDL
