MODEL 1
REMARK VINA RESULT:     -10.1      0.000      0.000
REMARK  Name = 12082259
REMARK  9 active torsions:
REMARK  status: ('A' for Active; 'I' for Inactive)
REMARK    1  A    between atoms: C_1  and  C_3
REMARK    2  A    between atoms: C_1  and  C_10
REMARK    3  A    between atoms: C_1  and  O_19
REMARK    4  A    between atoms: C_10  and  O_11
REMARK    5  A    between atoms: O_11  and  C_12
REMARK    6  A    between atoms: C_12  and  C_13
REMARK    7  A    between atoms: C_13  and  N_15
REMARK    8  A    between atoms: O_19  and  C_20
REMARK    9  A    between atoms: C_22  and  C_29
REMARK                            x       y       z     vdW  Elec       q    Type
REMARK                         _______ _______ _______ _____ _____    ______ ____
ROOT
ATOM      1  C   UNL     1      34.633 -22.911 -16.328  0.00  0.00    +0.286 C 
ENDROOT
BRANCH   1   3
ATOM      2 CL   UNL     1      39.252 -25.986 -14.042  0.00  0.00    -0.082 Cl
ATOM      3  C   UNL     1      35.780 -23.674 -15.759  0.00  0.00    +0.028 C 
ATOM      4  C   UNL     1      37.017 -23.051 -15.589  0.00  0.00    +0.001 C 
ATOM      5  C   UNL     1      35.618 -25.011 -15.399  0.00  0.00    +0.001 C 
ATOM      6  C   UNL     1      38.091 -23.766 -15.058  0.00  0.00    +0.011 C 
ATOM      7  C   UNL     1      36.692 -25.727 -14.869  0.00  0.00    +0.011 C 
ATOM      8  C   UNL     1      37.928 -25.104 -14.698  0.00  0.00    +0.058 C 
ENDBRANCH   1   3
BRANCH   1  10
ATOM      9  O   UNL     1      33.091 -23.184 -14.460  0.00  0.00    -0.246 OA
ATOM     10  C   UNL     1      33.302 -23.240 -15.665  0.00  0.00    +0.362 C 
BRANCH  10  11
ATOM     11  O   UNL     1      32.389 -23.588 -16.619  0.00  0.00    -0.444 OA
BRANCH  11  12
ATOM     12  C   UNL     1      31.166 -22.843 -16.605  0.00  0.00    +0.230 C 
BRANCH  12  13
ATOM     13  C   UNL     1      30.057 -23.706 -16.036  0.00  0.00    +0.137 C 
BRANCH  13  15
ATOM     14  O   UNL     1      27.650 -23.559 -17.653  0.00  0.00    -0.275 OA
ATOM     15  N   UNL     1      28.871 -22.937 -15.770  0.00  0.00    -0.301 N 
ATOM     16  C   UNL     1      27.762 -22.928 -16.605  0.00  0.00    +0.223 C 
ATOM     17  C   UNL     1      26.653 -22.058 -16.079  0.00  0.00    +0.095 C 
ATOM     18  H   UNL     1      28.845 -22.387 -14.953  0.00  0.00    +0.150 HD
ENDBRANCH  13  15
ENDBRANCH  12  13
ENDBRANCH  11  12
ENDBRANCH  10  11
ENDBRANCH   1  10
BRANCH   1  19
ATOM     19  O   UNL     1      34.519 -23.195 -17.721  0.00  0.00    -0.463 OA
BRANCH  19  20
ATOM     20  C   UNL     1      34.916 -22.208 -18.582  0.00  0.00    +0.140 C 
ATOM     21  C   UNL     1      33.973 -21.550 -19.372  0.00  0.00    +0.041 C 
ATOM     22  C   UNL     1      34.377 -20.543 -20.248  0.00  0.00    +0.074 C 
ATOM     23  C   UNL     1      36.263 -21.859 -18.670  0.00  0.00    +0.037 C 
ATOM     24  C   UNL     1      35.725 -20.195 -20.335  0.00  0.00    +0.004 C 
ATOM     25  C   UNL     1      36.668 -20.853 -19.547  0.00  0.00    +0.003 C 
BRANCH  22  29
ATOM     26  F   UNL     1      33.770 -19.654 -22.385  0.00  0.00    -0.166 F 
ATOM     27  F   UNL     1      32.175 -20.496 -21.181  0.00  0.00    -0.166 F 
ATOM     28  F   UNL     1      33.068 -18.594 -20.621  0.00  0.00    -0.166 F 
ATOM     29  C   UNL     1      33.370 -19.839 -21.092  0.00  0.00    +0.419 C 
ENDBRANCH  22  29
ENDBRANCH  19  20
ENDBRANCH   1  19
TORSDOF 9
ENDMDL
MODEL 2
REMARK VINA RESULT:     -10.0      6.340      9.588
REMARK  Name = 12082259
REMARK  9 active torsions:
REMARK  status: ('A' for Active; 'I' for Inactive)
REMARK    1  A    between atoms: C_1  and  C_3
REMARK    2  A    between atoms: C_1  and  C_10
REMARK    3  A    between atoms: C_1  and  O_19
REMARK    4  A    between atoms: C_10  and  O_11
REMARK    5  A    between atoms: O_11  and  C_12
REMARK    6  A    between atoms: C_12  and  C_13
REMARK    7  A    between atoms: C_13  and  N_15
REMARK    8  A    between atoms: O_19  and  C_20
REMARK    9  A    between atoms: C_22  and  C_29
REMARK                            x       y       z     vdW  Elec       q    Type
REMARK                         _______ _______ _______ _____ _____    ______ ____
ROOT
ATOM      1  C   UNL     1      34.793 -18.169 -21.893  0.00  0.00    +0.286 C 
ENDROOT
BRANCH   1   3
ATOM      2 CL   UNL     1      32.235 -13.056 -20.067  0.00  0.00    -0.082 Cl
ATOM      3  C   UNL     1      34.157 -16.900 -21.438  0.00  0.00    +0.028 C 
ATOM      4  C   UNL     1      32.778 -16.843 -21.236  0.00  0.00    +0.001 C 
ATOM      5  C   UNL     1      34.941 -15.768 -21.216  0.00  0.00    +0.001 C 
ATOM      6  C   UNL     1      32.183 -15.655 -20.812  0.00  0.00    +0.011 C 
ATOM      7  C   UNL     1      34.347 -14.579 -20.793  0.00  0.00    +0.011 C 
ATOM      8  C   UNL     1      32.968 -14.522 -20.591  0.00  0.00    +0.058 C 
ENDBRANCH   1   3
BRANCH   1  10
ATOM      9  O   UNL     1      34.946 -19.312 -24.041  0.00  0.00    -0.246 OA
ATOM     10  C   UNL     1      34.936 -18.264 -23.407  0.00  0.00    +0.362 C 
BRANCH  10  11
ATOM     11  O   UNL     1      35.033 -17.009 -23.936  0.00  0.00    -0.444 OA
BRANCH  11  12
ATOM     12  C   UNL     1      34.743 -16.905 -25.334  0.00  0.00    +0.230 C 
BRANCH  12  13
ATOM     13  C   UNL     1      33.566 -15.970 -25.537  0.00  0.00    +0.137 C 
BRANCH  13  15
ATOM     14  O   UNL     1      33.334 -13.126 -26.070  0.00  0.00    -0.275 OA
ATOM     15  N   UNL     1      33.570 -14.898 -24.578  0.00  0.00    -0.301 N 
ATOM     16  C   UNL     1      33.454 -13.560 -24.927  0.00  0.00    +0.223 C 
ATOM     17  C   UNL     1      33.462 -12.650 -23.729  0.00  0.00    +0.095 C 
ATOM     18  H   UNL     1      33.661 -15.126 -23.624  0.00  0.00    +0.150 HD
ENDBRANCH  13  15
ENDBRANCH  12  13
ENDBRANCH  11  12
ENDBRANCH  10  11
ENDBRANCH   1  10
BRANCH   1  19
ATOM     19  O   UNL     1      34.010 -19.276 -21.450  0.00  0.00    -0.463 OA
BRANCH  19  20
ATOM     20  C   UNL     1      34.611 -20.141 -20.576  0.00  0.00    +0.140 C 
ATOM     21  C   UNL     1      33.834 -20.991 -19.789  0.00  0.00    +0.041 C 
ATOM     22  C   UNL     1      34.447 -21.873 -18.900  0.00  0.00    +0.074 C 
ATOM     23  C   UNL     1      36.001 -20.172 -20.471  0.00  0.00    +0.037 C 
ATOM     24  C   UNL     1      35.837 -21.904 -18.796  0.00  0.00    +0.004 C 
ATOM     25  C   UNL     1      36.614 -21.053 -19.581  0.00  0.00    +0.003 C 
BRANCH  22  29
ATOM     26  F   UNL     1      34.089 -22.937 -16.787  0.00  0.00    -0.166 F 
ATOM     27  F   UNL     1      32.325 -22.364 -17.911  0.00  0.00    -0.166 F 
ATOM     28  F   UNL     1      33.534 -24.045 -18.575  0.00  0.00    -0.166 F 
ATOM     29  C   UNL     1      33.616 -22.783 -18.060  0.00  0.00    +0.419 C 
ENDBRANCH  22  29
ENDBRANCH  19  20
ENDBRANCH   1  19
TORSDOF 9
ENDMDL
MODEL 3
REMARK VINA RESULT:     -10.0      1.696      2.443
REMARK  Name = 12082259
REMARK  9 active torsions:
REMARK  status: ('A' for Active; 'I' for Inactive)
REMARK    1  A    between atoms: C_1  and  C_3
REMARK    2  A    between atoms: C_1  and  C_10
REMARK    3  A    between atoms: C_1  and  O_19
REMARK    4  A    between atoms: C_10  and  O_11
REMARK    5  A    between atoms: O_11  and  C_12
REMARK    6  A    between atoms: C_12  and  C_13
REMARK    7  A    between atoms: C_13  and  N_15
REMARK    8  A    between atoms: O_19  and  C_20
REMARK    9  A    between atoms: C_22  and  C_29
REMARK                            x       y       z     vdW  Elec       q    Type
REMARK                         _______ _______ _______ _____ _____    ______ ____
ROOT
ATOM      1  C   UNL     1      34.493 -22.430 -17.642  0.00  0.00    +0.286 C 
ENDROOT
BRANCH   1   3
ATOM      2 CL   UNL     1      38.365 -24.400 -13.501  0.00  0.00    -0.082 Cl
ATOM      3  C   UNL     1      35.455 -22.920 -16.613  0.00  0.00    +0.028 C 
ATOM      4  C   UNL     1      35.035 -23.830 -15.642  0.00  0.00    +0.001 C 
ATOM      5  C   UNL     1      36.774 -22.469 -16.621  0.00  0.00    +0.001 C 
ATOM      6  C   UNL     1      35.935 -24.287 -14.680  0.00  0.00    +0.011 C 
ATOM      7  C   UNL     1      37.674 -22.926 -15.658  0.00  0.00    +0.011 C 
ATOM      8  C   UNL     1      37.255 -23.835 -14.688  0.00  0.00    +0.058 C 
ENDBRANCH   1   3
BRANCH   1  10
ATOM      9  O   UNL     1      33.453 -24.495 -18.415  0.00  0.00    -0.246 OA
ATOM     10  C   UNL     1      33.339 -23.392 -17.895  0.00  0.00    +0.362 C 
BRANCH  10  11
ATOM     11  O   UNL     1      32.176 -22.840 -17.442  0.00  0.00    -0.444 OA
BRANCH  11  12
ATOM     12  C   UNL     1      31.793 -23.210 -16.112  0.00  0.00    +0.230 C 
BRANCH  12  13
ATOM     13  C   UNL     1      30.490 -23.985 -16.160  0.00  0.00    +0.137 C 
BRANCH  13  15
ATOM     14  O   UNL     1      27.856 -24.005 -17.381  0.00  0.00    -0.275 OA
ATOM     15  N   UNL     1      29.366 -23.151 -15.827  0.00  0.00    -0.301 N 
ATOM     16  C   UNL     1      28.139 -23.231 -16.469  0.00  0.00    +0.223 C 
ATOM     17  C   UNL     1      27.132 -22.263 -15.909  0.00  0.00    +0.095 C 
ATOM     18  H   UNL     1      29.474 -22.489 -15.107  0.00  0.00    +0.150 HD
ENDBRANCH  13  15
ENDBRANCH  12  13
ENDBRANCH  11  12
ENDBRANCH  10  11
ENDBRANCH   1  10
BRANCH   1  19
ATOM     19  O   UNL     1      35.181 -22.225 -18.874  0.00  0.00    -0.463 OA
BRANCH  19  20
ATOM     20  C   UNL     1      34.712 -21.222 -19.678  0.00  0.00    +0.140 C 
ATOM     21  C   UNL     1      35.606 -20.405 -20.369  0.00  0.00    +0.041 C 
ATOM     22  C   UNL     1      35.128 -19.383 -21.189  0.00  0.00    +0.074 C 
ATOM     23  C   UNL     1      33.338 -21.016 -19.806  0.00  0.00    +0.037 C 
ATOM     24  C   UNL     1      33.754 -19.178 -21.317  0.00  0.00    +0.004 C 
ATOM     25  C   UNL     1      32.860 -19.994 -20.626  0.00  0.00    +0.003 C 
BRANCH  22  29
ATOM     26  F   UNL     1      37.386 -18.683 -21.552  0.00  0.00    -0.166 F 
ATOM     27  F   UNL     1      36.075 -18.711 -23.280  0.00  0.00    -0.166 F 
ATOM     28  F   UNL     1      35.825 -17.182 -21.754  0.00  0.00    -0.166 F 
ATOM     29  C   UNL     1      36.084 -18.511 -21.929  0.00  0.00    +0.419 C 
ENDBRANCH  22  29
ENDBRANCH  19  20
ENDBRANCH   1  19
TORSDOF 9
ENDMDL
MODEL 4
REMARK VINA RESULT:      -9.7      3.900      6.946
REMARK  Name = 12082259
REMARK  9 active torsions:
REMARK  status: ('A' for Active; 'I' for Inactive)
REMARK    1  A    between atoms: C_1  and  C_3
REMARK    2  A    between atoms: C_1  and  C_10
REMARK    3  A    between atoms: C_1  and  O_19
REMARK    4  A    between atoms: C_10  and  O_11
REMARK    5  A    between atoms: O_11  and  C_12
REMARK    6  A    between atoms: C_12  and  C_13
REMARK    7  A    between atoms: C_13  and  N_15
REMARK    8  A    between atoms: O_19  and  C_20
REMARK    9  A    between atoms: C_22  and  C_29
REMARK                            x       y       z     vdW  Elec       q    Type
REMARK                         _______ _______ _______ _____ _____    ______ ____
ROOT
ATOM      1  C   UNL     1      35.346 -22.958 -16.007  0.00  0.00    +0.286 C 
ENDROOT
BRANCH   1   3
ATOM      2 CL   UNL     1      35.717 -20.347 -21.398  0.00  0.00    -0.082 Cl
ATOM      3  C   UNL     1      35.439 -22.310 -17.347  0.00  0.00    +0.028 C 
ATOM      4  C   UNL     1      36.625 -21.691 -17.742  0.00  0.00    +0.001 C 
ATOM      5  C   UNL     1      34.339 -22.322 -18.205  0.00  0.00    +0.001 C 
ATOM      6  C   UNL     1      36.711 -21.084 -18.994  0.00  0.00    +0.011 C 
ATOM      7  C   UNL     1      34.425 -21.714 -19.458  0.00  0.00    +0.011 C 
ATOM      8  C   UNL     1      35.611 -21.095 -19.852  0.00  0.00    +0.058 C 
ENDBRANCH   1   3
BRANCH   1  10
ATOM      9  O   UNL     1      37.623 -22.838 -15.143  0.00  0.00    -0.246 OA
ATOM     10  C   UNL     1      36.674 -23.518 -15.515  0.00  0.00    +0.362 C 
BRANCH  10  11
ATOM     11  O   UNL     1      36.632 -24.883 -15.539  0.00  0.00    -0.444 OA
BRANCH  11  12
ATOM     12  C   UNL     1      37.749 -25.546 -14.936  0.00  0.00    +0.230 C 
BRANCH  12  13
ATOM     13  C   UNL     1      37.261 -26.418 -13.795  0.00  0.00    +0.137 C 
BRANCH  13  15
ATOM     14  O   UNL     1      37.998 -24.743 -11.541  0.00  0.00    -0.275 OA
ATOM     15  N   UNL     1      36.379 -25.696 -12.917  0.00  0.00    -0.301 N 
ATOM     16  C   UNL     1      36.824 -24.916 -11.859  0.00  0.00    +0.223 C 
ATOM     17  C   UNL     1      35.695 -24.253 -11.118  0.00  0.00    +0.095 C 
ATOM     18  H   UNL     1      35.409 -25.760 -13.075  0.00  0.00    +0.150 HD
ENDBRANCH  13  15
ENDBRANCH  12  13
ENDBRANCH  11  12
ENDBRANCH  10  11
ENDBRANCH   1  10
BRANCH   1  19
ATOM     19  O   UNL     1      34.404 -24.028 -16.063  0.00  0.00    -0.463 OA
BRANCH  19  20
ATOM     20  C   UNL     1      33.283 -23.899 -15.289  0.00  0.00    +0.140 C 
ATOM     21  C   UNL     1      32.078 -23.501 -15.867  0.00  0.00    +0.041 C 
ATOM     22  C   UNL     1      30.935 -23.370 -15.079  0.00  0.00    +0.074 C 
ATOM     23  C   UNL     1      33.345 -24.165 -13.921  0.00  0.00    +0.037 C 
ATOM     24  C   UNL     1      30.998 -23.637 -13.712  0.00  0.00    +0.004 C 
ATOM     25  C   UNL     1      32.202 -24.034 -13.133  0.00  0.00    +0.003 C 
BRANCH  22  29
ATOM     26  F   UNL     1      28.761 -23.970 -15.876  0.00  0.00    -0.166 F 
ATOM     27  F   UNL     1      28.969 -22.012 -14.965  0.00  0.00    -0.166 F 
ATOM     28  F   UNL     1      29.816 -22.388 -16.933  0.00  0.00    -0.166 F 
ATOM     29  C   UNL     1      29.647 -22.945 -15.697  0.00  0.00    +0.419 C 
ENDBRANCH  22  29
ENDBRANCH  19  20
ENDBRANCH   1  19
TORSDOF 9
ENDMDL
MODEL 5
REMARK VINA RESULT:      -9.7      3.144      5.986
REMARK  Name = 12082259
REMARK  9 active torsions:
REMARK  status: ('A' for Active; 'I' for Inactive)
REMARK    1  A    between atoms: C_1  and  C_3
REMARK    2  A    between atoms: C_1  and  C_10
REMARK    3  A    between atoms: C_1  and  O_19
REMARK    4  A    between atoms: C_10  and  O_11
REMARK    5  A    between atoms: O_11  and  C_12
REMARK    6  A    between atoms: C_12  and  C_13
REMARK    7  A    between atoms: C_13  and  N_15
REMARK    8  A    between atoms: O_19  and  C_20
REMARK    9  A    between atoms: C_22  and  C_29
REMARK                            x       y       z     vdW  Elec       q    Type
REMARK                         _______ _______ _______ _____ _____    ______ ____
ROOT
ATOM      1  C   UNL     1      34.135 -23.682 -16.126  0.00  0.00    +0.286 C 
ENDROOT
BRANCH   1   3
ATOM      2 CL   UNL     1      38.676 -25.297 -12.550  0.00  0.00    -0.082 Cl
ATOM      3  C   UNL     1      35.262 -24.083 -15.237  0.00  0.00    +0.028 C 
ATOM      4  C   UNL     1      35.808 -23.162 -14.343  0.00  0.00    +0.001 C 
ATOM      5  C   UNL     1      35.772 -25.380 -15.300  0.00  0.00    +0.001 C 
ATOM      6  C   UNL     1      36.864 -23.537 -13.512  0.00  0.00    +0.011 C 
ATOM      7  C   UNL     1      36.829 -25.755 -14.470  0.00  0.00    +0.011 C 
ATOM      8  C   UNL     1      37.374 -24.834 -13.576  0.00  0.00    +0.058 C 
ENDBRANCH   1   3
BRANCH   1  10
ATOM      9  O   UNL     1      35.730 -22.489 -17.533  0.00  0.00    -0.246 OA
ATOM     10  C   UNL     1      34.577 -22.844 -17.319  0.00  0.00    +0.362 C 
BRANCH  10  11
ATOM     11  O   UNL     1      33.498 -22.569 -18.110  0.00  0.00    -0.444 OA
BRANCH  11  12
ATOM     12  C   UNL     1      33.802 -22.096 -19.426  0.00  0.00    +0.230 C 
BRANCH  12  13
ATOM     13  C   UNL     1      33.081 -20.784 -19.670  0.00  0.00    +0.137 C 
BRANCH  13  15
ATOM     14  O   UNL     1      35.499 -19.386 -20.461  0.00  0.00    -0.275 OA
ATOM     15  N   UNL     1      33.392 -20.241 -20.964  0.00  0.00    -0.301 N 
ATOM     16  C   UNL     1      34.580 -19.584 -21.252  0.00  0.00    +0.223 C 
ATOM     17  C   UNL     1      34.658 -19.139 -22.687  0.00  0.00    +0.095 C 
ATOM     18  H   UNL     1      32.727 -20.340 -21.684  0.00  0.00    +0.150 HD
ENDBRANCH  13  15
ENDBRANCH  12  13
ENDBRANCH  11  12
ENDBRANCH  10  11
ENDBRANCH   1  10
BRANCH   1  19
ATOM     19  O   UNL     1      33.187 -22.924 -15.376  0.00  0.00    -0.463 OA
BRANCH  19  20
ATOM     20  C   UNL     1      31.984 -23.525 -15.124  0.00  0.00    +0.140 C 
ATOM     21  C   UNL     1      30.849 -23.143 -15.838  0.00  0.00    +0.041 C 
ATOM     22  C   UNL     1      29.623 -23.757 -15.582  0.00  0.00    +0.074 C 
ATOM     23  C   UNL     1      31.893 -24.522 -14.152  0.00  0.00    +0.037 C 
ATOM     24  C   UNL     1      29.533 -24.753 -14.610  0.00  0.00    +0.004 C 
ATOM     25  C   UNL     1      30.667 -25.136 -13.896  0.00  0.00    +0.003 C 
BRANCH  22  29
ATOM     26  F   UNL     1      28.625 -22.299 -17.195  0.00  0.00    -0.166 F 
ATOM     27  F   UNL     1      27.897 -24.341 -17.130  0.00  0.00    -0.166 F 
ATOM     28  F   UNL     1      27.385 -22.957 -15.533  0.00  0.00    -0.166 F 
ATOM     29  C   UNL     1      28.410 -23.348 -16.346  0.00  0.00    +0.419 C 
ENDBRANCH  22  29
ENDBRANCH  19  20
ENDBRANCH   1  19
TORSDOF 9
ENDMDL
MODEL 6
REMARK VINA RESULT:      -9.6      3.927      7.348
REMARK  Name = 12082259
REMARK  9 active torsions:
REMARK  status: ('A' for Active; 'I' for Inactive)
REMARK    1  A    between atoms: C_1  and  C_3
REMARK    2  A    between atoms: C_1  and  C_10
REMARK    3  A    between atoms: C_1  and  O_19
REMARK    4  A    between atoms: C_10  and  O_11
REMARK    5  A    between atoms: O_11  and  C_12
REMARK    6  A    between atoms: C_12  and  C_13
REMARK    7  A    between atoms: C_13  and  N_15
REMARK    8  A    between atoms: O_19  and  C_20
REMARK    9  A    between atoms: C_22  and  C_29
REMARK                            x       y       z     vdW  Elec       q    Type
REMARK                         _______ _______ _______ _____ _____    ______ ____
ROOT
ATOM      1  C   UNL     1      34.592 -23.548 -15.623  0.00  0.00    +0.286 C 
ENDROOT
BRANCH   1   3
ATOM      2 CL   UNL     1      36.852 -20.491 -20.267  0.00  0.00    -0.082 Cl
ATOM      3  C   UNL     1      35.154 -22.790 -16.777  0.00  0.00    +0.028 C 
ATOM      4  C   UNL     1      36.425 -22.221 -16.686  0.00  0.00    +0.001 C 
ATOM      5  C   UNL     1      34.409 -22.647 -17.947  0.00  0.00    +0.001 C 
ATOM      6  C   UNL     1      36.950 -21.510 -17.765  0.00  0.00    +0.011 C 
ATOM      7  C   UNL     1      34.934 -21.935 -19.026  0.00  0.00    +0.011 C 
ATOM      8  C   UNL     1      36.204 -21.367 -18.935  0.00  0.00    +0.058 C 
ENDBRANCH   1   3
BRANCH   1  10
ATOM      9  O   UNL     1      35.977 -25.554 -15.659  0.00  0.00    -0.246 OA
ATOM     10  C   UNL     1      35.558 -24.578 -15.050  0.00  0.00    +0.362 C 
BRANCH  10  11
ATOM     11  O   UNL     1      35.888 -24.232 -13.771  0.00  0.00    -0.444 OA
BRANCH  11  12
ATOM     12  C   UNL     1      36.370 -25.300 -12.948  0.00  0.00    +0.230 C 
BRANCH  12  13
ATOM     13  C   UNL     1      37.717 -24.919 -12.365  0.00  0.00    +0.137 C 
BRANCH  13  15
ATOM     14  O   UNL     1      39.110 -24.253 -14.824  0.00  0.00    -0.275 OA
ATOM     15  N   UNL     1      38.789 -25.649 -12.988  0.00  0.00    -0.301 N 
ATOM     16  C   UNL     1      39.397 -25.253 -14.170  0.00  0.00    +0.223 C 
ATOM     17  C   UNL     1      40.505 -26.183 -14.587  0.00  0.00    +0.095 C 
ATOM     18  H   UNL     1      39.106 -26.474 -12.553  0.00  0.00    +0.150 HD
ENDBRANCH  13  15
ENDBRANCH  12  13
ENDBRANCH  11  12
ENDBRANCH  10  11
ENDBRANCH   1  10
BRANCH   1  19
ATOM     19  O   UNL     1      33.409 -24.230 -16.036  0.00  0.00    -0.463 OA
BRANCH  19  20
ATOM     20  C   UNL     1      32.249 -23.883 -15.398  0.00  0.00    +0.140 C 
ATOM     21  C   UNL     1      31.056 -23.797 -16.116  0.00  0.00    +0.041 C 
ATOM     22  C   UNL     1      29.874 -23.445 -15.466  0.00  0.00    +0.074 C 
ATOM     23  C   UNL     1      32.258 -23.616 -14.029  0.00  0.00    +0.037 C 
ATOM     24  C   UNL     1      29.884 -23.179 -14.097  0.00  0.00    +0.004 C 
ATOM     25  C   UNL     1      31.076 -23.264 -13.379  0.00  0.00    +0.003 C 
BRANCH  22  29
ATOM     26  F   UNL     1      27.533 -22.949 -15.480  0.00  0.00    -0.166 F 
ATOM     27  F   UNL     1      28.650 -22.475 -17.278  0.00  0.00    -0.166 F 
ATOM     28  F   UNL     1      28.228 -24.550 -16.779  0.00  0.00    -0.166 F 
ATOM     29  C   UNL     1      28.599 -23.354 -16.234  0.00  0.00    +0.419 C 
ENDBRANCH  22  29
ENDBRANCH  19  20
ENDBRANCH   1  19
TORSDOF 9
ENDMDL
MODEL 7
REMARK VINA RESULT:      -9.5     10.577     13.240
REMARK  Name = 12082259
REMARK  9 active torsions:
REMARK  status: ('A' for Active; 'I' for Inactive)
REMARK    1  A    between atoms: C_1  and  C_3
REMARK    2  A    between atoms: C_1  and  C_10
REMARK    3  A    between atoms: C_1  and  O_19
REMARK    4  A    between atoms: C_10  and  O_11
REMARK    5  A    between atoms: O_11  and  C_12
REMARK    6  A    between atoms: C_12  and  C_13
REMARK    7  A    between atoms: C_13  and  N_15
REMARK    8  A    between atoms: O_19  and  C_20
REMARK    9  A    between atoms: C_22  and  C_29
REMARK                            x       y       z     vdW  Elec       q    Type
REMARK                         _______ _______ _______ _____ _____    ______ ____
ROOT
ATOM      1  C   UNL     1      33.416 -12.896 -22.822  0.00  0.00    +0.286 C 
ENDROOT
BRANCH   1   3
ATOM      2 CL   UNL     1      35.101 -18.428 -24.427  0.00  0.00    -0.082 Cl
ATOM      3  C   UNL     1      33.836 -14.270 -23.221  0.00  0.00    +0.028 C 
ATOM      4  C   UNL     1      33.463 -14.780 -24.466  0.00  0.00    +0.001 C 
ATOM      5  C   UNL     1      34.599 -15.047 -22.350  0.00  0.00    +0.001 C 
ATOM      6  C   UNL     1      33.854 -16.065 -24.838  0.00  0.00    +0.011 C 
ATOM      7  C   UNL     1      34.989 -16.334 -22.723  0.00  0.00    +0.011 C 
ATOM      8  C   UNL     1      34.617 -16.842 -23.966  0.00  0.00    +0.058 C 
ENDBRANCH   1   3
BRANCH   1  10
ATOM      9  O   UNL     1      32.281 -13.628 -20.792  0.00  0.00    -0.246 OA
ATOM     10  C   UNL     1      32.320 -12.884 -21.764  0.00  0.00    +0.362 C 
BRANCH  10  11
ATOM     11  O   UNL     1      31.408 -11.912 -22.062  0.00  0.00    -0.444 OA
BRANCH  11  12
ATOM     12  C   UNL     1      30.940 -11.142 -20.950  0.00  0.00    +0.230 C 
BRANCH  12  13
ATOM     13  C   UNL     1      31.994 -10.123 -20.562  0.00  0.00    +0.137 C 
BRANCH  13  15
ATOM     14  O   UNL     1      32.783  -7.545 -19.486  0.00  0.00    -0.275 OA
ATOM     15  N   UNL     1      31.697  -8.823 -21.101  0.00  0.00    -0.301 N 
ATOM     16  C   UNL     1      32.118  -7.638 -20.515  0.00  0.00    +0.223 C 
ATOM     17  C   UNL     1      31.692  -6.426 -21.297  0.00  0.00    +0.095 C 
ATOM     18  H   UNL     1      31.167  -8.772 -21.930  0.00  0.00    +0.150 HD
ENDBRANCH  13  15
ENDBRANCH  12  13
ENDBRANCH  11  12
ENDBRANCH  10  11
ENDBRANCH   1  10
BRANCH   1  19
ATOM     19  O   UNL     1      32.938 -12.195 -23.968  0.00  0.00    -0.463 OA
BRANCH  19  20
ATOM     20  C   UNL     1      33.732 -11.189 -24.447  0.00  0.00    +0.140 C 
ATOM     21  C   UNL     1      33.692  -9.926 -23.856  0.00  0.00    +0.041 C 
ATOM     22  C   UNL     1      34.502  -8.902 -24.344  0.00  0.00    +0.074 C 
ATOM     23  C   UNL     1      34.584 -11.427 -25.526  0.00  0.00    +0.037 C 
ATOM     24  C   UNL     1      35.354  -9.140 -25.422  0.00  0.00    +0.004 C 
ATOM     25  C   UNL     1      35.394 -10.402 -26.014  0.00  0.00    +0.003 C 
BRANCH  22  29
ATOM     26  F   UNL     1      35.319  -6.654 -24.279  0.00  0.00    -0.166 F 
ATOM     27  F   UNL     1      33.232  -6.956 -23.775  0.00  0.00    -0.166 F 
ATOM     28  F   UNL     1      34.784  -7.582 -22.386  0.00  0.00    -0.166 F 
ATOM     29  C   UNL     1      34.459  -7.552 -23.712  0.00  0.00    +0.419 C 
ENDBRANCH  22  29
ENDBRANCH  19  20
ENDBRANCH   1  19
TORSDOF 9
ENDMDL
MODEL 8
REMARK VINA RESULT:      -9.4      9.721     12.637
REMARK  Name = 12082259
REMARK  9 active torsions:
REMARK  status: ('A' for Active; 'I' for Inactive)
REMARK    1  A    between atoms: C_1  and  C_3
REMARK    2  A    between atoms: C_1  and  C_10
REMARK    3  A    between atoms: C_1  and  O_19
REMARK    4  A    between atoms: C_10  and  O_11
REMARK    5  A    between atoms: O_11  and  C_12
REMARK    6  A    between atoms: C_12  and  C_13
REMARK    7  A    between atoms: C_13  and  N_15
REMARK    8  A    between atoms: O_19  and  C_20
REMARK    9  A    between atoms: C_22  and  C_29
REMARK                            x       y       z     vdW  Elec       q    Type
REMARK                         _______ _______ _______ _____ _____    ______ ____
ROOT
ATOM      1  C   UNL     1      32.921 -13.326 -21.830  0.00  0.00    +0.286 C 
ENDROOT
BRANCH   1   3
ATOM      2 CL   UNL     1      33.770 -13.206 -27.770  0.00  0.00    -0.082 Cl
ATOM      3  C   UNL     1      33.133 -13.296 -23.305  0.00  0.00    +0.028 C 
ATOM      4  C   UNL     1      33.648 -12.151 -23.913  0.00  0.00    +0.001 C 
ATOM      5  C   UNL     1      32.815 -14.413 -24.078  0.00  0.00    +0.001 C 
ATOM      6  C   UNL     1      33.845 -12.123 -25.294  0.00  0.00    +0.011 C 
ATOM      7  C   UNL     1      33.012 -14.385 -25.459  0.00  0.00    +0.011 C 
ATOM      8  C   UNL     1      33.526 -13.240 -26.066  0.00  0.00    +0.058 C 
ENDBRANCH   1   3
BRANCH   1  10
ATOM      9  O   UNL     1      31.960 -15.463 -21.155  0.00  0.00    -0.246 OA
ATOM     10  C   UNL     1      32.940 -14.733 -21.246  0.00  0.00    +0.362 C 
BRANCH  10  11
ATOM     11  O   UNL     1      34.211 -15.051 -20.860  0.00  0.00    -0.444 OA
BRANCH  11  12
ATOM     12  C   UNL     1      34.597 -16.414 -21.070  0.00  0.00    +0.230 C 
BRANCH  12  13
ATOM     13  C   UNL     1      35.240 -16.551 -22.437  0.00  0.00    +0.137 C 
BRANCH  13  15
ATOM     14  O   UNL     1      34.950 -17.176 -25.257  0.00  0.00    -0.275 OA
ATOM     15  N   UNL     1      34.965 -17.835 -23.024  0.00  0.00    -0.301 N 
ATOM     16  C   UNL     1      34.843 -18.040 -24.391  0.00  0.00    +0.223 C 
ATOM     17  C   UNL     1      34.580 -19.481 -24.736  0.00  0.00    +0.095 C 
ATOM     18  H   UNL     1      34.859 -18.609 -22.424  0.00  0.00    +0.150 HD
ENDBRANCH  13  15
ENDBRANCH  12  13
ENDBRANCH  11  12
ENDBRANCH  10  11
ENDBRANCH   1  10
BRANCH   1  19
ATOM     19  O   UNL     1      31.662 -12.733 -21.520  0.00  0.00    -0.463 OA
BRANCH  19  20
ATOM     20  C   UNL     1      31.695 -11.524 -20.878  0.00  0.00    +0.140 C 
ATOM     21  C   UNL     1      31.828 -10.347 -21.614  0.00  0.00    +0.041 C 
ATOM     22  C   UNL     1      31.861  -9.116 -20.960  0.00  0.00    +0.074 C 
ATOM     23  C   UNL     1      31.595 -11.470 -19.488  0.00  0.00    +0.037 C 
ATOM     24  C   UNL     1      31.761  -9.062 -19.570  0.00  0.00    +0.004 C 
ATOM     25  C   UNL     1      31.628 -10.239 -18.834  0.00  0.00    +0.003 C 
BRANCH  22  29
ATOM     26  F   UNL     1      31.821  -6.724 -21.005  0.00  0.00    -0.166 F 
ATOM     27  F   UNL     1      33.232  -7.708 -22.325  0.00  0.00    -0.166 F 
ATOM     28  F   UNL     1      31.104  -7.773 -22.770  0.00  0.00    -0.166 F 
ATOM     29  C   UNL     1      32.003  -7.857 -21.746  0.00  0.00    +0.419 C 
ENDBRANCH  22  29
ENDBRANCH  19  20
ENDBRANCH   1  19
TORSDOF 9
ENDMDL
MODEL 9
REMARK VINA RESULT:      -9.4     11.425     14.633
REMARK  Name = 12082259
REMARK  9 active torsions:
REMARK  status: ('A' for Active; 'I' for Inactive)
REMARK    1  A    between atoms: C_1  and  C_3
REMARK    2  A    between atoms: C_1  and  C_10
REMARK    3  A    between atoms: C_1  and  O_19
REMARK    4  A    between atoms: C_10  and  O_11
REMARK    5  A    between atoms: O_11  and  C_12
REMARK    6  A    between atoms: C_12  and  C_13
REMARK    7  A    between atoms: C_13  and  N_15
REMARK    8  A    between atoms: O_19  and  C_20
REMARK    9  A    between atoms: C_22  and  C_29
REMARK                            x       y       z     vdW  Elec       q    Type
REMARK                         _______ _______ _______ _____ _____    ______ ____
ROOT
ATOM      1  C   UNL     1      32.143  -9.823 -23.000  0.00  0.00    +0.286 C 
ENDROOT
BRANCH   1   3
ATOM      2 CL   UNL     1      31.358  -3.875 -23.153  0.00  0.00    -0.082 Cl
ATOM      3  C   UNL     1      31.947  -8.346 -23.038  0.00  0.00    +0.028 C 
ATOM      4  C   UNL     1      31.119  -7.776 -24.005  0.00  0.00    +0.001 C 
ATOM      5  C   UNL     1      32.593  -7.533 -22.107  0.00  0.00    +0.001 C 
ATOM      6  C   UNL     1      30.936  -6.394 -24.041  0.00  0.00    +0.011 C 
ATOM      7  C   UNL     1      32.412  -6.150 -22.143  0.00  0.00    +0.011 C 
ATOM      8  C   UNL     1      31.584  -5.581 -23.110  0.00  0.00    +0.058 C 
ENDBRANCH   1   3
BRANCH   1  10
ATOM      9  O   UNL     1      31.402  -9.913 -20.679  0.00  0.00    -0.246 OA
ATOM     10  C   UNL     1      31.558 -10.478 -21.756  0.00  0.00    +0.362 C 
BRANCH  10  11
ATOM     11  O   UNL     1      31.225 -11.773 -22.033  0.00  0.00    -0.444 OA
BRANCH  11  12
ATOM     12  C   UNL     1      31.971 -12.767 -21.322  0.00  0.00    +0.230 C 
BRANCH  12  13
ATOM     13  C   UNL     1      32.460 -13.822 -22.296  0.00  0.00    +0.137 C 
BRANCH  13  15
ATOM     14  O   UNL     1      34.945 -15.110 -23.069  0.00  0.00    -0.275 OA
ATOM     15  N   UNL     1      33.136 -14.896 -21.619  0.00  0.00    -0.301 N 
ATOM     16  C   UNL     1      34.326 -15.452 -22.064  0.00  0.00    +0.223 C 
ATOM     17  C   UNL     1      34.827 -16.542 -21.156  0.00  0.00    +0.095 C 
ATOM     18  H   UNL     1      32.731 -15.255 -20.796  0.00  0.00    +0.150 HD
ENDBRANCH  13  15
ENDBRANCH  12  13
ENDBRANCH  11  12
ENDBRANCH  10  11
ENDBRANCH   1  10
BRANCH   1  19
ATOM     19  O   UNL     1      33.538 -10.117 -23.044  0.00  0.00    -0.463 OA
BRANCH  19  20
ATOM     20  C   UNL     1      34.047 -10.497 -24.256  0.00  0.00    +0.140 C 
ATOM     21  C   UNL     1      33.465 -11.554 -24.956  0.00  0.00    +0.041 C 
ATOM     22  C   UNL     1      33.983 -11.941 -26.192  0.00  0.00    +0.074 C 
ATOM     23  C   UNL     1      35.146  -9.827 -24.793  0.00  0.00    +0.037 C 
ATOM     24  C   UNL     1      35.082 -11.270 -26.728  0.00  0.00    +0.004 C 
ATOM     25  C   UNL     1      35.663 -10.214 -26.029  0.00  0.00    +0.003 C 
BRANCH  22  29
ATOM     26  F   UNL     1      32.193 -12.737 -27.567  0.00  0.00    -0.166 F 
ATOM     27  F   UNL     1      34.159 -13.580 -27.926  0.00  0.00    -0.166 F 
ATOM     28  F   UNL     1      33.054 -14.129 -26.135  0.00  0.00    -0.166 F 
ATOM     29  C   UNL     1      33.361 -13.071 -26.941  0.00  0.00    +0.419 C 
ENDBRANCH  22  29
ENDBRANCH  19  20
ENDBRANCH   1  19
TORSDOF 9
ENDMDL
