MODEL 1
REMARK VINA RESULT:      -7.6      0.000      0.000
REMARK  Name = 1701
REMARK  4 active torsions:
REMARK  status: ('A' for Active; 'I' for Inactive)
REMARK    1  A    between atoms: C_1  and  C_11
REMARK    2  A    between atoms: C_4  and  S_7
REMARK    3  A    between atoms: C_11  and  C_12
REMARK    4  A    between atoms: C_12  and  N_13
REMARK                            x       y       z     vdW  Elec       q    Type
REMARK                         _______ _______ _______ _____ _____    ______ ____
ROOT
ATOM      1  C   UNL     1      34.846 -19.134 -21.229  0.00  0.00    -0.024 C 
ATOM      2  C   UNL     1      33.498 -19.400 -20.994  0.00  0.00    -0.003 C 
ATOM      3  C   UNL     1      35.827 -19.958 -20.676  0.00  0.00    -0.003 C 
ATOM      4  C   UNL     1      34.109 -21.315 -19.653  0.00  0.00    +0.138 C 
ATOM      5  C   UNL     1      33.129 -20.491 -20.206  0.00  0.00    +0.021 C 
ATOM      6  C   UNL     1      35.458 -21.049 -19.888  0.00  0.00    +0.021 C 
ENDROOT
BRANCH   4   7
ATOM      7  S   UNL     1      33.647 -22.680 -18.668  0.00  0.00    +0.148 S 
ATOM      8  F   UNL     1      34.604 -22.699 -17.400  0.00  0.00    -0.056 F 
ATOM      9  O   UNL     1      32.322 -22.419 -18.139  0.00  0.00    -0.138 OA
ATOM     10  O   UNL     1      33.967 -23.888 -19.404  0.00  0.00    -0.138 OA
ENDBRANCH   4   7
BRANCH   1  11
ATOM     11  C   UNL     1      35.240 -17.968 -22.070  0.00  0.00    +0.002 C 
BRANCH  11  12
ATOM     12  C   UNL     1      35.106 -18.270 -23.571  0.00  0.00    -0.081 C 
BRANCH  12  13
ATOM     13  N   UNL     1      35.284 -17.069 -24.380  0.00  0.00    +0.381 N 
ATOM     14  H   UNL     1      36.039 -17.218 -25.049  0.00  0.00    -0.089 HD
ATOM     15  H   UNL     1      35.518 -16.283 -23.775  0.00  0.00    -0.089 HD
ATOM     16  H   UNL     1      34.420 -16.866 -24.882  0.00  0.00    -0.089 HD
ENDBRANCH  12  13
ENDBRANCH  11  12
ENDBRANCH   1  11
TORSDOF 4
ENDMDL
MODEL 2
REMARK VINA RESULT:      -7.6      0.021      1.340
REMARK  Name = 1701
REMARK  4 active torsions:
REMARK  status: ('A' for Active; 'I' for Inactive)
REMARK    1  A    between atoms: C_1  and  C_11
REMARK    2  A    between atoms: C_4  and  S_7
REMARK    3  A    between atoms: C_11  and  C_12
REMARK    4  A    between atoms: C_12  and  N_13
REMARK                            x       y       z     vdW  Elec       q    Type
REMARK                         _______ _______ _______ _____ _____    ______ ____
ROOT
ATOM      1  C   UNL     1      34.858 -19.142 -21.226  0.00  0.00    -0.024 C 
ATOM      2  C   UNL     1      35.835 -19.971 -20.674  0.00  0.00    -0.003 C 
ATOM      3  C   UNL     1      33.508 -19.403 -20.990  0.00  0.00    -0.003 C 
ATOM      4  C   UNL     1      34.113 -21.320 -19.649  0.00  0.00    +0.138 C 
ATOM      5  C   UNL     1      35.462 -21.060 -19.886  0.00  0.00    +0.021 C 
ATOM      6  C   UNL     1      33.135 -20.492 -20.201  0.00  0.00    +0.021 C 
ENDROOT
BRANCH   4   7
ATOM      7  S   UNL     1      33.647 -22.682 -18.661  0.00  0.00    +0.148 S 
ATOM      8  F   UNL     1      34.602 -22.697 -17.391  0.00  0.00    -0.056 F 
ATOM      9  O   UNL     1      32.321 -22.418 -18.137  0.00  0.00    -0.138 OA
ATOM     10  O   UNL     1      33.969 -23.892 -19.392  0.00  0.00    -0.138 OA
ENDBRANCH   4   7
BRANCH   1  11
ATOM     11  C   UNL     1      35.256 -17.979 -22.070  0.00  0.00    +0.002 C 
BRANCH  11  12
ATOM     12  C   UNL     1      35.042 -18.253 -23.566  0.00  0.00    -0.081 C 
BRANCH  12  13
ATOM     13  N   UNL     1      35.285 -17.063 -24.372  0.00  0.00    +0.381 N 
ATOM     14  H   UNL     1      36.075 -16.545 -23.986  0.00  0.00    -0.089 HD
ATOM     15  H   UNL     1      34.455 -16.471 -24.364  0.00  0.00    -0.089 HD
ATOM     16  H   UNL     1      35.497 -17.338 -25.331  0.00  0.00    -0.089 HD
ENDBRANCH  12  13
ENDBRANCH  11  12
ENDBRANCH   1  11
TORSDOF 4
ENDMDL
MODEL 3
REMARK VINA RESULT:      -7.0      4.735      5.712
REMARK  Name = 1701
REMARK  4 active torsions:
REMARK  status: ('A' for Active; 'I' for Inactive)
REMARK    1  A    between atoms: C_1  and  C_11
REMARK    2  A    between atoms: C_4  and  S_7
REMARK    3  A    between atoms: C_11  and  C_12
REMARK    4  A    between atoms: C_12  and  N_13
REMARK                            x       y       z     vdW  Elec       q    Type
REMARK                         _______ _______ _______ _____ _____    ______ ____
ROOT
ATOM      1  C   UNL     1      34.091 -22.058 -19.024  0.00  0.00    -0.024 C 
ATOM      2  C   UNL     1      33.222 -21.189 -19.683  0.00  0.00    -0.003 C 
ATOM      3  C   UNL     1      35.471 -21.883 -19.138  0.00  0.00    -0.003 C 
ATOM      4  C   UNL     1      35.110 -19.971 -20.571  0.00  0.00    +0.138 C 
ATOM      5  C   UNL     1      33.731 -20.146 -20.457  0.00  0.00    +0.021 C 
ATOM      6  C   UNL     1      35.980 -20.839 -19.911  0.00  0.00    +0.021 C 
ENDROOT
BRANCH   4   7
ATOM      7  S   UNL     1      35.746 -18.664 -21.537  0.00  0.00    +0.148 S 
ATOM      8  F   UNL     1      37.331 -18.773 -21.500  0.00  0.00    -0.056 F 
ATOM      9  O   UNL     1      35.380 -18.913 -22.918  0.00  0.00    -0.138 OA
ATOM     10  O   UNL     1      35.435 -17.419 -20.862  0.00  0.00    -0.138 OA
ENDBRANCH   4   7
BRANCH   1  11
ATOM     11  C   UNL     1      33.547 -23.174 -18.198  0.00  0.00    +0.002 C 
BRANCH  11  12
ATOM     12  C   UNL     1      34.126 -23.172 -16.775  0.00  0.00    -0.081 C 
BRANCH  12  13
ATOM     13  N   UNL     1      33.098 -23.433 -15.775  0.00  0.00    +0.381 N 
ATOM     14  H   UNL     1      32.206 -23.601 -16.239  0.00  0.00    -0.089 HD
ATOM     15  H   UNL     1      33.012 -22.626 -15.157  0.00  0.00    -0.089 HD
ATOM     16  H   UNL     1      33.356 -24.254 -15.227  0.00  0.00    -0.089 HD
ENDBRANCH  12  13
ENDBRANCH  11  12
ENDBRANCH   1  11
TORSDOF 4
ENDMDL
MODEL 4
REMARK VINA RESULT:      -6.8      4.778      5.848
REMARK  Name = 1701
REMARK  4 active torsions:
REMARK  status: ('A' for Active; 'I' for Inactive)
REMARK    1  A    between atoms: C_1  and  C_11
REMARK    2  A    between atoms: C_4  and  S_7
REMARK    3  A    between atoms: C_11  and  C_12
REMARK    4  A    between atoms: C_12  and  N_13
REMARK                            x       y       z     vdW  Elec       q    Type
REMARK                         _______ _______ _______ _____ _____    ______ ____
ROOT
ATOM      1  C   UNL     1      33.944 -22.051 -18.925  0.00  0.00    -0.024 C 
ATOM      2  C   UNL     1      35.301 -21.870 -19.190  0.00  0.00    -0.003 C 
ATOM      3  C   UNL     1      32.998 -21.232 -19.542  0.00  0.00    -0.003 C 
ATOM      4  C   UNL     1      34.767 -20.053 -20.690  0.00  0.00    +0.138 C 
ATOM      5  C   UNL     1      35.713 -20.871 -20.072  0.00  0.00    +0.021 C 
ATOM      6  C   UNL     1      33.409 -20.233 -20.425  0.00  0.00    +0.021 C 
ENDROOT
BRANCH   4   7
ATOM      7  S   UNL     1      35.283 -18.804 -21.794  0.00  0.00    +0.148 S 
ATOM      8  F   UNL     1      35.137 -19.382 -23.267  0.00  0.00    -0.056 F 
ATOM      9  O   UNL     1      34.325 -17.718 -21.716  0.00  0.00    -0.138 OA
ATOM     10  O   UNL     1      36.706 -18.602 -21.605  0.00  0.00    -0.138 OA
ENDBRANCH   4   7
BRANCH   1  11
ATOM     11  C   UNL     1      33.504 -23.118 -17.981  0.00  0.00    +0.002 C 
BRANCH  11  12
ATOM     12  C   UNL     1      34.331 -23.119 -16.687  0.00  0.00    -0.081 C 
BRANCH  12  13
ATOM     13  N   UNL     1      33.495 -23.343 -15.513  0.00  0.00    +0.381 N 
ATOM     14  H   UNL     1      34.083 -23.598 -14.719  0.00  0.00    -0.089 HD
ATOM     15  H   UNL     1      32.837 -24.098 -15.703  0.00  0.00    -0.089 HD
ATOM     16  H   UNL     1      32.980 -22.491 -15.293  0.00  0.00    -0.089 HD
ENDBRANCH  12  13
ENDBRANCH  11  12
ENDBRANCH   1  11
TORSDOF 4
ENDMDL
MODEL 5
REMARK VINA RESULT:      -6.5      4.641      5.620
REMARK  Name = 1701
REMARK  4 active torsions:
REMARK  status: ('A' for Active; 'I' for Inactive)
REMARK    1  A    between atoms: C_1  and  C_11
REMARK    2  A    between atoms: C_4  and  S_7
REMARK    3  A    between atoms: C_11  and  C_12
REMARK    4  A    between atoms: C_12  and  N_13
REMARK                            x       y       z     vdW  Elec       q    Type
REMARK                         _______ _______ _______ _____ _____    ______ ____
ROOT
ATOM      1  C   UNL     1      33.778 -14.975 -24.255  0.00  0.00    -0.024 C 
ATOM      2  C   UNL     1      34.038 -14.831 -22.893  0.00  0.00    -0.003 C 
ATOM      3  C   UNL     1      34.097 -16.169 -24.904  0.00  0.00    -0.003 C 
ATOM      4  C   UNL     1      34.937 -17.073 -22.826  0.00  0.00    +0.138 C 
ATOM      5  C   UNL     1      34.617 -15.880 -22.178  0.00  0.00    +0.021 C 
ATOM      6  C   UNL     1      34.676 -17.218 -24.189  0.00  0.00    +0.021 C 
ENDROOT
BRANCH   4   7
ATOM      7  S   UNL     1      35.660 -18.386 -21.932  0.00  0.00    +0.148 S 
ATOM      8  F   UNL     1      37.183 -18.482 -22.375  0.00  0.00    -0.056 F 
ATOM      9  O   UNL     1      35.695 -18.004 -20.533  0.00  0.00    -0.138 OA
ATOM     10  O   UNL     1      35.053 -19.622 -22.387  0.00  0.00    -0.138 OA
ENDBRANCH   4   7
BRANCH   1  11
ATOM     11  C   UNL     1      33.159 -13.854 -25.019  0.00  0.00    +0.002 C 
BRANCH  11  12
ATOM     12  C   UNL     1      32.846 -14.250 -26.469  0.00  0.00    -0.081 C 
BRANCH  12  13
ATOM     13  N   UNL     1      33.494 -13.358 -27.424  0.00  0.00    +0.381 N 
ATOM     14  H   UNL     1      32.823 -12.663 -27.752  0.00  0.00    -0.089 HD
ATOM     15  H   UNL     1      33.837 -13.899 -28.217  0.00  0.00    -0.089 HD
ATOM     16  H   UNL     1      34.277 -12.886 -26.971  0.00  0.00    -0.089 HD
ENDBRANCH  12  13
ENDBRANCH  11  12
ENDBRANCH   1  11
TORSDOF 4
ENDMDL
MODEL 6
REMARK VINA RESULT:      -6.5      4.796      5.702
REMARK  Name = 1701
REMARK  4 active torsions:
REMARK  status: ('A' for Active; 'I' for Inactive)
REMARK    1  A    between atoms: C_1  and  C_11
REMARK    2  A    between atoms: C_4  and  S_7
REMARK    3  A    between atoms: C_11  and  C_12
REMARK    4  A    between atoms: C_12  and  N_13
REMARK                            x       y       z     vdW  Elec       q    Type
REMARK                         _______ _______ _______ _____ _____    ______ ____
ROOT
ATOM      1  C   UNL     1      33.895 -14.340 -22.815  0.00  0.00    -0.024 C 
ATOM      2  C   UNL     1      34.161 -14.706 -21.496  0.00  0.00    -0.003 C 
ATOM      3  C   UNL     1      34.191 -15.221 -23.856  0.00  0.00    -0.003 C 
ATOM      4  C   UNL     1      35.018 -16.833 -22.257  0.00  0.00    +0.138 C 
ATOM      5  C   UNL     1      34.723 -15.952 -21.217  0.00  0.00    +0.021 C 
ATOM      6  C   UNL     1      34.752 -16.468 -23.577  0.00  0.00    +0.021 C 
ENDROOT
BRANCH   4   7
ATOM      7  S   UNL     1      35.719 -18.392 -21.907  0.00  0.00    +0.148 S 
ATOM      8  F   UNL     1      37.189 -18.400 -22.511  0.00  0.00    -0.056 F 
ATOM      9  O   UNL     1      35.899 -18.487 -20.471  0.00  0.00    -0.138 OA
ATOM     10  O   UNL     1      34.991 -19.388 -22.668  0.00  0.00    -0.138 OA
ENDBRANCH   4   7
BRANCH   1  11
ATOM     11  C   UNL     1      33.295 -13.008 -23.114  0.00  0.00    +0.002 C 
BRANCH  11  12
ATOM     12  C   UNL     1      33.812 -12.429 -24.440  0.00  0.00    -0.081 C 
BRANCH  12  13
ATOM     13  N   UNL     1      34.543 -11.184 -24.236  0.00  0.00    +0.381 N 
ATOM     14  H   UNL     1      35.166 -11.282 -23.435  0.00  0.00    -0.089 HD
ATOM     15  H   UNL     1      33.883 -10.426 -24.062  0.00  0.00    -0.089 HD
ATOM     16  H   UNL     1      35.092 -10.971 -25.069  0.00  0.00    -0.089 HD
ENDBRANCH  12  13
ENDBRANCH  11  12
ENDBRANCH   1  11
TORSDOF 4
ENDMDL
MODEL 7
REMARK VINA RESULT:      -6.4      6.724      7.862
REMARK  Name = 1701
REMARK  4 active torsions:
REMARK  status: ('A' for Active; 'I' for Inactive)
REMARK    1  A    between atoms: C_1  and  C_11
REMARK    2  A    between atoms: C_4  and  S_7
REMARK    3  A    between atoms: C_11  and  C_12
REMARK    4  A    between atoms: C_12  and  N_13
REMARK                            x       y       z     vdW  Elec       q    Type
REMARK                         _______ _______ _______ _____ _____    ______ ____
ROOT
ATOM      1  C   UNL     1      34.138 -23.477 -15.066  0.00  0.00    -0.024 C 
ATOM      2  C   UNL     1      35.429 -23.021 -15.329  0.00  0.00    -0.003 C 
ATOM      3  C   UNL     1      33.825 -24.001 -13.811  0.00  0.00    -0.003 C 
ATOM      4  C   UNL     1      36.096 -23.612 -13.083  0.00  0.00    +0.138 C 
ATOM      5  C   UNL     1      36.408 -23.088 -14.337  0.00  0.00    +0.021 C 
ATOM      6  C   UNL     1      34.804 -24.069 -12.820  0.00  0.00    +0.021 C 
ENDROOT
BRANCH   4   7
ATOM      7  S   UNL     1      37.320 -23.695 -11.842  0.00  0.00    +0.148 S 
ATOM      8  F   UNL     1      38.347 -24.833 -12.263  0.00  0.00    -0.056 F 
ATOM      9  O   UNL     1      38.081 -22.462 -11.886  0.00  0.00    -0.138 OA
ATOM     10  O   UNL     1      36.692 -24.180 -10.629  0.00  0.00    -0.138 OA
ENDBRANCH   4   7
BRANCH   1  11
ATOM     11  C   UNL     1      33.091 -23.405 -16.126  0.00  0.00    +0.002 C 
BRANCH  11  12
ATOM     12  C   UNL     1      33.692 -23.104 -17.508  0.00  0.00    -0.081 C 
BRANCH  12  13
ATOM     13  N   UNL     1      32.724 -22.458 -18.387  0.00  0.00    +0.381 N 
ATOM     14  H   UNL     1      31.813 -22.906 -18.279  0.00  0.00    -0.089 HD
ATOM     15  H   UNL     1      33.032 -22.544 -19.355  0.00  0.00    -0.089 HD
ATOM     16  H   UNL     1      32.647 -21.471 -18.141  0.00  0.00    -0.089 HD
ENDBRANCH  12  13
ENDBRANCH  11  12
ENDBRANCH   1  11
TORSDOF 4
ENDMDL
MODEL 8
REMARK VINA RESULT:      -6.4      5.147      5.952
REMARK  Name = 1701
REMARK  4 active torsions:
REMARK  status: ('A' for Active; 'I' for Inactive)
REMARK    1  A    between atoms: C_1  and  C_11
REMARK    2  A    between atoms: C_4  and  S_7
REMARK    3  A    between atoms: C_11  and  C_12
REMARK    4  A    between atoms: C_12  and  N_13
REMARK                            x       y       z     vdW  Elec       q    Type
REMARK                         _______ _______ _______ _____ _____    ______ ____
ROOT
ATOM      1  C   UNL     1      33.121 -14.315 -22.554  0.00  0.00    -0.024 C 
ATOM      2  C   UNL     1      32.890 -15.048 -21.390  0.00  0.00    -0.003 C 
ATOM      3  C   UNL     1      34.013 -14.793 -23.514  0.00  0.00    -0.003 C 
ATOM      4  C   UNL     1      34.443 -16.738 -22.145  0.00  0.00    +0.138 C 
ATOM      5  C   UNL     1      33.551 -16.259 -21.186  0.00  0.00    +0.021 C 
ATOM      6  C   UNL     1      34.675 -16.004 -23.309  0.00  0.00    +0.021 C 
ENDROOT
BRANCH   4   7
ATOM      7  S   UNL     1      35.269 -18.254 -21.889  0.00  0.00    +0.148 S 
ATOM      8  F   UNL     1      36.545 -18.267 -22.837  0.00  0.00    -0.056 F 
ATOM      9  O   UNL     1      35.799 -18.249 -20.539  0.00  0.00    -0.138 OA
ATOM     10  O   UNL     1      34.416 -19.315 -22.387  0.00  0.00    -0.138 OA
ENDBRANCH   4   7
BRANCH   1  11
ATOM     11  C   UNL     1      32.414 -13.020 -22.772  0.00  0.00    +0.002 C 
BRANCH  11  12
ATOM     12  C   UNL     1      31.832 -12.455 -21.468  0.00  0.00    -0.081 C 
BRANCH  12  13
ATOM     13  N   UNL     1      30.679 -11.599 -21.719  0.00  0.00    +0.381 N 
ATOM     14  H   UNL     1      29.870 -12.176 -21.949  0.00  0.00    -0.089 HD
ATOM     15  H   UNL     1      30.882 -10.973 -22.498  0.00  0.00    -0.089 HD
ATOM     16  H   UNL     1      30.476 -11.047 -20.885  0.00  0.00    -0.089 HD
ENDBRANCH  12  13
ENDBRANCH  11  12
ENDBRANCH   1  11
TORSDOF 4
ENDMDL
MODEL 9
REMARK VINA RESULT:      -6.3      7.256      8.111
REMARK  Name = 1701
REMARK  4 active torsions:
REMARK  status: ('A' for Active; 'I' for Inactive)
REMARK    1  A    between atoms: C_1  and  C_11
REMARK    2  A    between atoms: C_4  and  S_7
REMARK    3  A    between atoms: C_11  and  C_12
REMARK    4  A    between atoms: C_12  and  N_13
REMARK                            x       y       z     vdW  Elec       q    Type
REMARK                         _______ _______ _______ _____ _____    ______ ____
ROOT
ATOM      1  C   UNL     1      34.485 -23.442 -15.233  0.00  0.00    -0.024 C 
ATOM      2  C   UNL     1      34.015 -23.981 -14.036  0.00  0.00    -0.003 C 
ATOM      3  C   UNL     1      35.809 -23.012 -15.332  0.00  0.00    -0.003 C 
ATOM      4  C   UNL     1      36.191 -23.663 -13.036  0.00  0.00    +0.138 C 
ATOM      5  C   UNL     1      34.868 -24.092 -12.938  0.00  0.00    +0.021 C 
ATOM      6  C   UNL     1      36.662 -23.122 -14.233  0.00  0.00    +0.021 C 
ENDROOT
BRANCH   4   7
ATOM      7  S   UNL     1      37.258 -23.803 -11.662  0.00  0.00    +0.148 S 
ATOM      8  F   UNL     1      38.187 -25.069 -11.908  0.00  0.00    -0.056 F 
ATOM      9  O   UNL     1      38.157 -22.665 -11.679  0.00  0.00    -0.138 OA
ATOM     10  O   UNL     1      36.452 -24.141 -10.506  0.00  0.00    -0.138 OA
ENDBRANCH   4   7
BRANCH   1  11
ATOM     11  C   UNL     1      33.573 -23.323 -16.407  0.00  0.00    +0.002 C 
BRANCH  11  12
ATOM     12  C   UNL     1      32.095 -23.397 -15.996  0.00  0.00    -0.081 C 
BRANCH  12  13
ATOM     13  N   UNL     1      31.235 -22.712 -16.955  0.00  0.00    +0.381 N 
ATOM     14  H   UNL     1      30.296 -22.621 -16.566  0.00  0.00    -0.089 HD
ATOM     15  H   UNL     1      31.192 -23.250 -17.820  0.00  0.00    -0.089 HD
ATOM     16  H   UNL     1      31.612 -21.785 -17.149  0.00  0.00    -0.089 HD
ENDBRANCH  12  13
ENDBRANCH  11  12
ENDBRANCH   1  11
TORSDOF 4
ENDMDL
