MODEL 1
REMARK VINA RESULT:      -8.1      0.000      0.000
REMARK  Name = 16046126
REMARK  0 active torsions:
REMARK  status: ('A' for Active; 'I' for Inactive)
REMARK                            x       y       z     vdW  Elec       q    Type
REMARK                         _______ _______ _______ _____ _____    ______ ____
ROOT
ATOM      1  O   UNL     1      32.623 -23.602 -17.014  0.00  0.00    -0.479 OA
ATOM      2  O   UNL     1      35.251 -25.052 -10.496  0.00  0.00    -0.266 OA
ATOM      3  O   UNL     1      38.639 -22.280 -16.422  0.00  0.00    -0.267 OA
ATOM      4  N   UNL     1      32.115 -23.176 -14.215  0.00  0.00    +0.392 N 
ATOM      5  N   UNL     1      34.390 -23.737 -12.257  0.00  0.00    -0.242 N 
ATOM      6  N   UNL     1      34.845 -23.396 -13.517  0.00  0.00    -0.293 N 
ATOM      7  N   UNL     1      35.267 -23.372 -16.347  0.00  0.00    -0.393 NA
ATOM      8  N   UNL     1      36.953 -21.799 -17.918  0.00  0.00    -0.276 N 
ATOM      9  C   UNL     1      31.181 -24.294 -14.415  0.00  0.00    -0.054 C 
ATOM     10  C   UNL     1      31.460 -22.981 -16.447  0.00  0.00    +0.144 C 
ATOM     11  C   UNL     1      30.599 -24.079 -15.828  0.00  0.00    +0.021 C 
ATOM     12  C   UNL     1      31.807 -22.150 -15.218  0.00  0.00    -0.033 C 
ATOM     13  C   UNL     1      32.182 -22.626 -12.858  0.00  0.00    -0.050 C 
ATOM     14  C   UNL     1      31.908 -25.636 -14.341  0.00  0.00    -0.023 C 
ATOM     15  C   UNL     1      33.011 -23.475 -11.877  0.00  0.00    +0.106 C 
ATOM     16  C   UNL     1      33.406 -22.785 -17.790  0.00  0.00    +0.165 C 
ATOM     17  C   UNL     1      36.112 -23.946 -13.648  0.00  0.00    +0.079 A 
ATOM     18  C   UNL     1      35.319 -24.527 -11.591  0.00  0.00    +0.276 A 
ATOM     19  C   UNL     1      36.458 -24.667 -12.509  0.00  0.00    +0.074 A 
ATOM     20  C   UNL     1      34.771 -22.700 -17.470  0.00  0.00    +0.178 C 
ATOM     21  C   UNL     1      36.953 -23.929 -14.752  0.00  0.00    +0.051 C 
ATOM     22  C   UNL     1      32.903 -22.129 -18.916  0.00  0.00    +0.018 C 
ATOM     23  C   UNL     1      36.510 -23.249 -15.995  0.00  0.00    +0.186 C 
ATOM     24  C   UNL     1      35.604 -21.916 -18.267  0.00  0.00    +0.080 C 
ATOM     25  C   UNL     1      37.647 -25.352 -12.388  0.00  0.00    +0.006 C 
ATOM     26  C   UNL     1      38.166 -24.621 -14.665  0.00  0.00    +0.004 C 
ATOM     27  C   UNL     1      37.483 -22.405 -16.798  0.00  0.00    +0.279 C 
ATOM     28  C   UNL     1      33.753 -21.355 -19.707  0.00  0.00    +0.057 C 
ATOM     29  C   UNL     1      38.510 -25.318 -13.487  0.00  0.00    +0.000 C 
ATOM     30  C   UNL     1      35.106 -21.244 -19.384  0.00  0.00    -0.004 C 
ATOM     31  H   UNL     1      33.056 -23.546 -14.340  0.00  0.00    -0.079 HD
ATOM     32  H   UNL     1      34.364 -22.865 -14.191  0.00  0.00    +0.187 HD
ATOM     33  H   UNL     1      37.548 -21.264 -18.493  0.00  0.00    +0.155 HD
ENDROOT
TORSDOF 0
ENDMDL
MODEL 2
REMARK VINA RESULT:      -5.4      1.509      5.473
REMARK  Name = 16046126
REMARK  0 active torsions:
REMARK  status: ('A' for Active; 'I' for Inactive)
REMARK                            x       y       z     vdW  Elec       q    Type
REMARK                         _______ _______ _______ _____ _____    ______ ____
ROOT
ATOM      1  O   UNL     1      33.734 -23.305 -12.683  0.00  0.00    -0.479 OA
ATOM      2  O   UNL     1      32.698 -22.065 -19.675  0.00  0.00    -0.266 OA
ATOM      3  O   UNL     1      38.919 -23.619 -16.046  0.00  0.00    -0.267 OA
ATOM      4  N   UNL     1      32.083 -24.084 -14.907  0.00  0.00    +0.392 N 
ATOM      5  N   UNL     1      33.030 -23.331 -17.710  0.00  0.00    -0.242 N 
ATOM      6  N   UNL     1      34.075 -23.464 -16.814  0.00  0.00    -0.293 N 
ATOM      7  N   UNL     1      35.754 -23.139 -14.521  0.00  0.00    -0.393 NA
ATOM      8  N   UNL     1      38.251 -24.236 -13.928  0.00  0.00    -0.276 N 
ATOM      9  C   UNL     1      31.147 -23.130 -14.293  0.00  0.00    -0.054 C 
ATOM     10  C   UNL     1      32.590 -24.170 -12.630  0.00  0.00    +0.144 C 
ATOM     11  C   UNL     1      31.341 -23.304 -12.772  0.00  0.00    +0.021 C 
ATOM     12  C   UNL     1      32.485 -25.044 -13.873  0.00  0.00    -0.033 C 
ATOM     13  C   UNL     1      31.622 -24.743 -16.132  0.00  0.00    -0.050 C 
ATOM     14  C   UNL     1      31.475 -21.696 -14.708  0.00  0.00    -0.023 C 
ATOM     15  C   UNL     1      31.715 -23.864 -17.391  0.00  0.00    +0.106 C 
ATOM     16  C   UNL     1      34.932 -23.895 -12.367  0.00  0.00    +0.165 C 
ATOM     17  C   UNL     1      35.121 -22.694 -17.301  0.00  0.00    +0.079 A 
ATOM     18  C   UNL     1      33.368 -22.461 -18.740  0.00  0.00    +0.276 A 
ATOM     19  C   UNL     1      34.749 -22.038 -18.471  0.00  0.00    +0.074 A 
ATOM     20  C   UNL     1      35.980 -23.773 -13.294  0.00  0.00    +0.178 C 
ATOM     21  C   UNL     1      36.361 -22.457 -16.726  0.00  0.00    +0.051 C 
ATOM     22  C   UNL     1      35.149 -24.515 -11.134  0.00  0.00    +0.018 C 
ATOM     23  C   UNL     1      36.690 -23.079 -15.419  0.00  0.00    +0.186 C 
ATOM     24  C   UNL     1      37.224 -24.320 -12.983  0.00  0.00    +0.080 C 
ATOM     25  C   UNL     1      35.584 -21.173 -19.143  0.00  0.00    +0.006 C 
ATOM     26  C   UNL     1      37.232 -21.578 -17.380  0.00  0.00    +0.004 C 
ATOM     27  C   UNL     1      38.069 -23.660 -15.168  0.00  0.00    +0.279 C 
ATOM     28  C   UNL     1      36.403 -25.049 -10.836  0.00  0.00    +0.057 C 
ATOM     29  C   UNL     1      36.846 -20.950 -18.583  0.00  0.00    +0.000 C 
ATOM     30  C   UNL     1      37.443 -24.956 -11.760  0.00  0.00    -0.004 C 
ATOM     31  H   UNL     1      32.881 -23.546 -15.244  0.00  0.00    -0.079 HD
ATOM     32  H   UNL     1      34.077 -24.003 -15.990  0.00  0.00    +0.187 HD
ATOM     33  H   UNL     1      39.136 -24.601 -13.701  0.00  0.00    +0.155 HD
ENDROOT
TORSDOF 0
ENDMDL
