MODEL 1
REMARK VINA RESULT:      -5.7      0.000      0.000
REMARK  Name = 5288721
REMARK  8 active torsions:
REMARK  status: ('A' for Active; 'I' for Inactive)
REMARK    1  A    between atoms: C_1  and  C_4
REMARK    2  A    between atoms: C_1  and  O_7
REMARK    3  A    between atoms: C_1  and  O_9
REMARK    4  A    between atoms: C_1  and  C_11
REMARK    5  A    between atoms: C_11  and  N_12
REMARK    6  A    between atoms: C_11  and  C_16
REMARK    7  A    between atoms: C_16  and  C_17
REMARK    8  A    between atoms: C_17  and  S_18
REMARK                            x       y       z     vdW  Elec       q    Type
REMARK                         _______ _______ _______ _____ _____    ______ ____
ROOT
ATOM      1  C   UNL     1      37.175 -23.963 -15.259  0.00  0.00    +0.204 C 
ENDROOT
BRANCH   1   4
ATOM      2  S   UNL     1      36.451 -25.089 -12.848  0.00  0.00    -0.066 S 
ATOM      3  N   UNL     1      37.557 -22.769 -13.127  0.00  0.00    -0.236 NA
ATOM      4  C   UNL     1      37.120 -23.813 -13.735  0.00  0.00    +0.137 C 
ATOM      5  C   UNL     1      36.763 -24.173 -11.433  0.00  0.00    +0.057 C 
ATOM      6  C   UNL     1      37.350 -22.974 -11.777  0.00  0.00    +0.106 C 
ENDBRANCH   1   4
BRANCH   1   7
ATOM      7  O   UNL     1      38.525 -23.663 -15.622  0.00  0.00    -0.361 OA
ATOM      8  H   UNL     1      38.702 -22.997 -16.257  0.00  0.00    +0.213 HD
ENDBRANCH   1   7
BRANCH   1   9
ATOM      9  O   UNL     1      36.899 -25.326 -15.580  0.00  0.00    -0.361 OA
ATOM     10  H   UNL     1      36.895 -25.974 -14.904  0.00  0.00    +0.213 HD
ENDBRANCH   1   9
BRANCH   1  11
ATOM     11  C   UNL     1      36.182 -22.993 -15.969  0.00  0.00    -0.006 C 
BRANCH  11  12
ATOM     12  N   UNL     1      35.174 -22.546 -14.997  0.00  0.00    +0.385 N 
ATOM     13  H   UNL     1      35.055 -21.535 -15.070  0.00  0.00    -0.089 HD
ATOM     14  H   UNL     1      35.482 -22.784 -14.054  0.00  0.00    -0.089 HD
ATOM     15  H   UNL     1      34.285 -23.007 -15.191  0.00  0.00    -0.089 HD
ENDBRANCH  11  12
BRANCH  11  16
ATOM     16  C   UNL     1      36.887 -21.776 -16.617  0.00  0.00    -0.005 C 
BRANCH  16  17
ATOM     17  C   UNL     1      36.753 -21.649 -18.139  0.00  0.00    +0.056 C 
BRANCH  17  18
ATOM     18  S   UNL     1      35.084 -22.040 -18.739  0.00  0.00    -0.139 S 
ATOM     19  C   UNL     1      34.981 -20.803 -20.052  0.00  0.00    +0.069 C 
ENDBRANCH  17  18
ENDBRANCH  16  17
ENDBRANCH  11  16
ENDBRANCH   1  11
TORSDOF 8
ENDMDL
MODEL 2
REMARK VINA RESULT:      -5.6      2.577      4.957
REMARK  Name = 5288721
REMARK  8 active torsions:
REMARK  status: ('A' for Active; 'I' for Inactive)
REMARK    1  A    between atoms: C_1  and  C_4
REMARK    2  A    between atoms: C_1  and  O_7
REMARK    3  A    between atoms: C_1  and  O_9
REMARK    4  A    between atoms: C_1  and  C_11
REMARK    5  A    between atoms: C_11  and  N_12
REMARK    6  A    between atoms: C_11  and  C_16
REMARK    7  A    between atoms: C_16  and  C_17
REMARK    8  A    between atoms: C_17  and  S_18
REMARK                            x       y       z     vdW  Elec       q    Type
REMARK                         _______ _______ _______ _____ _____    ______ ____
ROOT
ATOM      1  C   UNL     1      36.895 -26.181 -14.973  0.00  0.00    +0.204 C 
ENDROOT
BRANCH   1   4
ATOM      2  S   UNL     1      35.203 -24.036 -15.350  0.00  0.00    -0.066 S 
ATOM      3  N   UNL     1      37.785 -23.906 -15.360  0.00  0.00    -0.236 NA
ATOM      4  C   UNL     1      36.764 -24.676 -15.232  0.00  0.00    +0.137 C 
ATOM      5  C   UNL     1      35.929 -22.504 -15.609  0.00  0.00    +0.057 C 
ATOM      6  C   UNL     1      37.301 -22.632 -15.582  0.00  0.00    +0.106 C 
ENDBRANCH   1   4
BRANCH   1   7
ATOM      7  O   UNL     1      35.554 -26.661 -14.842  0.00  0.00    -0.361 OA
ATOM      8  H   UNL     1      34.841 -26.054 -14.808  0.00  0.00    +0.213 HD
ENDBRANCH   1   7
BRANCH   1   9
ATOM      9  O   UNL     1      37.492 -26.778 -16.123  0.00  0.00    -0.361 OA
ATOM     10  H   UNL     1      37.418 -26.362 -16.959  0.00  0.00    +0.213 HD
ENDBRANCH   1   9
BRANCH   1  11
ATOM     11  C   UNL     1      37.716 -26.474 -13.681  0.00  0.00    -0.006 C 
BRANCH  11  12
ATOM     12  N   UNL     1      39.125 -26.129 -13.923  0.00  0.00    +0.385 N 
ATOM     13  H   UNL     1      39.178 -25.241 -14.421  0.00  0.00    -0.089 HD
ATOM     14  H   UNL     1      39.562 -26.860 -14.484  0.00  0.00    -0.089 HD
ATOM     15  H   UNL     1      39.613 -26.048 -13.031  0.00  0.00    -0.089 HD
ENDBRANCH  11  12
BRANCH  11  16
ATOM     16  C   UNL     1      37.180 -25.720 -12.440  0.00  0.00    -0.005 C 
BRANCH  16  17
ATOM     17  C   UNL     1      38.041 -24.557 -11.932  0.00  0.00    +0.056 C 
BRANCH  17  18
ATOM     18  S   UNL     1      37.089 -23.034 -11.667  0.00  0.00    -0.139 S 
ATOM     19  C   UNL     1      35.429 -23.745 -11.752  0.00  0.00    +0.069 C 
ENDBRANCH  17  18
ENDBRANCH  16  17
ENDBRANCH  11  16
ENDBRANCH   1  11
TORSDOF 8
ENDMDL
MODEL 3
REMARK VINA RESULT:      -5.6      6.802     10.094
REMARK  Name = 5288721
REMARK  8 active torsions:
REMARK  status: ('A' for Active; 'I' for Inactive)
REMARK    1  A    between atoms: C_1  and  C_4
REMARK    2  A    between atoms: C_1  and  O_7
REMARK    3  A    between atoms: C_1  and  O_9
REMARK    4  A    between atoms: C_1  and  C_11
REMARK    5  A    between atoms: C_11  and  N_12
REMARK    6  A    between atoms: C_11  and  C_16
REMARK    7  A    between atoms: C_16  and  C_17
REMARK    8  A    between atoms: C_17  and  S_18
REMARK                            x       y       z     vdW  Elec       q    Type
REMARK                         _______ _______ _______ _____ _____    ______ ____
ROOT
ATOM      1  C   UNL     1      35.248 -17.505 -21.882  0.00  0.00    +0.204 C 
ENDROOT
BRANCH   1   4
ATOM      2  S   UNL     1      34.362 -14.897 -21.746  0.00  0.00    -0.066 S 
ATOM      3  N   UNL     1      34.329 -16.364 -23.876  0.00  0.00    -0.236 NA
ATOM      4  C   UNL     1      34.635 -16.315 -22.628  0.00  0.00    +0.137 C 
ATOM      5  C   UNL     1      33.745 -14.205 -23.189  0.00  0.00    +0.057 C 
ATOM      6  C   UNL     1      33.806 -15.130 -24.209  0.00  0.00    +0.106 C 
ENDBRANCH   1   4
BRANCH   1   7
ATOM      7  O   UNL     1      36.525 -17.716 -22.489  0.00  0.00    -0.361 OA
ATOM      8  H   UNL     1      37.218 -17.100 -22.348  0.00  0.00    +0.213 HD
ENDBRANCH   1   7
BRANCH   1   9
ATOM      9  O   UNL     1      35.437 -17.124 -20.520  0.00  0.00    -0.361 OA
ATOM     10  H   UNL     1      34.772 -16.639 -20.073  0.00  0.00    +0.213 HD
ENDBRANCH   1   9
BRANCH   1  11
ATOM     11  C   UNL     1      34.360 -18.781 -22.005  0.00  0.00    -0.006 C 
BRANCH  11  12
ATOM     12  N   UNL     1      34.633 -19.430 -23.296  0.00  0.00    +0.385 N 
ATOM     13  H   UNL     1      34.620 -20.443 -23.177  0.00  0.00    -0.089 HD
ATOM     14  H   UNL     1      35.551 -19.140 -23.635  0.00  0.00    -0.089 HD
ATOM     15  H   UNL     1      33.919 -19.157 -23.972  0.00  0.00    -0.089 HD
ENDBRANCH  11  12
BRANCH  11  16
ATOM     16  C   UNL     1      34.573 -19.779 -20.842  0.00  0.00    -0.005 C 
BRANCH  16  17
ATOM     17  C   UNL     1      33.310 -20.444 -20.282  0.00  0.00    +0.056 C 
BRANCH  17  18
ATOM     18  S   UNL     1      33.666 -21.927 -19.297  0.00  0.00    -0.139 S 
ATOM     19  C   UNL     1      35.462 -21.748 -19.197  0.00  0.00    +0.069 C 
ENDBRANCH  17  18
ENDBRANCH  16  17
ENDBRANCH  11  16
ENDBRANCH   1  11
TORSDOF 8
ENDMDL
MODEL 4
REMARK VINA RESULT:      -5.6      9.072     11.176
REMARK  Name = 5288721
REMARK  8 active torsions:
REMARK  status: ('A' for Active; 'I' for Inactive)
REMARK    1  A    between atoms: C_1  and  C_4
REMARK    2  A    between atoms: C_1  and  O_7
REMARK    3  A    between atoms: C_1  and  O_9
REMARK    4  A    between atoms: C_1  and  C_11
REMARK    5  A    between atoms: C_11  and  N_12
REMARK    6  A    between atoms: C_11  and  C_16
REMARK    7  A    between atoms: C_16  and  C_17
REMARK    8  A    between atoms: C_17  and  S_18
REMARK                            x       y       z     vdW  Elec       q    Type
REMARK                         _______ _______ _______ _____ _____    ______ ____
ROOT
ATOM      1  C   UNL     1      34.396 -15.099 -21.605  0.00  0.00    +0.204 C 
ENDROOT
BRANCH   1   4
ATOM      2  S   UNL     1      34.876 -17.148 -23.388  0.00  0.00    -0.066 S 
ATOM      3  N   UNL     1      35.199 -17.306 -20.828  0.00  0.00    -0.236 NA
ATOM      4  C   UNL     1      34.849 -16.550 -21.806  0.00  0.00    +0.137 C 
ATOM      5  C   UNL     1      35.430 -18.635 -22.739  0.00  0.00    +0.057 C 
ATOM      6  C   UNL     1      35.540 -18.530 -21.369  0.00  0.00    +0.106 C 
ENDBRANCH   1   4
BRANCH   1   7
ATOM      7  O   UNL     1      34.976 -14.689 -20.364  0.00  0.00    -0.361 OA
ATOM      8  H   UNL     1      35.355 -15.327 -19.791  0.00  0.00    +0.213 HD
ENDBRANCH   1   7
BRANCH   1   9
ATOM      9  O   UNL     1      34.950 -14.313 -22.659  0.00  0.00    -0.361 OA
ATOM     10  H   UNL     1      35.037 -14.676 -23.518  0.00  0.00    +0.213 HD
ENDBRANCH   1   9
BRANCH   1  11
ATOM     11  C   UNL     1      32.843 -14.982 -21.556  0.00  0.00    -0.006 C 
BRANCH  11  12
ATOM     12  N   UNL     1      32.311 -16.047 -20.693  0.00  0.00    +0.385 N 
ATOM     13  H   UNL     1      31.419 -16.374 -21.066  0.00  0.00    -0.089 HD
ATOM     14  H   UNL     1      32.171 -15.683 -19.750  0.00  0.00    -0.089 HD
ATOM     15  H   UNL     1      32.972 -16.823 -20.663  0.00  0.00    -0.089 HD
ENDBRANCH  11  12
BRANCH  11  16
ATOM     16  C   UNL     1      32.357 -13.596 -21.066  0.00  0.00    -0.005 C 
BRANCH  16  17
ATOM     17  C   UNL     1      31.958 -12.596 -22.158  0.00  0.00    +0.056 C 
BRANCH  17  18
ATOM     18  S   UNL     1      31.136 -11.117 -21.498  0.00  0.00    -0.139 S 
ATOM     19  C   UNL     1      31.515 -11.366 -19.748  0.00  0.00    +0.069 C 
ENDBRANCH  17  18
ENDBRANCH  16  17
ENDBRANCH  11  16
ENDBRANCH   1  11
TORSDOF 8
ENDMDL
MODEL 5
REMARK VINA RESULT:      -5.5      3.933      4.734
REMARK  Name = 5288721
REMARK  8 active torsions:
REMARK  status: ('A' for Active; 'I' for Inactive)
REMARK    1  A    between atoms: C_1  and  C_4
REMARK    2  A    between atoms: C_1  and  O_7
REMARK    3  A    between atoms: C_1  and  O_9
REMARK    4  A    between atoms: C_1  and  C_11
REMARK    5  A    between atoms: C_11  and  N_12
REMARK    6  A    between atoms: C_11  and  C_16
REMARK    7  A    between atoms: C_16  and  C_17
REMARK    8  A    between atoms: C_17  and  S_18
REMARK                            x       y       z     vdW  Elec       q    Type
REMARK                         _______ _______ _______ _____ _____    ______ ____
ROOT
ATOM      1  C   UNL     1      34.741 -23.717 -15.388  0.00  0.00    +0.204 C 
ENDROOT
BRANCH   1   4
ATOM      2  S   UNL     1      37.384 -23.922 -14.630  0.00  0.00    -0.066 S 
ATOM      3  N   UNL     1      35.901 -25.901 -15.384  0.00  0.00    -0.236 NA
ATOM      4  C   UNL     1      35.949 -24.635 -15.171  0.00  0.00    +0.137 C 
ATOM      5  C   UNL     1      38.088 -25.486 -14.665  0.00  0.00    +0.057 C 
ATOM      6  C   UNL     1      37.153 -26.405 -15.089  0.00  0.00    +0.106 C 
ENDBRANCH   1   4
BRANCH   1   7
ATOM      7  O   UNL     1      35.130 -22.447 -14.858  0.00  0.00    -0.361 OA
ATOM      8  H   UNL     1      35.281 -22.349 -13.938  0.00  0.00    +0.213 HD
ENDBRANCH   1   7
BRANCH   1   9
ATOM      9  O   UNL     1      34.528 -23.590 -16.793  0.00  0.00    -0.361 OA
ATOM     10  H   UNL     1      35.105 -24.017 -17.394  0.00  0.00    +0.213 HD
ENDBRANCH   1   9
BRANCH   1  11
ATOM     11  C   UNL     1      33.471 -24.254 -14.660  0.00  0.00    -0.006 C 
BRANCH  11  12
ATOM     12  N   UNL     1      33.847 -24.699 -13.310  0.00  0.00    +0.385 N 
ATOM     13  H   UNL     1      33.570 -25.673 -13.183  0.00  0.00    -0.089 HD
ATOM     14  H   UNL     1      33.375 -24.119 -12.617  0.00  0.00    -0.089 HD
ATOM     15  H   UNL     1      34.856 -24.616 -13.193  0.00  0.00    -0.089 HD
ENDBRANCH  11  12
BRANCH  11  16
ATOM     16  C   UNL     1      32.330 -23.210 -14.587  0.00  0.00    -0.005 C 
BRANCH  16  17
ATOM     17  C   UNL     1      31.054 -23.655 -13.862  0.00  0.00    +0.056 C 
BRANCH  17  18
ATOM     18  S   UNL     1      30.296 -25.130 -14.601  0.00  0.00    -0.139 S 
ATOM     19  C   UNL     1      28.974 -24.310 -15.523  0.00  0.00    +0.069 C 
ENDBRANCH  17  18
ENDBRANCH  16  17
ENDBRANCH  11  16
ENDBRANCH   1  11
TORSDOF 8
ENDMDL
MODEL 6
REMARK VINA RESULT:      -5.5      6.999      9.095
REMARK  Name = 5288721
REMARK  8 active torsions:
REMARK  status: ('A' for Active; 'I' for Inactive)
REMARK    1  A    between atoms: C_1  and  C_4
REMARK    2  A    between atoms: C_1  and  O_7
REMARK    3  A    between atoms: C_1  and  O_9
REMARK    4  A    between atoms: C_1  and  C_11
REMARK    5  A    between atoms: C_11  and  N_12
REMARK    6  A    between atoms: C_11  and  C_16
REMARK    7  A    between atoms: C_16  and  C_17
REMARK    8  A    between atoms: C_17  and  S_18
REMARK                            x       y       z     vdW  Elec       q    Type
REMARK                         _______ _______ _______ _____ _____    ______ ____
ROOT
ATOM      1  C   UNL     1      35.088 -18.369 -22.437  0.00  0.00    +0.204 C 
ENDROOT
BRANCH   1   4
ATOM      2  S   UNL     1      33.315 -19.887 -20.969  0.00  0.00    -0.066 S 
ATOM      3  N   UNL     1      35.889 -19.991 -20.750  0.00  0.00    -0.236 NA
ATOM      4  C   UNL     1      34.900 -19.439 -21.356  0.00  0.00    +0.137 C 
ATOM      5  C   UNL     1      33.981 -20.980 -19.828  0.00  0.00    +0.057 C 
ATOM      6  C   UNL     1      35.357 -20.895 -19.853  0.00  0.00    +0.106 C 
ENDBRANCH   1   4
BRANCH   1   7
ATOM      7  O   UNL     1      36.500 -18.289 -22.649  0.00  0.00    -0.361 OA
ATOM      8  H   UNL     1      36.911 -17.453 -22.754  0.00  0.00    +0.213 HD
ENDBRANCH   1   7
BRANCH   1   9
ATOM      9  O   UNL     1      34.464 -18.833 -23.633  0.00  0.00    -0.361 OA
ATOM     10  H   UNL     1      34.985 -19.175 -24.332  0.00  0.00    +0.213 HD
ENDBRANCH   1   9
BRANCH   1  11
ATOM     11  C   UNL     1      34.517 -16.990 -21.988  0.00  0.00    -0.006 C 
BRANCH  11  12
ATOM     12  N   UNL     1      35.010 -16.687 -20.636  0.00  0.00    +0.385 N 
ATOM     13  H   UNL     1      35.480 -15.781 -20.640  0.00  0.00    -0.089 HD
ATOM     14  H   UNL     1      35.668 -17.409 -20.344  0.00  0.00    -0.089 HD
ATOM     15  H   UNL     1      34.224 -16.659 -19.986  0.00  0.00    -0.089 HD
ENDBRANCH  11  12
BRANCH  11  16
ATOM     16  C   UNL     1      34.873 -15.842 -22.963  0.00  0.00    -0.005 C 
BRANCH  16  17
ATOM     17  C   UNL     1      33.724 -15.308 -23.827  0.00  0.00    +0.056 C 
BRANCH  17  18
ATOM     18  S   UNL     1      33.354 -13.559 -23.513  0.00  0.00    -0.139 S 
ATOM     19  C   UNL     1      32.418 -13.761 -21.979  0.00  0.00    +0.069 C 
ENDBRANCH  17  18
ENDBRANCH  16  17
ENDBRANCH  11  16
ENDBRANCH   1  11
TORSDOF 8
ENDMDL
MODEL 7
REMARK VINA RESULT:      -5.5      4.682      6.470
REMARK  Name = 5288721
REMARK  8 active torsions:
REMARK  status: ('A' for Active; 'I' for Inactive)
REMARK    1  A    between atoms: C_1  and  C_4
REMARK    2  A    between atoms: C_1  and  O_7
REMARK    3  A    between atoms: C_1  and  O_9
REMARK    4  A    between atoms: C_1  and  C_11
REMARK    5  A    between atoms: C_11  and  N_12
REMARK    6  A    between atoms: C_11  and  C_16
REMARK    7  A    between atoms: C_16  and  C_17
REMARK    8  A    between atoms: C_17  and  S_18
REMARK                            x       y       z     vdW  Elec       q    Type
REMARK                         _______ _______ _______ _____ _____    ______ ____
ROOT
ATOM      1  C   UNL     1      32.312 -24.069 -13.841  0.00  0.00    +0.204 C 
ENDROOT
BRANCH   1   4
ATOM      2  S   UNL     1      30.053 -25.238 -14.908  0.00  0.00    -0.066 S 
ATOM      3  N   UNL     1      30.516 -22.695 -14.845  0.00  0.00    -0.236 NA
ATOM      4  C   UNL     1      30.963 -23.860 -14.539  0.00  0.00    +0.137 C 
ATOM      5  C   UNL     1      28.873 -24.190 -15.578  0.00  0.00    +0.057 C 
ATOM      6  C   UNL     1      29.292 -22.882 -15.455  0.00  0.00    +0.106 C 
ENDBRANCH   1   4
BRANCH   1   7
ATOM      7  O   UNL     1      32.442 -22.973 -12.932  0.00  0.00    -0.361 OA
ATOM      8  H   UNL     1      32.148 -22.119 -13.183  0.00  0.00    +0.213 HD
ENDBRANCH   1   7
BRANCH   1   9
ATOM      9  O   UNL     1      32.241 -25.285 -13.097  0.00  0.00    -0.361 OA
ATOM     10  H   UNL     1      31.786 -26.024 -13.449  0.00  0.00    +0.213 HD
ENDBRANCH   1   9
BRANCH   1  11
ATOM     11  C   UNL     1      33.491 -24.086 -14.860  0.00  0.00    -0.006 C 
BRANCH  11  12
ATOM     12  N   UNL     1      33.102 -23.319 -16.053  0.00  0.00    +0.385 N 
ATOM     13  H   UNL     1      33.714 -23.566 -16.831  0.00  0.00    -0.089 HD
ATOM     14  H   UNL     1      33.187 -22.321 -15.858  0.00  0.00    -0.089 HD
ATOM     15  H   UNL     1      32.137 -23.537 -16.298  0.00  0.00    -0.089 HD
ENDBRANCH  11  12
BRANCH  11  16
ATOM     16  C   UNL     1      34.809 -23.532 -14.267  0.00  0.00    -0.005 C 
BRANCH  16  17
ATOM     17  C   UNL     1      35.669 -24.530 -13.481  0.00  0.00    +0.056 C 
BRANCH  17  18
ATOM     18  S   UNL     1      35.704 -24.186 -11.699  0.00  0.00    -0.139 S 
ATOM     19  C   UNL     1      37.080 -23.013 -11.687  0.00  0.00    +0.069 C 
ENDBRANCH  17  18
ENDBRANCH  16  17
ENDBRANCH  11  16
ENDBRANCH   1  11
TORSDOF 8
ENDMDL
MODEL 8
REMARK VINA RESULT:      -5.5      1.734      1.900
REMARK  Name = 5288721
REMARK  8 active torsions:
REMARK  status: ('A' for Active; 'I' for Inactive)
REMARK    1  A    between atoms: C_1  and  C_4
REMARK    2  A    between atoms: C_1  and  O_7
REMARK    3  A    between atoms: C_1  and  O_9
REMARK    4  A    between atoms: C_1  and  C_11
REMARK    5  A    between atoms: C_11  and  N_12
REMARK    6  A    between atoms: C_11  and  C_16
REMARK    7  A    between atoms: C_16  and  C_17
REMARK    8  A    between atoms: C_17  and  S_18
REMARK                            x       y       z     vdW  Elec       q    Type
REMARK                         _______ _______ _______ _____ _____    ______ ____
ROOT
ATOM      1  C   UNL     1      35.947 -23.596 -14.922  0.00  0.00    +0.204 C 
ENDROOT
BRANCH   1   4
ATOM      2  S   UNL     1      37.046 -25.854 -13.782  0.00  0.00    -0.066 S 
ATOM      3  N   UNL     1      37.579 -23.426 -13.070  0.00  0.00    -0.236 NA
ATOM      4  C   UNL     1      36.902 -24.171 -13.869  0.00  0.00    +0.137 C 
ATOM      5  C   UNL     1      38.166 -25.619 -12.505  0.00  0.00    +0.057 C 
ATOM      6  C   UNL     1      38.321 -24.270 -12.268  0.00  0.00    +0.106 C 
ENDBRANCH   1   4
BRANCH   1   7
ATOM      7  O   UNL     1      35.510 -24.719 -15.691  0.00  0.00    -0.361 OA
ATOM      8  H   UNL     1      35.391 -24.635 -16.617  0.00  0.00    +0.213 HD
ENDBRANCH   1   7
BRANCH   1   9
ATOM      9  O   UNL     1      34.826 -23.032 -14.243  0.00  0.00    -0.361 OA
ATOM     10  H   UNL     1      34.852 -22.141 -13.957  0.00  0.00    +0.213 HD
ENDBRANCH   1   9
BRANCH   1  11
ATOM     11  C   UNL     1      36.657 -22.546 -15.830  0.00  0.00    -0.006 C 
BRANCH  11  12
ATOM     12  N   UNL     1      38.018 -23.016 -16.131  0.00  0.00    +0.385 N 
ATOM     13  H   UNL     1      38.659 -22.223 -16.132  0.00  0.00    -0.089 HD
ATOM     14  H   UNL     1      38.028 -23.463 -17.048  0.00  0.00    -0.089 HD
ATOM     15  H   UNL     1      38.310 -23.689 -15.422  0.00  0.00    -0.089 HD
ENDBRANCH  11  12
BRANCH  11  16
ATOM     16  C   UNL     1      35.883 -22.259 -17.140  0.00  0.00    -0.005 C 
BRANCH  16  17
ATOM     17  C   UNL     1      36.685 -21.596 -18.267  0.00  0.00    +0.056 C 
BRANCH  17  18
ATOM     18  S   UNL     1      35.702 -21.324 -19.769  0.00  0.00    -0.139 S 
ATOM     19  C   UNL     1      34.200 -22.191 -19.260  0.00  0.00    +0.069 C 
ENDBRANCH  17  18
ENDBRANCH  16  17
ENDBRANCH  11  16
ENDBRANCH   1  11
TORSDOF 8
ENDMDL
MODEL 9
REMARK VINA RESULT:      -5.5      9.234     12.342
REMARK  Name = 5288721
REMARK  8 active torsions:
REMARK  status: ('A' for Active; 'I' for Inactive)
REMARK    1  A    between atoms: C_1  and  C_4
REMARK    2  A    between atoms: C_1  and  O_7
REMARK    3  A    between atoms: C_1  and  O_9
REMARK    4  A    between atoms: C_1  and  C_11
REMARK    5  A    between atoms: C_11  and  N_12
REMARK    6  A    between atoms: C_11  and  C_16
REMARK    7  A    between atoms: C_16  and  C_17
REMARK    8  A    between atoms: C_17  and  S_18
REMARK                            x       y       z     vdW  Elec       q    Type
REMARK                         _______ _______ _______ _____ _____    ______ ____
ROOT
ATOM      1  C   UNL     1      33.869 -15.064 -22.895  0.00  0.00    +0.204 C 
ENDROOT
BRANCH   1   4
ATOM      2  S   UNL     1      33.493 -13.043 -24.733  0.00  0.00    -0.066 S 
ATOM      3  N   UNL     1      33.380 -15.571 -25.266  0.00  0.00    -0.236 NA
ATOM      4  C   UNL     1      33.570 -14.689 -24.351  0.00  0.00    +0.137 C 
ATOM      5  C   UNL     1      33.160 -13.509 -26.349  0.00  0.00    +0.057 C 
ATOM      6  C   UNL     1      33.139 -14.884 -26.440  0.00  0.00    +0.106 C 
ENDBRANCH   1   4
BRANCH   1   7
ATOM      7  O   UNL     1      34.794 -14.077 -22.431  0.00  0.00    -0.361 OA
ATOM      8  H   UNL     1      34.518 -13.187 -22.332  0.00  0.00    +0.213 HD
ENDBRANCH   1   7
BRANCH   1   9
ATOM      9  O   UNL     1      32.657 -14.953 -22.151  0.00  0.00    -0.361 OA
ATOM     10  H   UNL     1      31.834 -15.103 -22.571  0.00  0.00    +0.213 HD
ENDBRANCH   1   9
BRANCH   1  11
ATOM     11  C   UNL     1      34.483 -16.493 -22.783  0.00  0.00    -0.006 C 
BRANCH  11  12
ATOM     12  N   UNL     1      35.671 -16.571 -23.646  0.00  0.00    +0.385 N 
ATOM     13  H   UNL     1      36.292 -15.788 -23.443  0.00  0.00    -0.089 HD
ATOM     14  H   UNL     1      35.384 -16.532 -24.624  0.00  0.00    -0.089 HD
ATOM     15  H   UNL     1      36.162 -17.448 -23.471  0.00  0.00    -0.089 HD
ENDBRANCH  11  12
BRANCH  11  16
ATOM     16  C   UNL     1      34.844 -16.883 -21.329  0.00  0.00    -0.005 C 
BRANCH  16  17
ATOM     17  C   UNL     1      35.596 -18.208 -21.152  0.00  0.00    +0.056 C 
BRANCH  17  18
ATOM     18  S   UNL     1      34.733 -19.618 -21.904  0.00  0.00    -0.139 S 
ATOM     19  C   UNL     1      33.305 -19.671 -20.797  0.00  0.00    +0.069 C 
ENDBRANCH  17  18
ENDBRANCH  16  17
ENDBRANCH  11  16
ENDBRANCH   1  11
TORSDOF 8
ENDMDL
