MODEL 1
REMARK VINA RESULT:      -7.5      0.000      0.000
REMARK  Name = 10090
REMARK  7 active torsions:
REMARK  status: ('A' for Active; 'I' for Inactive)
REMARK    1  A    between atoms: C_1  and  C_2
REMARK    2  A    between atoms: C_1  and  C_8
REMARK    3  A    between atoms: C_1  and  C_15
REMARK    4  A    between atoms: C_1  and  C_18
REMARK    5  A    between atoms: C_15  and  C_16
REMARK    6  A    between atoms: C_18  and  C_19
REMARK    7  A    between atoms: C_19  and  N_20
REMARK                            x       y       z     vdW  Elec       q    Type
REMARK                         _______ _______ _______ _____ _____    ______ ____
ROOT
ATOM      1  C   UNL     1      35.588 -24.595 -14.550  0.00  0.00    +0.087 C 
ENDROOT
BRANCH   1   2
ATOM      2  C   UNL     1      36.048 -23.550 -15.611  0.00  0.00    -0.013 C 
ATOM      3  C   UNL     1      35.114 -23.095 -16.492  0.00  0.00    -0.004 C 
ATOM      4  C   UNL     1      37.354 -23.160 -15.588  0.00  0.00    -0.004 C 
ATOM      5  C   UNL     1      35.525 -22.160 -17.442  0.00  0.00    -0.000 C 
ATOM      6  C   UNL     1      37.764 -22.225 -16.537  0.00  0.00    -0.000 C 
ATOM      7  C   UNL     1      36.851 -21.725 -17.464  0.00  0.00    -0.000 C 
ENDBRANCH   1   2
BRANCH   1   8
ATOM      8  C   UNL     1      35.997 -24.131 -13.122  0.00  0.00    -0.013 C 
ATOM      9  C   UNL     1      36.971 -23.182 -13.020  0.00  0.00    -0.004 C 
ATOM     10  C   UNL     1      35.355 -24.703 -12.063  0.00  0.00    -0.004 C 
ATOM     11  C   UNL     1      37.337 -22.766 -11.739  0.00  0.00    -0.000 C 
ATOM     12  C   UNL     1      35.721 -24.287 -10.783  0.00  0.00    -0.000 C 
ATOM     13  C   UNL     1      36.712 -23.318 -10.621  0.00  0.00    -0.000 C 
ENDBRANCH   1   8
BRANCH   1  15
ATOM     14  O   UNL     1      35.947 -26.531 -16.025  0.00  0.00    -0.295 OA
ATOM     15  C   UNL     1      36.285 -25.931 -15.002  0.00  0.00    +0.157 C 
BRANCH  15  16
ATOM     16  C   UNL     1      37.326 -26.546 -14.067  0.00  0.00    +0.065 C 
ATOM     17  C   UNL     1      38.747 -26.152 -14.438  0.00  0.00    +0.008 C 
ENDBRANCH  15  16
ENDBRANCH   1  15
BRANCH   1  18
ATOM     18  C   UNL     1      34.029 -24.786 -14.523  0.00  0.00    -0.008 C 
BRANCH  18  19
ATOM     19  C   UNL     1      33.205 -23.539 -14.158  0.00  0.00    -0.076 C 
BRANCH  19  20
ATOM     20  N   UNL     1      31.784 -23.792 -14.386  0.00  0.00    +0.384 N 
ATOM     21  C   UNL     1      31.419 -25.128 -13.915  0.00  0.00    -0.101 C 
ATOM     22  C   UNL     1      31.459 -23.645 -15.805  0.00  0.00    -0.101 C 
ATOM     23  H   UNL     1      31.247 -23.104 -13.858  0.00  0.00    -0.080 HD
ENDBRANCH  19  20
ENDBRANCH  18  19
ENDBRANCH   1  18
TORSDOF 7
ENDMDL
MODEL 2
REMARK VINA RESULT:      -7.2      1.500      4.615
REMARK  Name = 10090
REMARK  7 active torsions:
REMARK  status: ('A' for Active; 'I' for Inactive)
REMARK    1  A    between atoms: C_1  and  C_2
REMARK    2  A    between atoms: C_1  and  C_8
REMARK    3  A    between atoms: C_1  and  C_15
REMARK    4  A    between atoms: C_1  and  C_18
REMARK    5  A    between atoms: C_15  and  C_16
REMARK    6  A    between atoms: C_18  and  C_19
REMARK    7  A    between atoms: C_19  and  N_20
REMARK                            x       y       z     vdW  Elec       q    Type
REMARK                         _______ _______ _______ _____ _____    ______ ____
ROOT
ATOM      1  C   UNL     1      35.067 -23.794 -14.559  0.00  0.00    +0.087 C 
ENDROOT
BRANCH   1   2
ATOM      2  C   UNL     1      35.673 -23.738 -13.123  0.00  0.00    -0.013 C 
ATOM      3  C   UNL     1      35.086 -24.507 -12.163  0.00  0.00    -0.004 C 
ATOM      4  C   UNL     1      36.749 -22.926 -12.923  0.00  0.00    -0.004 C 
ATOM      5  C   UNL     1      35.628 -24.458 -10.878  0.00  0.00    -0.000 C 
ATOM      6  C   UNL     1      37.289 -22.878 -11.639  0.00  0.00    -0.000 C 
ATOM      7  C   UNL     1      36.730 -23.643 -10.616  0.00  0.00    -0.000 C 
ENDBRANCH   1   2
BRANCH   1   8
ATOM      8  C   UNL     1      33.515 -23.887 -14.486  0.00  0.00    -0.013 C 
ATOM      9  C   UNL     1      32.976 -24.943 -13.814  0.00  0.00    -0.004 C 
ATOM     10  C   UNL     1      32.794 -22.906 -15.100  0.00  0.00    -0.004 C 
ATOM     11  C   UNL     1      31.584 -25.026 -13.750  0.00  0.00    -0.000 C 
ATOM     12  C   UNL     1      31.403 -22.988 -15.036  0.00  0.00    -0.000 C 
ATOM     13  C   UNL     1      30.798 -24.049 -14.360  0.00  0.00    -0.000 C 
ENDBRANCH   1   8
BRANCH   1  15
ATOM     14  O   UNL     1      35.125 -25.817 -15.957  0.00  0.00    -0.295 OA
ATOM     15  C   UNL     1      35.745 -25.054 -15.211  0.00  0.00    +0.157 C 
BRANCH  15  16
ATOM     16  C   UNL     1      37.179 -25.389 -14.798  0.00  0.00    +0.065 C 
ATOM     17  C   UNL     1      37.310 -26.798 -14.243  0.00  0.00    +0.008 C 
ENDBRANCH  15  16
ENDBRANCH   1  15
BRANCH   1  18
ATOM     18  C   UNL     1      35.394 -22.511 -15.404  0.00  0.00    -0.008 C 
BRANCH  18  19
ATOM     19  C   UNL     1      36.112 -22.753 -16.743  0.00  0.00    -0.076 C 
BRANCH  19  20
ATOM     20  N   UNL     1      35.494 -21.950 -17.796  0.00  0.00    +0.384 N 
ATOM     21  C   UNL     1      34.378 -22.673 -18.404  0.00  0.00    -0.101 C 
ATOM     22  C   UNL     1      36.483 -21.589 -18.812  0.00  0.00    -0.101 C 
ATOM     23  H   UNL     1      35.135 -21.092 -17.376  0.00  0.00    -0.080 HD
ENDBRANCH  19  20
ENDBRANCH  18  19
ENDBRANCH   1  18
TORSDOF 7
ENDMDL
MODEL 3
REMARK VINA RESULT:      -7.0      1.889      4.343
REMARK  Name = 10090
REMARK  7 active torsions:
REMARK  status: ('A' for Active; 'I' for Inactive)
REMARK    1  A    between atoms: C_1  and  C_2
REMARK    2  A    between atoms: C_1  and  C_8
REMARK    3  A    between atoms: C_1  and  C_15
REMARK    4  A    between atoms: C_1  and  C_18
REMARK    5  A    between atoms: C_15  and  C_16
REMARK    6  A    between atoms: C_18  and  C_19
REMARK    7  A    between atoms: C_19  and  N_20
REMARK                            x       y       z     vdW  Elec       q    Type
REMARK                         _______ _______ _______ _____ _____    ______ ____
ROOT
ATOM      1  C   UNL     1      34.935 -23.995 -14.850  0.00  0.00    +0.087 C 
ENDROOT
BRANCH   1   2
ATOM      2  C   UNL     1      35.208 -23.212 -16.171  0.00  0.00    -0.013 C 
ATOM      3  C   UNL     1      34.227 -23.214 -17.116  0.00  0.00    -0.004 C 
ATOM      4  C   UNL     1      36.408 -22.579 -16.292  0.00  0.00    -0.004 C 
ATOM      5  C   UNL     1      34.471 -22.514 -18.298  0.00  0.00    -0.000 C 
ATOM      6  C   UNL     1      36.651 -21.880 -17.473  0.00  0.00    -0.000 C 
ATOM      7  C   UNL     1      35.683 -21.847 -18.476  0.00  0.00    -0.000 C 
ENDBRANCH   1   2
BRANCH   1   8
ATOM      8  C   UNL     1      33.421 -23.939 -14.492  0.00  0.00    -0.013 C 
ATOM      9  C   UNL     1      32.841 -25.076 -14.015  0.00  0.00    -0.004 C 
ATOM     10  C   UNL     1      32.771 -22.754 -14.679  0.00  0.00    -0.004 C 
ATOM     11  C   UNL     1      31.484 -25.025 -13.694  0.00  0.00    -0.000 C 
ATOM     12  C   UNL     1      31.415 -22.703 -14.359  0.00  0.00    -0.000 C 
ATOM     13  C   UNL     1      30.771 -23.839 -13.866  0.00  0.00    -0.000 C 
ENDBRANCH   1   8
BRANCH   1  15
ATOM     14  O   UNL     1      36.887 -22.690 -14.115  0.00  0.00    -0.295 OA
ATOM     15  C   UNL     1      35.859 -23.290 -13.790  0.00  0.00    +0.157 C 
BRANCH  15  16
ATOM     16  C   UNL     1      35.517 -23.469 -12.311  0.00  0.00    +0.065 C 
ATOM     17  C   UNL     1      36.739 -23.362 -11.413  0.00  0.00    +0.008 C 
ENDBRANCH  15  16
ENDBRANCH   1  15
BRANCH   1  18
ATOM     18  C   UNL     1      35.308 -25.517 -14.959  0.00  0.00    -0.008 C 
BRANCH  18  19
ATOM     19  C   UNL     1      36.765 -25.827 -15.343  0.00  0.00    -0.076 C 
BRANCH  19  20
ATOM     20  N   UNL     1      37.632 -25.683 -14.176  0.00  0.00    +0.384 N 
ATOM     21  C   UNL     1      39.034 -25.863 -14.554  0.00  0.00    -0.101 C 
ATOM     22  C   UNL     1      37.256 -26.641 -13.136  0.00  0.00    -0.101 C 
ATOM     23  H   UNL     1      37.516 -24.740 -13.804  0.00  0.00    -0.080 HD
ENDBRANCH  19  20
ENDBRANCH  18  19
ENDBRANCH   1  18
TORSDOF 7
ENDMDL
MODEL 4
REMARK VINA RESULT:      -6.8      1.497      4.931
REMARK  Name = 10090
REMARK  7 active torsions:
REMARK  status: ('A' for Active; 'I' for Inactive)
REMARK    1  A    between atoms: C_1  and  C_2
REMARK    2  A    between atoms: C_1  and  C_8
REMARK    3  A    between atoms: C_1  and  C_15
REMARK    4  A    between atoms: C_1  and  C_18
REMARK    5  A    between atoms: C_15  and  C_16
REMARK    6  A    between atoms: C_18  and  C_19
REMARK    7  A    between atoms: C_19  and  N_20
REMARK                            x       y       z     vdW  Elec       q    Type
REMARK                         _______ _______ _______ _____ _____    ______ ____
ROOT
ATOM      1  C   UNL     1      35.360 -23.885 -14.979  0.00  0.00    +0.087 C 
ENDROOT
BRANCH   1   2
ATOM      2  C   UNL     1      33.824 -23.953 -14.721  0.00  0.00    -0.013 C 
ATOM      3  C   UNL     1      33.353 -25.016 -14.010  0.00  0.00    -0.004 C 
ATOM      4  C   UNL     1      33.054 -22.947 -15.222  0.00  0.00    -0.004 C 
ATOM      5  C   UNL     1      31.978 -25.078 -13.778  0.00  0.00    -0.000 C 
ATOM      6  C   UNL     1      31.681 -23.009 -14.990  0.00  0.00    -0.000 C 
ATOM      7  C   UNL     1      31.143 -24.074 -14.269  0.00  0.00    -0.000 C 
ENDBRANCH   1   2
BRANCH   1   8
ATOM      8  C   UNL     1      35.657 -23.023 -16.241  0.00  0.00    -0.013 C 
ATOM      9  C   UNL     1      34.751 -23.058 -17.259  0.00  0.00    -0.004 C 
ATOM     10  C   UNL     1      36.805 -22.286 -16.247  0.00  0.00    -0.004 C 
ATOM     11  C   UNL     1      35.019 -22.284 -18.389  0.00  0.00    -0.000 C 
ATOM     12  C   UNL     1      37.072 -21.513 -17.376  0.00  0.00    -0.000 C 
ATOM     13  C   UNL     1      36.178 -21.512 -18.448  0.00  0.00    -0.000 C 
ENDBRANCH   1   8
BRANCH   1  15
ATOM     14  O   UNL     1      35.335 -26.114 -16.020  0.00  0.00    -0.295 OA
ATOM     15  C   UNL     1      35.789 -25.390 -15.130  0.00  0.00    +0.157 C 
BRANCH  15  16
ATOM     16  C   UNL     1      36.705 -25.983 -14.059  0.00  0.00    +0.065 C 
ATOM     17  C   UNL     1      38.111 -26.247 -14.575  0.00  0.00    +0.008 C 
ENDBRANCH  15  16
ENDBRANCH   1  15
BRANCH   1  18
ATOM     18  C   UNL     1      36.146 -23.219 -13.793  0.00  0.00    -0.008 C 
BRANCH  18  19
ATOM     19  C   UNL     1      35.430 -23.214 -12.432  0.00  0.00    -0.076 C 
BRANCH  19  20
ATOM     20  N   UNL     1      36.410 -23.276 -11.350  0.00  0.00    +0.384 N 
ATOM     21  C   UNL     1      37.761 -23.430 -11.890  0.00  0.00    -0.101 C 
ATOM     22  C   UNL     1      36.097 -24.374 -10.436  0.00  0.00    -0.101 C 
ATOM     23  H   UNL     1      36.368 -22.400 -10.829  0.00  0.00    -0.080 HD
ENDBRANCH  19  20
ENDBRANCH  18  19
ENDBRANCH   1  18
TORSDOF 7
ENDMDL
MODEL 5
REMARK VINA RESULT:      -6.7     15.419     17.946
REMARK  Name = 10090
REMARK  7 active torsions:
REMARK  status: ('A' for Active; 'I' for Inactive)
REMARK    1  A    between atoms: C_1  and  C_2
REMARK    2  A    between atoms: C_1  and  C_8
REMARK    3  A    between atoms: C_1  and  C_15
REMARK    4  A    between atoms: C_1  and  C_18
REMARK    5  A    between atoms: C_15  and  C_16
REMARK    6  A    between atoms: C_18  and  C_19
REMARK    7  A    between atoms: C_19  and  N_20
REMARK                            x       y       z     vdW  Elec       q    Type
REMARK                         _______ _______ _______ _____ _____    ______ ____
ROOT
ATOM      1  C   UNL     1      32.567  -9.255 -22.992  0.00  0.00    +0.087 C 
ENDROOT
BRANCH   1   2
ATOM      2  C   UNL     1      31.974  -9.705 -21.622  0.00  0.00    -0.013 C 
ATOM      3  C   UNL     1      31.079 -10.732 -21.632  0.00  0.00    -0.004 C 
ATOM      4  C   UNL     1      32.388  -9.042 -20.506  0.00  0.00    -0.004 C 
ATOM      5  C   UNL     1      30.547 -11.135 -20.407  0.00  0.00    -0.000 C 
ATOM      6  C   UNL     1      31.857  -9.445 -19.283  0.00  0.00    -0.000 C 
ATOM      7  C   UNL     1      30.937 -10.491 -19.232  0.00  0.00    -0.000 C 
ENDBRANCH   1   2
BRANCH   1   8
ATOM      8  C   UNL     1      33.131 -10.483 -23.766  0.00  0.00    -0.013 C 
ATOM      9  C   UNL     1      33.548 -10.285 -25.048  0.00  0.00    -0.004 C 
ATOM     10  C   UNL     1      33.171 -11.678 -23.110  0.00  0.00    -0.004 C 
ATOM     11  C   UNL     1      34.053 -11.387 -25.741  0.00  0.00    -0.000 C 
ATOM     12  C   UNL     1      33.676 -12.779 -23.802  0.00  0.00    -0.000 C 
ATOM     13  C   UNL     1      34.118 -12.633 -25.118  0.00  0.00    -0.000 C 
ENDBRANCH   1   8
BRANCH   1  15
ATOM     14  O   UNL     1      33.549  -7.468 -21.615  0.00  0.00    -0.295 OA
ATOM     15  C   UNL     1      33.664  -8.197 -22.604  0.00  0.00    +0.157 C 
BRANCH  15  16
ATOM     16  C   UNL     1      34.841  -8.002 -23.561  0.00  0.00    +0.065 C 
ATOM     17  C   UNL     1      34.622  -6.847 -24.525  0.00  0.00    +0.008 C 
ENDBRANCH  15  16
ENDBRANCH   1  15
BRANCH   1  18
ATOM     18  C   UNL     1      31.494  -8.595 -23.931  0.00  0.00    -0.008 C 
BRANCH  18  19
ATOM     19  C   UNL     1      30.562  -7.567 -23.268  0.00  0.00    -0.076 C 
BRANCH  19  20
ATOM     20  N   UNL     1      31.219  -6.263 -23.205  0.00  0.00    +0.384 N 
ATOM     21  C   UNL     1      30.649  -5.453 -22.129  0.00  0.00    -0.101 C 
ATOM     22  C   UNL     1      31.099  -5.567 -24.486  0.00  0.00    -0.101 C 
ATOM     23  H   UNL     1      32.209  -6.411 -23.010  0.00  0.00    -0.080 HD
ENDBRANCH  19  20
ENDBRANCH  18  19
ENDBRANCH   1  18
TORSDOF 7
ENDMDL
MODEL 6
REMARK VINA RESULT:      -6.6     15.393     18.140
REMARK  Name = 10090
REMARK  7 active torsions:
REMARK  status: ('A' for Active; 'I' for Inactive)
REMARK    1  A    between atoms: C_1  and  C_2
REMARK    2  A    between atoms: C_1  and  C_8
REMARK    3  A    between atoms: C_1  and  C_15
REMARK    4  A    between atoms: C_1  and  C_18
REMARK    5  A    between atoms: C_15  and  C_16
REMARK    6  A    between atoms: C_18  and  C_19
REMARK    7  A    between atoms: C_19  and  N_20
REMARK                            x       y       z     vdW  Elec       q    Type
REMARK                         _______ _______ _______ _____ _____    ______ ____
ROOT
ATOM      1  C   UNL     1      32.696  -8.560 -22.847  0.00  0.00    +0.087 C 
ENDROOT
BRANCH   1   2
ATOM      2  C   UNL     1      31.899  -7.252 -23.142  0.00  0.00    -0.013 C 
ATOM      3  C   UNL     1      31.920  -6.275 -22.192  0.00  0.00    -0.004 C 
ATOM      4  C   UNL     1      31.235  -7.172 -24.330  0.00  0.00    -0.004 C 
ATOM      5  C   UNL     1      31.207  -5.105 -22.456  0.00  0.00    -0.000 C 
ATOM      6  C   UNL     1      30.524  -6.003 -24.592  0.00  0.00    -0.000 C 
ATOM      7  C   UNL     1      30.509  -4.969 -23.657  0.00  0.00    -0.000 C 
ENDBRANCH   1   2
BRANCH   1   8
ATOM      8  C   UNL     1      32.082  -9.301 -21.623  0.00  0.00    -0.013 C 
ATOM      9  C   UNL     1      32.333  -8.791 -20.384  0.00  0.00    -0.004 C 
ATOM     10  C   UNL     1      31.332 -10.413 -21.869  0.00  0.00    -0.004 C 
ATOM     11  C   UNL     1      31.782  -9.456 -19.288  0.00  0.00    -0.000 C 
ATOM     12  C   UNL     1      30.782 -11.078 -20.774  0.00  0.00    -0.000 C 
ATOM     13  C   UNL     1      31.007 -10.598 -19.482  0.00  0.00    -0.000 C 
ENDBRANCH   1   8
BRANCH   1  15
ATOM     14  O   UNL     1      34.570  -7.712 -21.496  0.00  0.00    -0.295 OA
ATOM     15  C   UNL     1      34.169  -8.064 -22.610  0.00  0.00    +0.157 C 
BRANCH  15  16
ATOM     16  C   UNL     1      35.077  -7.908 -23.830  0.00  0.00    +0.065 C 
ATOM     17  C   UNL     1      34.722  -6.690 -24.668  0.00  0.00    +0.008 C 
ENDBRANCH  15  16
ENDBRANCH   1  15
BRANCH   1  18
ATOM     18  C   UNL     1      32.658  -9.576 -24.044  0.00  0.00    -0.008 C 
BRANCH  18  19
ATOM     19  C   UNL     1      33.806 -10.598 -24.095  0.00  0.00    -0.076 C 
BRANCH  19  20
ATOM     20  N   UNL     1      33.331 -11.859 -24.659  0.00  0.00    +0.384 N 
ATOM     21  C   UNL     1      33.759 -12.985 -23.830  0.00  0.00    -0.101 C 
ATOM     22  C   UNL     1      33.813 -12.022 -26.030  0.00  0.00    -0.101 C 
ATOM     23  H   UNL     1      32.311 -11.839 -24.676  0.00  0.00    -0.080 HD
ENDBRANCH  19  20
ENDBRANCH  18  19
ENDBRANCH   1  18
TORSDOF 7
ENDMDL
MODEL 7
REMARK VINA RESULT:      -6.4     15.410     18.454
REMARK  Name = 10090
REMARK  7 active torsions:
REMARK  status: ('A' for Active; 'I' for Inactive)
REMARK    1  A    between atoms: C_1  and  C_2
REMARK    2  A    between atoms: C_1  and  C_8
REMARK    3  A    between atoms: C_1  and  C_15
REMARK    4  A    between atoms: C_1  and  C_18
REMARK    5  A    between atoms: C_15  and  C_16
REMARK    6  A    between atoms: C_18  and  C_19
REMARK    7  A    between atoms: C_19  and  N_20
REMARK                            x       y       z     vdW  Elec       q    Type
REMARK                         _______ _______ _______ _____ _____    ______ ____
ROOT
ATOM      1  C   UNL     1      32.317  -8.663 -22.565  0.00  0.00    +0.087 C 
ENDROOT
BRANCH   1   2
ATOM      2  C   UNL     1      31.880  -9.602 -21.399  0.00  0.00    -0.013 C 
ATOM      3  C   UNL     1      32.392  -9.346 -20.162  0.00  0.00    -0.004 C 
ATOM      4  C   UNL     1      31.017 -10.614 -21.693  0.00  0.00    -0.004 C 
ATOM      5  C   UNL     1      32.001 -10.186 -19.118  0.00  0.00    -0.000 C 
ATOM      6  C   UNL     1      30.628 -11.452 -20.649  0.00  0.00    -0.000 C 
ATOM      7  C   UNL     1      31.119 -11.238 -19.362  0.00  0.00    -0.000 C 
ENDBRANCH   1   2
BRANCH   1   8
ATOM      8  C   UNL     1      33.273  -9.418 -23.536  0.00  0.00    -0.013 C 
ATOM      9  C   UNL     1      34.421  -8.786 -23.911  0.00  0.00    -0.004 C 
ATOM     10  C   UNL     1      32.900 -10.663 -23.948  0.00  0.00    -0.004 C 
ATOM     11  C   UNL     1      35.277  -9.463 -24.781  0.00  0.00    -0.000 C 
ATOM     12  C   UNL     1      33.755 -11.340 -24.817  0.00  0.00    -0.000 C 
ATOM     13  C   UNL     1      34.944 -10.739 -25.234  0.00  0.00    -0.000 C 
ENDBRANCH   1   8
BRANCH   1  15
ATOM     14  O   UNL     1      34.138  -7.073 -22.110  0.00  0.00    -0.295 OA
ATOM     15  C   UNL     1      32.992  -7.442 -21.841  0.00  0.00    +0.157 C 
BRANCH  15  16
ATOM     16  C   UNL     1      32.230  -6.783 -20.690  0.00  0.00    +0.065 C 
ATOM     17  C   UNL     1      31.325  -5.655 -21.161  0.00  0.00    +0.008 C 
ENDBRANCH  15  16
ENDBRANCH   1  15
BRANCH   1  18
ATOM     18  C   UNL     1      31.104  -8.170 -23.433  0.00  0.00    -0.008 C 
BRANCH  18  19
ATOM     19  C   UNL     1      31.464  -7.427 -24.731  0.00  0.00    -0.076 C 
BRANCH  19  20
ATOM     20  N   UNL     1      31.927  -6.076 -24.424  0.00  0.00    +0.384 N 
ATOM     21  C   UNL     1      30.857  -5.104 -24.646  0.00  0.00    -0.101 C 
ATOM     22  C   UNL     1      33.099  -5.740 -25.232  0.00  0.00    -0.101 C 
ATOM     23  H   UNL     1      32.194  -6.045 -23.439  0.00  0.00    -0.080 HD
ENDBRANCH  19  20
ENDBRANCH  18  19
ENDBRANCH   1  18
TORSDOF 7
ENDMDL
MODEL 8
REMARK VINA RESULT:      -6.2      1.416      4.390
REMARK  Name = 10090
REMARK  7 active torsions:
REMARK  status: ('A' for Active; 'I' for Inactive)
REMARK    1  A    between atoms: C_1  and  C_2
REMARK    2  A    between atoms: C_1  and  C_8
REMARK    3  A    between atoms: C_1  and  C_15
REMARK    4  A    between atoms: C_1  and  C_18
REMARK    5  A    between atoms: C_15  and  C_16
REMARK    6  A    between atoms: C_18  and  C_19
REMARK    7  A    between atoms: C_19  and  N_20
REMARK                            x       y       z     vdW  Elec       q    Type
REMARK                         _______ _______ _______ _____ _____    ______ ____
ROOT
ATOM      1  C   UNL     1      35.597 -23.942 -14.865  0.00  0.00    +0.087 C 
ENDROOT
BRANCH   1   2
ATOM      2  C   UNL     1      36.656 -25.086 -14.901  0.00  0.00    -0.013 C 
ATOM      3  C   UNL     1      36.220 -26.336 -15.226  0.00  0.00    -0.004 C 
ATOM      4  C   UNL     1      37.946 -24.762 -14.605  0.00  0.00    -0.004 C 
ATOM      5  C   UNL     1      37.167 -27.360 -15.258  0.00  0.00    -0.000 C 
ATOM      6  C   UNL     1      38.891 -25.786 -14.637  0.00  0.00    -0.000 C 
ATOM      7  C   UNL     1      38.503 -27.084 -14.963  0.00  0.00    -0.000 C 
ENDBRANCH   1   2
BRANCH   1   8
ATOM      8  C   UNL     1      35.639 -23.127 -16.191  0.00  0.00    -0.013 C 
ATOM      9  C   UNL     1      34.531 -23.153 -16.985  0.00  0.00    -0.004 C 
ATOM     10  C   UNL     1      36.782 -22.437 -16.473  0.00  0.00    -0.004 C 
ATOM     11  C   UNL     1      34.570 -22.422 -18.173  0.00  0.00    -0.000 C 
ATOM     12  C   UNL     1      36.820 -21.706 -17.660  0.00  0.00    -0.000 C 
ATOM     13  C   UNL     1      35.713 -21.699 -18.510  0.00  0.00    -0.000 C 
ENDBRANCH   1   8
BRANCH   1  15
ATOM     14  O   UNL     1      36.701 -22.096 -13.670  0.00  0.00    -0.295 OA
ATOM     15  C   UNL     1      35.988 -23.100 -13.596  0.00  0.00    +0.157 C 
BRANCH  15  16
ATOM     16  C   UNL     1      35.558 -23.629 -12.227  0.00  0.00    +0.065 C 
ATOM     17  C   UNL     1      36.697 -23.630 -11.219  0.00  0.00    +0.008 C 
ENDBRANCH  15  16
ENDBRANCH   1  15
BRANCH   1  18
ATOM     18  C   UNL     1      34.128 -24.479 -14.722  0.00  0.00    -0.008 C 
BRANCH  18  19
ATOM     19  C   UNL     1      33.054 -23.424 -14.409  0.00  0.00    -0.076 C 
BRANCH  19  20
ATOM     20  N   UNL     1      31.731 -23.937 -14.759  0.00  0.00    +0.384 N 
ATOM     21  C   UNL     1      30.736 -22.865 -14.708  0.00  0.00    -0.101 C 
ATOM     22  C   UNL     1      31.351 -25.029 -13.862  0.00  0.00    -0.101 C 
ATOM     23  H   UNL     1      31.769 -24.299 -15.712  0.00  0.00    -0.080 HD
ENDBRANCH  19  20
ENDBRANCH  18  19
ENDBRANCH   1  18
TORSDOF 7
ENDMDL
MODEL 9
REMARK VINA RESULT:      -6.0     16.268     18.883
REMARK  Name = 10090
REMARK  7 active torsions:
REMARK  status: ('A' for Active; 'I' for Inactive)
REMARK    1  A    between atoms: C_1  and  C_2
REMARK    2  A    between atoms: C_1  and  C_8
REMARK    3  A    between atoms: C_1  and  C_15
REMARK    4  A    between atoms: C_1  and  C_18
REMARK    5  A    between atoms: C_15  and  C_16
REMARK    6  A    between atoms: C_18  and  C_19
REMARK    7  A    between atoms: C_19  and  N_20
REMARK                            x       y       z     vdW  Elec       q    Type
REMARK                         _______ _______ _______ _____ _____    ______ ____
ROOT
ATOM      1  C   UNL     1      33.101  -7.856 -23.559  0.00  0.00    +0.087 C 
ENDROOT
BRANCH   1   2
ATOM      2  C   UNL     1      33.066  -6.696 -24.601  0.00  0.00    -0.013 C 
ATOM      3  C   UNL     1      31.888  -6.029 -24.759  0.00  0.00    -0.004 C 
ATOM      4  C   UNL     1      34.214  -6.425 -25.283  0.00  0.00    -0.004 C 
ATOM      5  C   UNL     1      31.856  -4.991 -25.691  0.00  0.00    -0.000 C 
ATOM      6  C   UNL     1      34.180  -5.388 -26.214  0.00  0.00    -0.000 C 
ATOM      7  C   UNL     1      33.003  -4.671 -26.418  0.00  0.00    -0.000 C 
ENDBRANCH   1   2
BRANCH   1   8
ATOM      8  C   UNL     1      32.707  -7.328 -22.149  0.00  0.00    -0.013 C 
ATOM      9  C   UNL     1      31.981  -6.176 -22.086  0.00  0.00    -0.004 C 
ATOM     10  C   UNL     1      33.112  -8.052 -21.067  0.00  0.00    -0.004 C 
ATOM     11  C   UNL     1      31.628  -5.703 -20.821  0.00  0.00    -0.000 C 
ATOM     12  C   UNL     1      32.759  -7.580 -19.803  0.00  0.00    -0.000 C 
ATOM     13  C   UNL     1      32.016  -6.405 -19.680  0.00  0.00    -0.000 C 
ENDBRANCH   1   8
BRANCH   1  15
ATOM     14  O   UNL     1      35.549  -7.685 -23.375  0.00  0.00    -0.295 OA
ATOM     15  C   UNL     1      34.576  -8.396 -23.640  0.00  0.00    +0.157 C 
BRANCH  15  16
ATOM     16  C   UNL     1      34.791  -9.811 -24.179  0.00  0.00    +0.065 C 
ATOM     17  C   UNL     1      35.462  -9.818 -25.544  0.00  0.00    +0.008 C 
ENDBRANCH  15  16
ENDBRANCH   1  15
BRANCH   1  18
ATOM     18  C   UNL     1      32.088  -9.008 -23.900  0.00  0.00    -0.008 C 
BRANCH  18  19
ATOM     19  C   UNL     1      31.039  -9.322 -22.820  0.00  0.00    -0.076 C 
BRANCH  19  20
ATOM     20  N   UNL     1      31.061 -10.747 -22.499  0.00  0.00    +0.384 N 
ATOM     21  C   UNL     1      30.760 -10.958 -21.083  0.00  0.00    -0.101 C 
ATOM     22  C   UNL     1      32.360 -11.328 -22.836  0.00  0.00    -0.101 C 
ATOM     23  H   UNL     1      30.344 -11.212 -23.056  0.00  0.00    -0.080 HD
ENDBRANCH  19  20
ENDBRANCH  18  19
ENDBRANCH   1  18
TORSDOF 7
ENDMDL
