MODEL 1
REMARK VINA RESULT:      -7.0      0.000      0.000
REMARK  Name = 46882177
REMARK  4 active torsions:
REMARK  status: ('A' for Active; 'I' for Inactive)
REMARK    1  A    between atoms: C_4  and  O_22
REMARK    2  A    between atoms: C_5  and  O_24
REMARK    3  A    between atoms: C_19  and  O_28
REMARK    4  A    between atoms: C_20  and  O_26
REMARK                            x       y       z     vdW  Elec       q    Type
REMARK                         _______ _______ _______ _____ _____    ______ ____
ROOT
ATOM      1  O   UNL     1      35.444 -23.421 -14.587  0.00  0.00    -0.449 OA
ATOM      2  O   UNL     1      37.235 -22.618 -18.711  0.00  0.00    -0.289 OA
ATOM      3  O   UNL     1      34.937 -25.478 -15.538  0.00  0.00    -0.245 OA
ATOM      4  C   UNL     1      35.117 -21.395 -20.260  0.00  0.00    +0.149 C 
ATOM      5  C   UNL     1      35.793 -20.700 -19.066  0.00  0.00    +0.199 C 
ATOM      6  C   UNL     1      34.332 -22.676 -19.941  0.00  0.00    +0.058 C 
ATOM      7  C   UNL     1      36.848 -23.734 -14.462  0.00  0.00    +0.174 C 
ATOM      8  C   UNL     1      37.603 -23.228 -15.708  0.00  0.00    +0.070 C 
ATOM      9  C   UNL     1      36.787 -21.557 -18.284  0.00  0.00    +0.202 C 
ATOM     10  C   UNL     1      33.445 -22.574 -18.735  0.00  0.00    -0.024 C 
ATOM     11  C   UNL     1      32.761 -23.349 -16.453  0.00  0.00    +0.012 C 
ATOM     12  C   UNL     1      33.291 -23.799 -15.228  0.00  0.00    +0.109 C 
ATOM     13  C   UNL     1      37.567 -21.733 -15.887  0.00  0.00    -0.019 C 
ATOM     14  C   UNL     1      33.549 -23.418 -17.697  0.00  0.00    -0.004 C 
ATOM     15  C   UNL     1      37.207 -21.014 -16.958  0.00  0.00    +0.036 C 
ATOM     16  C   UNL     1      37.341 -23.140 -13.148  0.00  0.00    +0.048 C 
ATOM     17  C   UNL     1      34.645 -24.364 -15.142  0.00  0.00    +0.344 C 
ATOM     18  C   UNL     1      31.444 -22.861 -16.451  0.00  0.00    +0.037 C 
ATOM     19  C   UNL     1      32.548 -23.744 -14.043  0.00  0.00    +0.143 C 
ATOM     20  C   UNL     1      30.699 -22.804 -15.268  0.00  0.00    +0.142 C 
ATOM     21  C   UNL     1      31.252 -23.240 -14.066  0.00  0.00    +0.074 C 
ENDROOT
BRANCH   4  22
ATOM     22  O   UNL     1      36.110 -21.704 -21.243  0.00  0.00    -0.381 OA
ATOM     23  H   UNL     1      35.959 -22.600 -21.584  0.00  0.00    +0.210 HD
ENDBRANCH   4  22
BRANCH   5  24
ATOM     24  O   UNL     1      36.485 -19.557 -19.556  0.00  0.00    -0.375 OA
ATOM     25  H   UNL     1      37.202 -19.842 -20.144  0.00  0.00    +0.211 HD
ENDBRANCH   5  24
BRANCH  20  26
ATOM     26  O   UNL     1      29.423 -22.327 -15.294  0.00  0.00    -0.471 OA
ATOM     27  C   UNL     1      28.588 -22.765 -16.365  0.00  0.00    +0.252 C 
ENDBRANCH  20  26
BRANCH  19  28
ATOM     28  O   UNL     1      33.060 -24.146 -12.847  0.00  0.00    -0.505 OA
ATOM     29  H   UNL     1      33.618 -23.572 -12.360  0.00  0.00    +0.292 HD
ENDBRANCH  19  28
TORSDOF 4
ENDMDL
MODEL 2
REMARK VINA RESULT:      -6.8      1.888      6.322
REMARK  Name = 46882177
REMARK  4 active torsions:
REMARK  status: ('A' for Active; 'I' for Inactive)
REMARK    1  A    between atoms: C_4  and  O_22
REMARK    2  A    between atoms: C_5  and  O_24
REMARK    3  A    between atoms: C_19  and  O_28
REMARK    4  A    between atoms: C_20  and  O_26
REMARK                            x       y       z     vdW  Elec       q    Type
REMARK                         _______ _______ _______ _____ _____    ______ ____
ROOT
ATOM      1  O   UNL     1      32.609 -22.832 -17.245  0.00  0.00    -0.449 OA
ATOM      2  O   UNL     1      34.857 -24.944 -13.876  0.00  0.00    -0.289 OA
ATOM      3  O   UNL     1      33.511 -24.551 -18.520  0.00  0.00    -0.245 OA
ATOM      4  C   UNL     1      37.459 -23.683 -13.760  0.00  0.00    +0.149 C 
ATOM      5  C   UNL     1      36.158 -22.960 -13.375  0.00  0.00    +0.199 C 
ATOM      6  C   UNL     1      37.583 -24.118 -15.228  0.00  0.00    +0.058 C 
ATOM      7  C   UNL     1      31.637 -23.698 -16.620  0.00  0.00    +0.174 C 
ATOM      8  C   UNL     1      32.206 -24.243 -15.295  0.00  0.00    +0.070 C 
ATOM      9  C   UNL     1      34.871 -23.740 -13.638  0.00  0.00    +0.202 C 
ATOM     10  C   UNL     1      37.171 -23.070 -16.220  0.00  0.00    -0.024 C 
ATOM     11  C   UNL     1      35.716 -22.298 -18.108  0.00  0.00    +0.012 C 
ATOM     12  C   UNL     1      34.390 -22.350 -18.580  0.00  0.00    +0.109 C 
ATOM     13  C   UNL     1      32.485 -23.184 -14.261  0.00  0.00    -0.019 C 
ATOM     14  C   UNL     1      36.220 -23.290 -17.141  0.00  0.00    -0.004 C 
ATOM     15  C   UNL     1      33.608 -22.947 -13.569  0.00  0.00    +0.036 C 
ATOM     16  C   UNL     1      30.342 -22.908 -16.467  0.00  0.00    +0.048 C 
ATOM     17  C   UNL     1      33.459 -23.396 -18.137  0.00  0.00    +0.344 C 
ATOM     18  C   UNL     1      36.548 -21.288 -18.617  0.00  0.00    +0.037 C 
ATOM     19  C   UNL     1      33.904 -21.416 -19.504  0.00  0.00    +0.143 C 
ATOM     20  C   UNL     1      36.066 -20.353 -19.539  0.00  0.00    +0.142 C 
ATOM     21  C   UNL     1      34.745 -20.415 -19.978  0.00  0.00    +0.074 C 
ENDROOT
BRANCH   4  22
ATOM     22  O   UNL     1      37.614 -24.838 -12.931  0.00  0.00    -0.381 OA
ATOM     23  H   UNL     1      38.169 -24.616 -12.166  0.00  0.00    +0.210 HD
ENDBRANCH   4  22
BRANCH   5  24
ATOM     24  O   UNL     1      36.215 -22.660 -11.985  0.00  0.00    -0.375 OA
ATOM     25  H   UNL     1      35.548 -23.183 -11.514  0.00  0.00    +0.211 HD
ENDBRANCH   5  24
BRANCH  20  26
ATOM     26  O   UNL     1      36.895 -19.383 -20.017  0.00  0.00    -0.471 OA
ATOM     27  C   UNL     1      36.560 -18.808 -21.279  0.00  0.00    +0.252 C 
ENDBRANCH  20  26
BRANCH  19  28
ATOM     28  O   UNL     1      32.616 -21.435 -19.943  0.00  0.00    -0.505 OA
ATOM     29  H   UNL     1      32.095 -20.657 -19.900  0.00  0.00    +0.292 HD
ENDBRANCH  19  28
TORSDOF 4
ENDMDL
MODEL 3
REMARK VINA RESULT:      -6.6     10.927     14.239
REMARK  Name = 46882177
REMARK  4 active torsions:
REMARK  status: ('A' for Active; 'I' for Inactive)
REMARK    1  A    between atoms: C_4  and  O_22
REMARK    2  A    between atoms: C_5  and  O_24
REMARK    3  A    between atoms: C_19  and  O_28
REMARK    4  A    between atoms: C_20  and  O_26
REMARK                            x       y       z     vdW  Elec       q    Type
REMARK                         _______ _______ _______ _____ _____    ______ ____
ROOT
ATOM      1  O   UNL     1      31.981 -10.528 -20.849  0.00  0.00    -0.449 OA
ATOM      2  O   UNL     1      32.180 -14.678 -22.746  0.00  0.00    -0.289 OA
ATOM      3  O   UNL     1      30.321 -10.208 -22.442  0.00  0.00    -0.245 OA
ATOM      4  C   UNL     1      34.188 -14.494 -24.823  0.00  0.00    +0.149 C 
ATOM      5  C   UNL     1      34.519 -14.404 -23.324  0.00  0.00    +0.199 C 
ATOM      6  C   UNL     1      33.301 -13.374 -25.389  0.00  0.00    +0.058 C 
ATOM      7  C   UNL     1      31.141 -11.366 -20.025  0.00  0.00    +0.174 C 
ATOM      8  C   UNL     1      31.361 -12.845 -20.401  0.00  0.00    +0.070 C 
ATOM      9  C   UNL     1      33.313 -14.376 -22.385  0.00  0.00    +0.202 C 
ATOM     10  C   UNL     1      33.695 -11.994 -24.952  0.00  0.00    -0.024 C 
ATOM     11  C   UNL     1      33.162  -9.826 -23.814  0.00  0.00    +0.012 C 
ATOM     12  C   UNL     1      32.494  -9.295 -22.694  0.00  0.00    +0.109 C 
ATOM     13  C   UNL     1      32.758 -13.347 -20.146  0.00  0.00    -0.019 C 
ATOM     14  C   UNL     1      32.838 -11.169 -24.330  0.00  0.00    -0.004 C 
ATOM     15  C   UNL     1      33.600 -13.976 -20.976  0.00  0.00    +0.036 C 
ATOM     16  C   UNL     1      31.446 -11.039 -18.568  0.00  0.00    +0.048 C 
ATOM     17  C   UNL     1      31.444 -10.052 -21.999  0.00  0.00    +0.344 C 
ATOM     18  C   UNL     1      34.123  -9.017 -24.442  0.00  0.00    +0.037 C 
ATOM     19  C   UNL     1      32.789  -8.018 -22.202  0.00  0.00    +0.143 C 
ATOM     20  C   UNL     1      34.421  -7.741 -23.953  0.00  0.00    +0.142 C 
ATOM     21  C   UNL     1      33.758  -7.244 -22.832  0.00  0.00    +0.074 C 
ENDROOT
BRANCH   4  22
ATOM     22  O   UNL     1      33.554 -15.750 -25.085  0.00  0.00    -0.381 OA
ATOM     23  H   UNL     1      34.058 -16.462 -24.661  0.00  0.00    +0.210 HD
ENDBRANCH   4  22
BRANCH   5  24
ATOM     24  O   UNL     1      35.320 -15.529 -22.981  0.00  0.00    -0.375 OA
ATOM     25  H   UNL     1      35.212 -15.726 -22.038  0.00  0.00    +0.211 HD
ENDBRANCH   5  24
BRANCH  20  26
ATOM     26  O   UNL     1      35.357  -6.976 -24.581  0.00  0.00    -0.471 OA
ATOM     27  C   UNL     1      34.907  -6.149 -25.653  0.00  0.00    +0.252 C 
ENDBRANCH  20  26
BRANCH  19  28
ATOM     28  O   UNL     1      32.175  -7.506 -21.100  0.00  0.00    -0.505 OA
ATOM     29  H   UNL     1      32.354  -7.867 -20.254  0.00  0.00    +0.292 HD
ENDBRANCH  19  28
TORSDOF 4
ENDMDL
MODEL 4
REMARK VINA RESULT:      -6.4      9.660     13.168
REMARK  Name = 46882177
REMARK  4 active torsions:
REMARK  status: ('A' for Active; 'I' for Inactive)
REMARK    1  A    between atoms: C_4  and  O_22
REMARK    2  A    between atoms: C_5  and  O_24
REMARK    3  A    between atoms: C_19  and  O_28
REMARK    4  A    between atoms: C_20  and  O_26
REMARK                            x       y       z     vdW  Elec       q    Type
REMARK                         _______ _______ _______ _____ _____    ______ ____
ROOT
ATOM      1  O   UNL     1      33.992 -12.410 -24.531  0.00  0.00    -0.449 OA
ATOM      2  O   UNL     1      31.449  -9.325 -22.324  0.00  0.00    -0.289 OA
ATOM      3  O   UNL     1      31.952 -13.498 -24.746  0.00  0.00    -0.245 OA
ATOM      4  C   UNL     1      31.544 -10.085 -19.532  0.00  0.00    +0.149 C 
ATOM      5  C   UNL     1      32.765  -9.551 -20.300  0.00  0.00    +0.199 C 
ATOM      6  C   UNL     1      30.970 -11.424 -20.020  0.00  0.00    +0.058 C 
ATOM      7  C   UNL     1      33.656 -11.413 -25.520  0.00  0.00    +0.174 C 
ATOM      8  C   UNL     1      33.044 -10.181 -24.824  0.00  0.00    +0.070 C 
ATOM      9  C   UNL     1      32.558  -9.341 -21.799  0.00  0.00    +0.202 C 
ATOM     10  C   UNL     1      32.005 -12.476 -20.292  0.00  0.00    -0.024 C 
ATOM     11  C   UNL     1      33.136 -14.077 -21.853  0.00  0.00    +0.012 C 
ATOM     12  C   UNL     1      33.589 -14.200 -23.181  0.00  0.00    +0.109 C 
ATOM     13  C   UNL     1      33.982  -9.474 -23.882  0.00  0.00    -0.019 C 
ATOM     14  C   UNL     1      32.112 -13.082 -21.485  0.00  0.00    -0.004 C 
ATOM     15  C   UNL     1      33.800  -9.130 -22.600  0.00  0.00    +0.036 C 
ATOM     16  C   UNL     1      34.916 -11.116 -26.325  0.00  0.00    +0.048 C 
ATOM     17  C   UNL     1      33.056 -13.349 -24.253  0.00  0.00    +0.344 C 
ATOM     18  C   UNL     1      33.670 -14.959 -20.900  0.00  0.00    +0.037 C 
ATOM     19  C   UNL     1      34.555 -15.147 -23.541  0.00  0.00    +0.143 C 
ATOM     20  C   UNL     1      34.636 -15.906 -21.256  0.00  0.00    +0.142 C 
ATOM     21  C   UNL     1      35.081 -15.996 -22.573  0.00  0.00    +0.074 C 
ENDROOT
BRANCH   4  22
ATOM     22  O   UNL     1      30.502  -9.104 -19.574  0.00  0.00    -0.381 OA
ATOM     23  H   UNL     1      30.375  -8.730 -18.687  0.00  0.00    +0.210 HD
ENDBRANCH   4  22
BRANCH   5  24
ATOM     24  O   UNL     1      33.135  -8.302 -19.725  0.00  0.00    -0.375 OA
ATOM     25  H   UNL     1      33.588  -8.457 -18.882  0.00  0.00    +0.211 HD
ENDBRANCH   5  24
BRANCH  20  26
ATOM     26  O   UNL     1      35.138 -16.750 -20.311  0.00  0.00    -0.471 OA
ATOM     27  C   UNL     1      35.579 -18.032 -20.755  0.00  0.00    +0.252 C 
ENDBRANCH  20  26
BRANCH  19  28
ATOM     28  O   UNL     1      35.025 -15.254 -24.814  0.00  0.00    -0.505 OA
ATOM     29  H   UNL     1      35.891 -15.579 -24.968  0.00  0.00    +0.292 HD
ENDBRANCH  19  28
TORSDOF 4
ENDMDL
MODEL 5
REMARK VINA RESULT:      -5.2     13.619     16.987
REMARK  Name = 46882177
REMARK  4 active torsions:
REMARK  status: ('A' for Active; 'I' for Inactive)
REMARK    1  A    between atoms: C_4  and  O_22
REMARK    2  A    between atoms: C_5  and  O_24
REMARK    3  A    between atoms: C_19  and  O_28
REMARK    4  A    between atoms: C_20  and  O_26
REMARK                            x       y       z     vdW  Elec       q    Type
REMARK                         _______ _______ _______ _____ _____    ______ ____
ROOT
ATOM      1  O   UNL     1      34.259  -8.734 -24.758  0.00  0.00    -0.449 OA
ATOM      2  O   UNL     1      33.260 -11.314 -21.124  0.00  0.00    -0.289 OA
ATOM      3  O   UNL     1      35.589  -7.611 -23.221  0.00  0.00    -0.245 OA
ATOM      4  C   UNL     1      30.906 -10.119 -19.938  0.00  0.00    +0.149 C 
ATOM      5  C   UNL     1      30.893 -10.820 -21.307  0.00  0.00    +0.199 C 
ATOM      6  C   UNL     1      31.770  -8.854 -19.834  0.00  0.00    +0.058 C 
ATOM      7  C   UNL     1      35.156  -9.863 -24.832  0.00  0.00    +0.174 C 
ATOM      8  C   UNL     1      34.716 -10.940 -23.820  0.00  0.00    +0.070 C 
ATOM      9  C   UNL     1      32.259 -11.261 -21.832  0.00  0.00    +0.202 C 
ATOM     10  C   UNL     1      31.615  -7.903 -20.984  0.00  0.00    -0.024 C 
ATOM     11  C   UNL     1      32.584  -6.623 -22.908  0.00  0.00    +0.012 C 
ATOM     12  C   UNL     1      33.514  -6.735 -23.960  0.00  0.00    +0.109 C 
ATOM     13  C   UNL     1      33.355 -11.525 -24.093  0.00  0.00    -0.019 C 
ATOM     14  C   UNL     1      32.659  -7.503 -21.728  0.00  0.00    -0.004 C 
ATOM     15  C   UNL     1      32.304 -11.649 -23.273  0.00  0.00    +0.036 C 
ATOM     16  C   UNL     1      35.185 -10.339 -26.280  0.00  0.00    +0.048 C 
ATOM     17  C   UNL     1      34.599  -7.725 -23.921  0.00  0.00    +0.344 C 
ATOM     18  C   UNL     1      31.604  -5.622 -23.010  0.00  0.00    +0.037 C 
ATOM     19  C   UNL     1      33.455  -5.899 -25.082  0.00  0.00    +0.143 C 
ATOM     20  C   UNL     1      31.542  -4.786 -24.130  0.00  0.00    +0.142 C 
ATOM     21  C   UNL     1      32.464  -4.928 -25.166  0.00  0.00    +0.074 C 
ENDROOT
BRANCH   4  22
ATOM     22  O   UNL     1      31.342 -11.050 -18.942  0.00  0.00    -0.381 OA
ATOM     23  H   UNL     1      31.695 -11.844 -19.374  0.00  0.00    +0.210 HD
ENDBRANCH   4  22
BRANCH   5  24
ATOM     24  O   UNL     1      30.066 -11.974 -21.204  0.00  0.00    -0.375 OA
ATOM     25  H   UNL     1      30.004 -12.404 -22.071  0.00  0.00    +0.211 HD
ENDBRANCH   5  24
BRANCH  20  26
ATOM     26  O   UNL     1      30.582  -3.822 -24.204  0.00  0.00    -0.471 OA
ATOM     27  C   UNL     1      30.750  -2.814 -25.199  0.00  0.00    +0.252 C 
ENDBRANCH  20  26
BRANCH  19  28
ATOM     28  O   UNL     1      34.327  -6.019 -26.121  0.00  0.00    -0.505 OA
ATOM     29  H   UNL     1      34.051  -6.422 -26.920  0.00  0.00    +0.292 HD
ENDBRANCH  19  28
TORSDOF 4
ENDMDL
MODEL 6
REMARK VINA RESULT:      -5.0      2.194      6.348
REMARK  Name = 46882177
REMARK  4 active torsions:
REMARK  status: ('A' for Active; 'I' for Inactive)
REMARK    1  A    between atoms: C_4  and  O_22
REMARK    2  A    between atoms: C_5  and  O_24
REMARK    3  A    between atoms: C_19  and  O_28
REMARK    4  A    between atoms: C_20  and  O_26
REMARK                            x       y       z     vdW  Elec       q    Type
REMARK                         _______ _______ _______ _____ _____    ______ ____
ROOT
ATOM      1  O   UNL     1      35.130 -23.140 -16.684  0.00  0.00    -0.449 OA
ATOM      2  O   UNL     1      30.773 -24.507 -16.590  0.00  0.00    -0.289 OA
ATOM      3  O   UNL     1      35.537 -25.414 -16.451  0.00  0.00    -0.245 OA
ATOM      4  C   UNL     1      29.972 -24.380 -13.811  0.00  0.00    +0.149 C 
ATOM      5  C   UNL     1      30.286 -23.131 -14.653  0.00  0.00    +0.199 C 
ATOM      6  C   UNL     1      31.142 -25.347 -13.573  0.00  0.00    +0.058 C 
ATOM      7  C   UNL     1      34.740 -23.269 -18.068  0.00  0.00    +0.174 C 
ATOM      8  C   UNL     1      33.211 -23.446 -18.159  0.00  0.00    +0.070 C 
ATOM      9  C   UNL     1      30.832 -23.404 -16.054  0.00  0.00    +0.202 C 
ATOM     10  C   UNL     1      32.427 -24.678 -13.184  0.00  0.00    -0.024 C 
ATOM     11  C   UNL     1      34.849 -24.187 -13.601  0.00  0.00    +0.012 C 
ATOM     12  C   UNL     1      35.763 -23.907 -14.635  0.00  0.00    +0.109 C 
ATOM     13  C   UNL     1      32.421 -22.267 -17.656  0.00  0.00    -0.019 C 
ATOM     14  C   UNL     1      33.563 -24.852 -13.878  0.00  0.00    -0.004 C 
ATOM     15  C   UNL     1      31.430 -22.230 -16.755  0.00  0.00    +0.036 C 
ATOM     16  C   UNL     1      35.275 -22.054 -18.817  0.00  0.00    +0.048 C 
ATOM     17  C   UNL     1      35.478 -24.274 -16.029  0.00  0.00    +0.344 C 
ATOM     18  C   UNL     1      35.221 -23.838 -12.292  0.00  0.00    +0.037 C 
ATOM     19  C   UNL     1      36.989 -23.282 -14.380  0.00  0.00    +0.143 C 
ATOM     20  C   UNL     1      36.445 -23.213 -12.034  0.00  0.00    +0.142 C 
ATOM     21  C   UNL     1      37.326 -22.931 -13.076  0.00  0.00    +0.074 C 
ENDROOT
BRANCH   4  22
ATOM     22  O   UNL     1      28.905 -25.103 -14.431  0.00  0.00    -0.381 OA
ATOM     23  H   UNL     1      28.298 -25.433 -13.749  0.00  0.00    +0.210 HD
ENDBRANCH   4  22
BRANCH   5  24
ATOM     24  O   UNL     1      29.087 -22.376 -14.785  0.00  0.00    -0.375 OA
ATOM     25  H   UNL     1      28.552 -22.744 -15.505  0.00  0.00    +0.211 HD
ENDBRANCH   5  24
BRANCH  20  26
ATOM     26  O   UNL     1      36.782 -22.886 -10.755  0.00  0.00    -0.471 OA
ATOM     27  C   UNL     1      36.194 -23.660  -9.711  0.00  0.00    +0.252 C 
ENDBRANCH  20  26
BRANCH  19  28
ATOM     28  O   UNL     1      37.867 -22.976 -15.374  0.00  0.00    -0.505 OA
ATOM     29  H   UNL     1      38.702 -22.605 -15.165  0.00  0.00    +0.292 HD
ENDBRANCH  19  28
TORSDOF 4
ENDMDL
MODEL 7
REMARK VINA RESULT:      -4.9      2.291      5.641
REMARK  Name = 46882177
REMARK  4 active torsions:
REMARK  status: ('A' for Active; 'I' for Inactive)
REMARK    1  A    between atoms: C_4  and  O_22
REMARK    2  A    between atoms: C_5  and  O_24
REMARK    3  A    between atoms: C_19  and  O_28
REMARK    4  A    between atoms: C_20  and  O_26
REMARK                            x       y       z     vdW  Elec       q    Type
REMARK                         _______ _______ _______ _____ _____    ______ ____
ROOT
ATOM      1  O   UNL     1      34.474 -24.490 -14.119  0.00  0.00    -0.449 OA
ATOM      2  O   UNL     1      33.570 -21.519 -17.467  0.00  0.00    -0.289 OA
ATOM      3  O   UNL     1      35.406 -22.616 -13.114  0.00  0.00    -0.245 OA
ATOM      4  C   UNL     1      35.830 -21.659 -19.270  0.00  0.00    +0.149 C 
ATOM      5  C   UNL     1      34.831 -22.814 -19.084  0.00  0.00    +0.199 C 
ATOM      6  C   UNL     1      36.662 -21.278 -18.036  0.00  0.00    +0.058 C 
ATOM      7  C   UNL     1      33.121 -24.045 -13.880  0.00  0.00    +0.174 C 
ATOM      8  C   UNL     1      32.611 -23.262 -15.107  0.00  0.00    +0.070 C 
ATOM      9  C   UNL     1      33.790 -22.610 -17.984  0.00  0.00    +0.202 C 
ATOM     10  C   UNL     1      37.240 -22.447 -17.295  0.00  0.00    -0.024 C 
ATOM     11  C   UNL     1      37.480 -23.810 -15.206  0.00  0.00    +0.012 C 
ATOM     12  C   UNL     1      36.743 -24.301 -14.111  0.00  0.00    +0.109 C 
ATOM     13  C   UNL     1      32.520 -24.079 -16.368  0.00  0.00    -0.019 C 
ATOM     14  C   UNL     1      37.002 -22.657 -15.991  0.00  0.00    -0.004 C 
ATOM     15  C   UNL     1      33.027 -23.829 -17.582  0.00  0.00    +0.036 C 
ATOM     16  C   UNL     1      32.284 -25.269 -13.528  0.00  0.00    +0.048 C 
ATOM     17  C   UNL     1      35.476 -23.681 -13.700  0.00  0.00    +0.344 C 
ATOM     18  C   UNL     1      38.700 -24.438 -15.503  0.00  0.00    +0.037 C 
ATOM     19  C   UNL     1      37.192 -25.391 -13.355  0.00  0.00    +0.143 C 
ATOM     20  C   UNL     1      39.152 -25.527 -14.751  0.00  0.00    +0.142 C 
ATOM     21  C   UNL     1      38.397 -26.005 -13.682  0.00  0.00    +0.074 C 
ENDROOT
BRANCH   4  22
ATOM     22  O   UNL     1      35.122 -20.498 -19.716  0.00  0.00    -0.381 OA
ATOM     23  H   UNL     1      34.714 -20.679 -20.577  0.00  0.00    +0.210 HD
ENDBRANCH   4  22
BRANCH   5  24
ATOM     24  O   UNL     1      34.143 -23.004 -20.314  0.00  0.00    -0.375 OA
ATOM     25  H   UNL     1      34.788 -23.117 -21.030  0.00  0.00    +0.211 HD
ENDBRANCH   5  24
BRANCH  20  26
ATOM     26  O   UNL     1      40.340 -26.118 -15.059  0.00  0.00    -0.471 OA
ATOM     27  C   UNL     1      41.052 -26.740 -13.991  0.00  0.00    +0.252 C 
ENDBRANCH  20  26
BRANCH  19  28
ATOM     28  O   UNL     1      36.474 -25.896 -12.315  0.00  0.00    -0.505 OA
ATOM     29  H   UNL     1      36.901 -26.095 -11.504  0.00  0.00    +0.292 HD
ENDBRANCH  19  28
TORSDOF 4
ENDMDL
MODEL 8
REMARK VINA RESULT:      -4.6     15.201     18.210
REMARK  Name = 46882177
REMARK  4 active torsions:
REMARK  status: ('A' for Active; 'I' for Inactive)
REMARK    1  A    between atoms: C_4  and  O_22
REMARK    2  A    between atoms: C_5  and  O_24
REMARK    3  A    between atoms: C_19  and  O_28
REMARK    4  A    between atoms: C_20  and  O_26
REMARK                            x       y       z     vdW  Elec       q    Type
REMARK                         _______ _______ _______ _____ _____    ______ ____
ROOT
ATOM      1  O   UNL     1      31.469  -6.590 -22.397  0.00  0.00    -0.449 OA
ATOM      2  O   UNL     1      33.218  -3.373 -25.128  0.00  0.00    -0.289 OA
ATOM      3  O   UNL     1      33.539  -6.411 -21.359  0.00  0.00    -0.245 OA
ATOM      4  C   UNL     1      34.457  -4.797 -27.321  0.00  0.00    +0.149 C 
ATOM      5  C   UNL     1      32.936  -4.760 -27.097  0.00  0.00    +0.199 C 
ATOM      6  C   UNL     1      35.286  -5.484 -26.226  0.00  0.00    +0.058 C 
ATOM      7  C   UNL     1      31.000  -5.334 -21.859  0.00  0.00    +0.174 C 
ATOM      8  C   UNL     1      31.290  -4.201 -22.864  0.00  0.00    +0.070 C 
ATOM      9  C   UNL     1      32.479  -4.080 -25.807  0.00  0.00    +0.202 C 
ATOM     10  C   UNL     1      34.725  -6.793 -25.755  0.00  0.00    -0.024 C 
ATOM     11  C   UNL     1      33.825  -8.256 -23.931  0.00  0.00    +0.012 C 
ATOM     12  C   UNL     1      33.004  -8.226 -22.787  0.00  0.00    +0.109 C 
ATOM     13  C   UNL     1      30.566  -4.340 -24.177  0.00  0.00    -0.019 C 
ATOM     14  C   UNL     1      34.434  -7.025 -24.465  0.00  0.00    -0.004 C 
ATOM     15  C   UNL     1      31.055  -4.311 -25.424  0.00  0.00    +0.036 C 
ATOM     16  C   UNL     1      29.525  -5.500 -21.511  0.00  0.00    +0.048 C 
ATOM     17  C   UNL     1      32.729  -6.971 -22.075  0.00  0.00    +0.344 C 
ATOM     18  C   UNL     1      34.068  -9.506 -24.524  0.00  0.00    +0.037 C 
ATOM     19  C   UNL     1      32.427  -9.391 -22.268  0.00  0.00    +0.143 C 
ATOM     20  C   UNL     1      33.493 -10.672 -24.008  0.00  0.00    +0.142 C 
ATOM     21  C   UNL     1      32.670 -10.614 -22.885  0.00  0.00    +0.074 C 
ENDROOT
BRANCH   4  22
ATOM     22  O   UNL     1      34.938  -3.459 -27.482  0.00  0.00    -0.381 OA
ATOM     23  H   UNL     1      34.677  -3.125 -28.355  0.00  0.00    +0.210 HD
ENDBRANCH   4  22
BRANCH   5  24
ATOM     24  O   UNL     1      32.346  -4.071 -28.193  0.00  0.00    -0.375 OA
ATOM     25  H   UNL     1      32.871  -4.227 -28.993  0.00  0.00    +0.211 HD
ENDBRANCH   5  24
BRANCH  20  26
ATOM     26  O   UNL     1      33.745 -11.872 -24.602  0.00  0.00    -0.471 OA
ATOM     27  C   UNL     1      33.752 -13.024 -23.761  0.00  0.00    +0.252 C 
ENDBRANCH  20  26
BRANCH  19  28
ATOM     28  O   UNL     1      31.605  -9.372 -21.182  0.00  0.00    -0.505 OA
ATOM     29  H   UNL     1      30.882  -9.965 -21.132  0.00  0.00    +0.292 HD
ENDBRANCH  19  28
TORSDOF 4
ENDMDL
MODEL 9
REMARK VINA RESULT:      -4.5      9.114     12.803
REMARK  Name = 46882177
REMARK  4 active torsions:
REMARK  status: ('A' for Active; 'I' for Inactive)
REMARK    1  A    between atoms: C_4  and  O_22
REMARK    2  A    between atoms: C_5  and  O_24
REMARK    3  A    between atoms: C_19  and  O_28
REMARK    4  A    between atoms: C_20  and  O_26
REMARK                            x       y       z     vdW  Elec       q    Type
REMARK                         _______ _______ _______ _____ _____    ______ ____
ROOT
ATOM      1  O   UNL     1      32.667 -12.173 -21.490  0.00  0.00    -0.449 OA
ATOM      2  O   UNL     1      32.949 -16.674 -22.206  0.00  0.00    -0.289 OA
ATOM      3  O   UNL     1      30.926 -12.341 -23.018  0.00  0.00    -0.245 OA
ATOM      4  C   UNL     1      34.853 -17.007 -24.361  0.00  0.00    +0.149 C 
ATOM      5  C   UNL     1      35.247 -16.505 -22.962  0.00  0.00    +0.199 C 
ATOM      6  C   UNL     1      33.898 -16.107 -25.159  0.00  0.00    +0.058 C 
ATOM      7  C   UNL     1      31.900 -12.778 -20.427  0.00  0.00    +0.174 C 
ATOM      8  C   UNL     1      32.162 -14.297 -20.401  0.00  0.00    +0.070 C 
ATOM      9  C   UNL     1      34.085 -16.256 -22.002  0.00  0.00    +0.202 C 
ATOM     10  C   UNL     1      34.254 -14.650 -25.132  0.00  0.00    -0.024 C 
ATOM     11  C   UNL     1      33.685 -12.269 -24.594  0.00  0.00    +0.012 C 
ATOM     12  C   UNL     1      33.048 -11.473 -23.624  0.00  0.00    +0.109 C 
ATOM     13  C   UNL     1      33.588 -14.673 -20.096  0.00  0.00    -0.019 C 
ATOM     14  C   UNL     1      33.394 -13.710 -24.710  0.00  0.00    -0.004 C 
ATOM     15  C   UNL     1      34.417 -15.481 -20.770  0.00  0.00    +0.036 C 
ATOM     16  C   UNL     1      32.256 -12.059 -19.131  0.00  0.00    +0.048 C 
ATOM     17  C   UNL     1      32.061 -12.040 -22.695  0.00  0.00    +0.344 C 
ATOM     18  C   UNL     1      34.584 -11.636 -25.468  0.00  0.00    +0.037 C 
ATOM     19  C   UNL     1      33.312 -10.103 -23.512  0.00  0.00    +0.143 C 
ATOM     20  C   UNL     1      34.852 -10.267 -25.358  0.00  0.00    +0.142 C 
ATOM     21  C   UNL     1      34.220  -9.503 -24.378  0.00  0.00    +0.074 C 
ENDROOT
BRANCH   4  22
ATOM     22  O   UNL     1      34.259 -18.303 -24.240  0.00  0.00    -0.381 OA
ATOM     23  H   UNL     1      33.434 -18.235 -23.734  0.00  0.00    +0.210 HD
ENDBRANCH   4  22
BRANCH   5  24
ATOM     24  O   UNL     1      36.108 -17.472 -22.372  0.00  0.00    -0.375 OA
ATOM     25  H   UNL     1      37.031 -17.228 -22.540  0.00  0.00    +0.211 HD
ENDBRANCH   5  24
BRANCH  20  26
ATOM     26  O   UNL     1      35.727  -9.676 -26.219  0.00  0.00    -0.471 OA
ATOM     27  C   UNL     1      36.152 -10.447 -27.342  0.00  0.00    +0.252 C 
ENDBRANCH  20  26
BRANCH  19  28
ATOM     28  O   UNL     1      32.728  -9.328 -22.557  0.00  0.00    -0.505 OA
ATOM     29  H   UNL     1      31.796  -9.335 -22.453  0.00  0.00    +0.292 HD
ENDBRANCH  19  28
TORSDOF 4
ENDMDL
