MODEL 1
REMARK VINA RESULT:      -8.9      0.000      0.000
REMARK  Name = 446658
REMARK  6 active torsions:
REMARK  status: ('A' for Active; 'I' for Inactive)
REMARK    1  A    between atoms: N_5  and  C_9
REMARK    2  A    between atoms: C_6  and  C_16
REMARK    3  A    between atoms: C_17  and  O_20
REMARK    4  A    between atoms: C_18  and  O_22
REMARK    5  A    between atoms: C_19  and  C_24
REMARK    6  A    between atoms: C_24  and  O_25
REMARK                            x       y       z     vdW  Elec       q    Type
REMARK                         _______ _______ _______ _____ _____    ______ ____
ROOT
ATOM      1  N   UNL     1      33.029 -25.040 -13.327  0.00  0.00    -0.251 N 
ATOM      2  N   UNL     1      31.698 -25.248 -13.363  0.00  0.00    -0.185 NA
ATOM      3  N   UNL     1      32.341 -23.153 -16.161  0.00  0.00    -0.254 NA
ATOM      4  N   UNL     1      29.965 -23.657 -16.044  0.00  0.00    -0.234 NA
ATOM      5  C   UNL     1      33.502 -24.247 -14.327  0.00  0.00    +0.157 C 
ATOM      6  C   UNL     1      32.399 -23.925 -15.057  0.00  0.00    +0.095 C 
ATOM      7  C   UNL     1      31.268 -24.563 -14.439  0.00  0.00    +0.120 C 
ATOM      8  C   UNL     1      29.974 -24.431 -14.947  0.00  0.00    +0.158 C 
ATOM      9  C   UNL     1      31.055 -23.078 -16.589  0.00  0.00    +0.202 C 
ATOM     10  C   UNL     1      28.684 -23.408 -16.713  0.00  0.00    +0.093 C 
ATOM     11  H   UNL     1      33.611 -25.428 -12.634  0.00  0.00    +0.169 HD
ENDROOT
BRANCH   5  13
ATOM     12  O   UNL     1      35.541 -24.679 -15.523  0.00  0.00    -0.349 OA
ATOM     13  C   UNL     1      34.963 -23.896 -14.459  0.00  0.00    +0.169 C 
ATOM     14  C   UNL     1      35.783 -24.211 -13.215  0.00  0.00    +0.169 C 
ATOM     15  C   UNL     1      37.164 -24.444 -13.796  0.00  0.00    +0.169 C 
ATOM     16  C   UNL     1      36.852 -25.136 -15.119  0.00  0.00    +0.174 C 
BRANCH  14  17
ATOM     17  O   UNL     1      35.749 -23.151 -12.281  0.00  0.00    -0.379 OA
ATOM     18  H   UNL     1      34.868 -23.101 -11.880  0.00  0.00    +0.211 HD
ENDBRANCH  14  17
BRANCH  15  19
ATOM     19  O   UNL     1      37.822 -23.204 -14.057  0.00  0.00    -0.379 OA
ATOM     20  H   UNL     1      38.752 -23.371 -14.277  0.00  0.00    +0.211 HD
ENDBRANCH  15  19
BRANCH  16  21
ATOM     21  C   UNL     1      36.811 -26.654 -14.998  0.00  0.00    +0.169 C 
BRANCH  21  22
ATOM     22  O   UNL     1      36.782 -27.212 -16.299  0.00  0.00    -0.379 OA
ATOM     23  H   UNL     1      37.028 -26.535 -16.948  0.00  0.00    +0.211 HD
ENDBRANCH  21  22
ENDBRANCH  16  21
ENDBRANCH   5  13
BRANCH   8  24
ATOM     24  N   UNL     1      28.824 -25.018 -14.407  0.00  0.00    -0.305 NA
ATOM     25  H   UNL     1      28.140 -25.401 -15.003  0.00  0.00    +0.120 HD
ATOM     26  H   UNL     1      28.699 -25.048 -13.431  0.00  0.00    +0.120 HD
ENDBRANCH   8  24
TORSDOF 6
ENDMDL
MODEL 2
REMARK VINA RESULT:      -8.8      2.148      3.359
REMARK  Name = 446658
REMARK  6 active torsions:
REMARK  status: ('A' for Active; 'I' for Inactive)
REMARK    1  A    between atoms: N_5  and  C_9
REMARK    2  A    between atoms: C_6  and  C_16
REMARK    3  A    between atoms: C_17  and  O_20
REMARK    4  A    between atoms: C_18  and  O_22
REMARK    5  A    between atoms: C_19  and  C_24
REMARK    6  A    between atoms: C_24  and  O_25
REMARK                            x       y       z     vdW  Elec       q    Type
REMARK                         _______ _______ _______ _____ _____    ______ ____
ROOT
ATOM      1  N   UNL     1      36.433 -23.119 -16.079  0.00  0.00    -0.251 N 
ATOM      2  N   UNL     1      35.506 -22.877 -17.027  0.00  0.00    -0.185 NA
ATOM      3  N   UNL     1      33.621 -23.802 -14.159  0.00  0.00    -0.254 NA
ATOM      4  N   UNL     1      32.116 -23.314 -16.006  0.00  0.00    -0.234 NA
ATOM      5  C   UNL     1      35.924 -23.497 -14.876  0.00  0.00    +0.157 C 
ATOM      6  C   UNL     1      34.575 -23.496 -15.061  0.00  0.00    +0.095 C 
ATOM      7  C   UNL     1      34.325 -23.103 -16.422  0.00  0.00    +0.120 C 
ATOM      8  C   UNL     1      33.031 -23.002 -16.938  0.00  0.00    +0.158 C 
ATOM      9  C   UNL     1      32.400 -23.679 -14.738  0.00  0.00    +0.202 C 
ATOM     10  C   UNL     1      30.697 -23.263 -16.375  0.00  0.00    +0.093 C 
ATOM     11  H   UNL     1      37.400 -23.031 -16.245  0.00  0.00    +0.169 HD
ENDROOT
BRANCH   5  13
ATOM     12  O   UNL     1      38.183 -23.724 -14.087  0.00  0.00    -0.349 OA
ATOM     13  C   UNL     1      36.800 -23.813 -13.689  0.00  0.00    +0.169 C 
ATOM     14  C   UNL     1      36.610 -25.223 -13.147  0.00  0.00    +0.169 C 
ATOM     15  C   UNL     1      37.964 -25.509 -12.526  0.00  0.00    +0.169 C 
ATOM     16  C   UNL     1      38.921 -24.814 -13.489  0.00  0.00    +0.174 C 
BRANCH  14  17
ATOM     17  O   UNL     1      35.551 -25.290 -12.214  0.00  0.00    -0.379 OA
ATOM     18  H   UNL     1      35.911 -25.420 -11.324  0.00  0.00    +0.211 HD
ENDBRANCH  14  17
BRANCH  15  19
ATOM     19  O   UNL     1      38.070 -24.903 -11.238  0.00  0.00    -0.379 OA
ATOM     20  H   UNL     1      37.720 -23.999 -11.275  0.00  0.00    +0.211 HD
ENDBRANCH  15  19
BRANCH  16  21
ATOM     21  C   UNL     1      39.407 -25.730 -14.604  0.00  0.00    +0.169 C 
BRANCH  21  22
ATOM     22  O   UNL     1      40.824 -25.739 -14.599  0.00  0.00    -0.379 OA
ATOM     23  H   UNL     1      41.153 -25.457 -15.466  0.00  0.00    +0.211 HD
ENDBRANCH  21  22
ENDBRANCH  16  21
ENDBRANCH   5  13
BRANCH   8  24
ATOM     24  N   UNL     1      32.704 -22.626 -18.246  0.00  0.00    -0.305 NA
ATOM     25  H   UNL     1      31.944 -23.052 -18.705  0.00  0.00    +0.120 HD
ATOM     26  H   UNL     1      33.234 -21.936 -18.707  0.00  0.00    +0.120 HD
ENDBRANCH   8  24
TORSDOF 6
ENDMDL
MODEL 3
REMARK VINA RESULT:      -8.7      3.042      4.156
REMARK  Name = 446658
REMARK  6 active torsions:
REMARK  status: ('A' for Active; 'I' for Inactive)
REMARK    1  A    between atoms: N_5  and  C_9
REMARK    2  A    between atoms: C_6  and  C_16
REMARK    3  A    between atoms: C_17  and  O_20
REMARK    4  A    between atoms: C_18  and  O_22
REMARK    5  A    between atoms: C_19  and  C_24
REMARK    6  A    between atoms: C_24  and  O_25
REMARK                            x       y       z     vdW  Elec       q    Type
REMARK                         _______ _______ _______ _____ _____    ______ ____
ROOT
ATOM      1  N   UNL     1      34.001 -23.759 -15.297  0.00  0.00    -0.251 N 
ATOM      2  N   UNL     1      33.439 -23.461 -16.485  0.00  0.00    -0.185 NA
ATOM      3  N   UNL     1      36.758 -22.212 -16.737  0.00  0.00    -0.254 NA
ATOM      4  N   UNL     1      35.558 -21.773 -18.806  0.00  0.00    -0.234 NA
ATOM      5  C   UNL     1      35.297 -23.363 -15.172  0.00  0.00    +0.157 C 
ATOM      6  C   UNL     1      35.589 -22.770 -16.362  0.00  0.00    +0.095 C 
ATOM      7  C   UNL     1      34.409 -22.839 -17.181  0.00  0.00    +0.120 C 
ATOM      8  C   UNL     1      34.375 -22.316 -18.476  0.00  0.00    +0.158 C 
ATOM      9  C   UNL     1      36.639 -21.731 -18.001  0.00  0.00    +0.202 C 
ATOM     10  C   UNL     1      35.704 -21.172 -20.136  0.00  0.00    +0.093 C 
ATOM     11  H   UNL     1      33.514 -24.224 -14.579  0.00  0.00    +0.169 HD
ENDROOT
BRANCH   5  13
ATOM     12  O   UNL     1      37.269 -24.380 -14.248  0.00  0.00    -0.349 OA
ATOM     13  C   UNL     1      36.099 -23.604 -13.917  0.00  0.00    +0.169 C 
ATOM     14  C   UNL     1      35.353 -24.403 -12.858  0.00  0.00    +0.169 C 
ATOM     15  C   UNL     1      36.488 -25.074 -12.108  0.00  0.00    +0.169 C 
ATOM     16  C   UNL     1      37.485 -25.376 -13.222  0.00  0.00    +0.174 C 
BRANCH  14  17
ATOM     17  O   UNL     1      34.562 -23.573 -12.032  0.00  0.00    -0.379 OA
ATOM     18  H   UNL     1      34.148 -22.881 -12.571  0.00  0.00    +0.211 HD
ENDBRANCH  14  17
BRANCH  15  19
ATOM     19  O   UNL     1      37.083 -24.173 -11.174  0.00  0.00    -0.379 OA
ATOM     20  H   UNL     1      37.518 -23.450 -11.655  0.00  0.00    +0.211 HD
ENDBRANCH  15  19
BRANCH  16  21
ATOM     21  C   UNL     1      37.282 -26.752 -13.841  0.00  0.00    +0.169 C 
BRANCH  21  22
ATOM     22  O   UNL     1      38.419 -27.070 -14.624  0.00  0.00    -0.379 OA
ATOM     23  H   UNL     1      38.775 -26.261 -15.021  0.00  0.00    +0.211 HD
ENDBRANCH  21  22
ENDBRANCH  16  21
ENDBRANCH   5  13
BRANCH   8  24
ATOM     24  N   UNL     1      33.271 -22.344 -19.336  0.00  0.00    -0.305 NA
ATOM     25  H   UNL     1      33.406 -22.427 -20.307  0.00  0.00    +0.120 HD
ATOM     26  H   UNL     1      32.360 -22.280 -18.968  0.00  0.00    +0.120 HD
ENDBRANCH   8  24
TORSDOF 6
ENDMDL
MODEL 4
REMARK VINA RESULT:      -8.3      1.699      3.229
REMARK  Name = 446658
REMARK  6 active torsions:
REMARK  status: ('A' for Active; 'I' for Inactive)
REMARK    1  A    between atoms: N_5  and  C_9
REMARK    2  A    between atoms: C_6  and  C_16
REMARK    3  A    between atoms: C_17  and  O_20
REMARK    4  A    between atoms: C_18  and  O_22
REMARK    5  A    between atoms: C_19  and  C_24
REMARK    6  A    between atoms: C_24  and  O_25
REMARK                            x       y       z     vdW  Elec       q    Type
REMARK                         _______ _______ _______ _____ _____    ______ ____
ROOT
ATOM      1  N   UNL     1      34.732 -23.656 -15.238  0.00  0.00    -0.251 N 
ATOM      2  N   UNL     1      33.780 -23.142 -16.043  0.00  0.00    -0.185 NA
ATOM      3  N   UNL     1      31.968 -24.873 -13.521  0.00  0.00    -0.254 NA
ATOM      4  N   UNL     1      30.416 -23.858 -15.095  0.00  0.00    -0.234 NA
ATOM      5  C   UNL     1      34.252 -24.372 -14.186  0.00  0.00    +0.157 C 
ATOM      6  C   UNL     1      32.899 -24.314 -14.321  0.00  0.00    +0.095 C 
ATOM      7  C   UNL     1      32.615 -23.536 -15.496  0.00  0.00    +0.120 C 
ATOM      8  C   UNL     1      31.307 -23.285 -15.920  0.00  0.00    +0.158 C 
ATOM      9  C   UNL     1      30.732 -24.582 -14.001  0.00  0.00    +0.202 C 
ATOM     10  C   UNL     1      28.988 -23.698 -15.389  0.00  0.00    +0.093 C 
ATOM     11  H   UNL     1      35.694 -23.524 -15.399  0.00  0.00    +0.169 HD
ENDROOT
BRANCH   5  13
ATOM     12  O   UNL     1      35.371 -24.117 -12.073  0.00  0.00    -0.349 OA
ATOM     13  C   UNL     1      35.159 -25.027 -13.172  0.00  0.00    +0.169 C 
ATOM     14  C   UNL     1      36.542 -25.359 -13.713  0.00  0.00    +0.169 C 
ATOM     15  C   UNL     1      37.393 -25.315 -12.459  0.00  0.00    +0.169 C 
ATOM     16  C   UNL     1      36.759 -24.173 -11.672  0.00  0.00    +0.174 C 
BRANCH  14  17
ATOM     17  O   UNL     1      36.568 -26.619 -14.353  0.00  0.00    -0.379 OA
ATOM     18  H   UNL     1      37.364 -27.103 -14.083  0.00  0.00    +0.211 HD
ENDBRANCH  14  17
BRANCH  15  19
ATOM     19  O   UNL     1      37.265 -26.527 -11.715  0.00  0.00    -0.379 OA
ATOM     20  H   UNL     1      36.461 -26.994 -11.993  0.00  0.00    +0.211 HD
ENDBRANCH  15  19
BRANCH  16  21
ATOM     21  C   UNL     1      37.397 -22.823 -11.970  0.00  0.00    +0.169 C 
BRANCH  21  22
ATOM     22  O   UNL     1      38.782 -22.902 -11.681  0.00  0.00    -0.379 OA
ATOM     23  H   UNL     1      38.915 -22.845 -10.722  0.00  0.00    +0.211 HD
ENDBRANCH  21  22
ENDBRANCH  16  21
ENDBRANCH   5  13
BRANCH   8  24
ATOM     24  N   UNL     1      30.947 -22.539 -17.048  0.00  0.00    -0.305 NA
ATOM     25  H   UNL     1      30.875 -21.559 -16.987  0.00  0.00    +0.120 HD
ATOM     26  H   UNL     1      30.764 -22.994 -17.902  0.00  0.00    +0.120 HD
ENDBRANCH   8  24
TORSDOF 6
ENDMDL
MODEL 5
REMARK VINA RESULT:      -8.2      4.251      6.191
REMARK  Name = 446658
REMARK  6 active torsions:
REMARK  status: ('A' for Active; 'I' for Inactive)
REMARK    1  A    between atoms: N_5  and  C_9
REMARK    2  A    between atoms: C_6  and  C_16
REMARK    3  A    between atoms: C_17  and  O_20
REMARK    4  A    between atoms: C_18  and  O_22
REMARK    5  A    between atoms: C_19  and  C_24
REMARK    6  A    between atoms: C_24  and  O_25
REMARK                            x       y       z     vdW  Elec       q    Type
REMARK                         _______ _______ _______ _____ _____    ______ ____
ROOT
ATOM      1  N   UNL     1      32.641 -22.310 -18.647  0.00  0.00    -0.251 N 
ATOM      2  N   UNL     1      32.715 -21.386 -19.625  0.00  0.00    -0.185 NA
ATOM      3  N   UNL     1      36.073 -21.789 -18.531  0.00  0.00    -0.254 NA
ATOM      4  N   UNL     1      35.986 -20.142 -20.318  0.00  0.00    -0.234 NA
ATOM      5  C   UNL     1      33.835 -22.623 -18.076  0.00  0.00    +0.157 C 
ATOM      6  C   UNL     1      34.741 -21.846 -18.732  0.00  0.00    +0.095 C 
ATOM      7  C   UNL     1      34.022 -21.071 -19.706  0.00  0.00    +0.120 C 
ATOM      8  C   UNL     1      34.664 -20.165 -20.553  0.00  0.00    +0.158 C 
ATOM      9  C   UNL     1      36.618 -20.890 -19.389  0.00  0.00    +0.202 C 
ATOM     10  C   UNL     1      36.823 -19.242 -21.119  0.00  0.00    +0.093 C 
ATOM     11  H   UNL     1      31.792 -22.725 -18.369  0.00  0.00    +0.169 HD
ENDROOT
BRANCH   5  13
ATOM     12  O   UNL     1      32.654 -23.886 -16.406  0.00  0.00    -0.349 OA
ATOM     13  C   UNL     1      33.961 -23.635 -16.964  0.00  0.00    +0.169 C 
ATOM     14  C   UNL     1      34.828 -23.166 -15.804  0.00  0.00    +0.169 C 
ATOM     15  C   UNL     1      34.251 -23.948 -14.640  0.00  0.00    +0.169 C 
ATOM     16  C   UNL     1      32.761 -23.972 -14.967  0.00  0.00    +0.174 C 
BRANCH  14  17
ATOM     17  O   UNL     1      36.196 -23.439 -16.027  0.00  0.00    -0.379 OA
ATOM     18  H   UNL     1      36.358 -23.530 -16.979  0.00  0.00    +0.211 HD
ENDBRANCH  14  17
BRANCH  15  19
ATOM     19  O   UNL     1      34.752 -25.284 -14.626  0.00  0.00    -0.379 OA
ATOM     20  H   UNL     1      35.561 -25.332 -15.160  0.00  0.00    +0.211 HD
ENDBRANCH  15  19
BRANCH  16  21
ATOM     21  C   UNL     1      32.002 -22.800 -14.360  0.00  0.00    +0.169 C 
BRANCH  21  22
ATOM     22  O   UNL     1      32.192 -22.814 -12.956  0.00  0.00    -0.379 OA
ATOM     23  H   UNL     1      32.386 -23.718 -12.665  0.00  0.00    +0.211 HD
ENDBRANCH  21  22
ENDBRANCH  16  21
ENDBRANCH   5  13
BRANCH   8  24
ATOM     24  N   UNL     1      34.039 -19.376 -21.525  0.00  0.00    -0.305 NA
ATOM     25  H   UNL     1      33.543 -18.569 -21.259  0.00  0.00    +0.120 HD
ATOM     26  H   UNL     1      34.096 -19.629 -22.475  0.00  0.00    +0.120 HD
ENDBRANCH   8  24
TORSDOF 6
ENDMDL
MODEL 6
REMARK VINA RESULT:      -8.2      1.709      2.646
REMARK  Name = 446658
REMARK  6 active torsions:
REMARK  status: ('A' for Active; 'I' for Inactive)
REMARK    1  A    between atoms: N_5  and  C_9
REMARK    2  A    between atoms: C_6  and  C_16
REMARK    3  A    between atoms: C_17  and  O_20
REMARK    4  A    between atoms: C_18  and  O_22
REMARK    5  A    between atoms: C_19  and  C_24
REMARK    6  A    between atoms: C_24  and  O_25
REMARK                            x       y       z     vdW  Elec       q    Type
REMARK                         _______ _______ _______ _____ _____    ______ ____
ROOT
ATOM      1  N   UNL     1      34.555 -24.800 -13.204  0.00  0.00    -0.251 N 
ATOM      2  N   UNL     1      33.262 -24.434 -13.111  0.00  0.00    -0.185 NA
ATOM      3  N   UNL     1      34.130 -23.763 -16.492  0.00  0.00    -0.254 NA
ATOM      4  N   UNL     1      31.804 -23.165 -16.109  0.00  0.00    -0.234 NA
ATOM      5  C   UNL     1      35.102 -24.625 -14.437  0.00  0.00    +0.157 C 
ATOM      6  C   UNL     1      34.090 -24.111 -15.190  0.00  0.00    +0.095 C 
ATOM      7  C   UNL     1      32.936 -23.996 -14.341  0.00  0.00    +0.120 C 
ATOM      8  C   UNL     1      31.718 -23.497 -14.811  0.00  0.00    +0.158 C 
ATOM      9  C   UNL     1      32.913 -23.291 -16.866  0.00  0.00    +0.202 C 
ATOM     10  C   UNL     1      30.613 -22.621 -16.771  0.00  0.00    +0.093 C 
ATOM     11  H   UNL     1      35.063 -25.164 -12.443  0.00  0.00    +0.169 HD
ENDROOT
BRANCH   5  13
ATOM     12  O   UNL     1      37.111 -25.650 -13.605  0.00  0.00    -0.349 OA
ATOM     13  C   UNL     1      36.538 -24.975 -14.744  0.00  0.00    +0.169 C 
ATOM     14  C   UNL     1      37.422 -23.763 -15.000  0.00  0.00    +0.169 C 
ATOM     15  C   UNL     1      38.789 -24.273 -14.586  0.00  0.00    +0.169 C 
ATOM     16  C   UNL     1      38.458 -25.168 -13.396  0.00  0.00    +0.174 C 
BRANCH  14  17
ATOM     17  O   UNL     1      37.373 -23.352 -16.352  0.00  0.00    -0.379 OA
ATOM     18  H   UNL     1      36.593 -23.738 -16.779  0.00  0.00    +0.211 HD
ENDBRANCH  14  17
BRANCH  15  19
ATOM     19  O   UNL     1      39.372 -25.063 -15.622  0.00  0.00    -0.379 OA
ATOM     20  H   UNL     1      40.137 -25.544 -15.270  0.00  0.00    +0.211 HD
ENDBRANCH  15  19
BRANCH  16  21
ATOM     21  C   UNL     1      38.499 -24.426 -12.067  0.00  0.00    +0.169 C 
BRANCH  21  22
ATOM     22  O   UNL     1      37.254 -24.597 -11.413  0.00  0.00    -0.379 OA
ATOM     23  H   UNL     1      37.066 -23.818 -10.868  0.00  0.00    +0.211 HD
ENDBRANCH  21  22
ENDBRANCH  16  21
ENDBRANCH   5  13
BRANCH   8  24
ATOM     24  N   UNL     1      30.551 -23.355 -14.052  0.00  0.00    -0.305 NA
ATOM     25  H   UNL     1      30.545 -23.615 -13.103  0.00  0.00    +0.120 HD
ATOM     26  H   UNL     1      29.734 -22.994 -14.469  0.00  0.00    +0.120 HD
ENDBRANCH   8  24
TORSDOF 6
ENDMDL
MODEL 7
REMARK VINA RESULT:      -8.1      6.883      8.782
REMARK  Name = 446658
REMARK  6 active torsions:
REMARK  status: ('A' for Active; 'I' for Inactive)
REMARK    1  A    between atoms: N_5  and  C_9
REMARK    2  A    between atoms: C_6  and  C_16
REMARK    3  A    between atoms: C_17  and  O_20
REMARK    4  A    between atoms: C_18  and  O_22
REMARK    5  A    between atoms: C_19  and  C_24
REMARK    6  A    between atoms: C_24  and  O_25
REMARK                            x       y       z     vdW  Elec       q    Type
REMARK                         _______ _______ _______ _____ _____    ______ ____
ROOT
ATOM      1  N   UNL     1      33.315 -20.734 -20.605  0.00  0.00    -0.251 N 
ATOM      2  N   UNL     1      32.928 -21.632 -19.677  0.00  0.00    -0.185 NA
ATOM      3  N   UNL     1      36.344 -20.999 -18.925  0.00  0.00    -0.254 NA
ATOM      4  N   UNL     1      35.443 -22.613 -17.346  0.00  0.00    -0.234 NA
ATOM      5  C   UNL     1      34.614 -20.344 -20.503  0.00  0.00    +0.157 C 
ATOM      6  C   UNL     1      35.096 -21.038 -19.435  0.00  0.00    +0.095 C 
ATOM      7  C   UNL     1      34.023 -21.846 -18.924  0.00  0.00    +0.120 C 
ATOM      8  C   UNL     1      34.189 -22.685 -17.820  0.00  0.00    +0.158 C 
ATOM      9  C   UNL     1      36.419 -21.838 -17.861  0.00  0.00    +0.202 C 
ATOM     10  C   UNL     1      35.798 -23.433 -16.182  0.00  0.00    +0.093 C 
ATOM     11  H   UNL     1      32.708 -20.390 -21.299  0.00  0.00    +0.169 HD
ENDROOT
BRANCH   5  13
ATOM     12  O   UNL     1      35.656 -18.187 -20.701  0.00  0.00    -0.349 OA
ATOM     13  C   UNL     1      35.236 -19.346 -21.449  0.00  0.00    +0.169 C 
ATOM     14  C   UNL     1      34.277 -18.833 -22.514  0.00  0.00    +0.169 C 
ATOM     15  C   UNL     1      34.849 -17.462 -22.821  0.00  0.00    +0.169 C 
ATOM     16  C   UNL     1      35.335 -16.995 -21.453  0.00  0.00    +0.174 C 
BRANCH  14  17
ATOM     17  O   UNL     1      34.242 -19.681 -23.644  0.00  0.00    -0.379 OA
ATOM     18  H   UNL     1      34.362 -19.154 -24.448  0.00  0.00    +0.211 HD
ENDBRANCH  14  17
BRANCH  15  19
ATOM     19  O   UNL     1      35.963 -17.563 -23.708  0.00  0.00    -0.379 OA
ATOM     20  H   UNL     1      36.274 -18.482 -23.734  0.00  0.00    +0.211 HD
ENDBRANCH  15  19
BRANCH  16  21
ATOM     21  C   UNL     1      34.277 -16.215 -20.684  0.00  0.00    +0.169 C 
BRANCH  21  22
ATOM     22  O   UNL     1      34.834 -14.979 -20.273  0.00  0.00    -0.379 OA
ATOM     23  H   UNL     1      34.624 -14.824 -19.339  0.00  0.00    +0.211 HD
ENDBRANCH  21  22
ENDBRANCH  16  21
ENDBRANCH   5  13
BRANCH   8  24
ATOM     24  N   UNL     1      33.198 -23.500 -17.261  0.00  0.00    -0.305 NA
ATOM     25  H   UNL     1      33.312 -24.477 -17.250  0.00  0.00    +0.120 HD
ATOM     26  H   UNL     1      32.385 -23.095 -16.878  0.00  0.00    +0.120 HD
ENDBRANCH   8  24
TORSDOF 6
ENDMDL
MODEL 8
REMARK VINA RESULT:      -7.9      3.329      6.408
REMARK  Name = 446658
REMARK  6 active torsions:
REMARK  status: ('A' for Active; 'I' for Inactive)
REMARK    1  A    between atoms: N_5  and  C_9
REMARK    2  A    between atoms: C_6  and  C_16
REMARK    3  A    between atoms: C_17  and  O_20
REMARK    4  A    between atoms: C_18  and  O_22
REMARK    5  A    between atoms: C_19  and  C_24
REMARK    6  A    between atoms: C_24  and  O_25
REMARK                            x       y       z     vdW  Elec       q    Type
REMARK                         _______ _______ _______ _____ _____    ______ ____
ROOT
ATOM      1  N   UNL     1      33.622 -23.389 -16.534  0.00  0.00    -0.251 N 
ATOM      2  N   UNL     1      34.892 -23.841 -16.540  0.00  0.00    -0.185 NA
ATOM      3  N   UNL     1      33.890 -24.056 -13.135  0.00  0.00    -0.254 NA
ATOM      4  N   UNL     1      36.182 -24.837 -13.366  0.00  0.00    -0.234 NA
ATOM      5  C   UNL     1      33.032 -23.384 -15.309  0.00  0.00    +0.157 C 
ATOM      6  C   UNL     1      33.987 -23.867 -14.467  0.00  0.00    +0.095 C 
ATOM      7  C   UNL     1      35.155 -24.151 -15.256  0.00  0.00    +0.120 C 
ATOM      8  C   UNL     1      36.324 -24.664 -14.690  0.00  0.00    +0.158 C 
ATOM      9  C   UNL     1      35.063 -24.554 -12.668  0.00  0.00    +0.202 C 
ATOM     10  C   UNL     1      37.316 -25.369 -12.605  0.00  0.00    +0.093 C 
ATOM     11  H   UNL     1      33.160 -23.087 -17.349  0.00  0.00    +0.169 HD
ENDROOT
BRANCH   5  13
ATOM     12  O   UNL     1      31.036 -23.645 -13.994  0.00  0.00    -0.349 OA
ATOM     13  C   UNL     1      31.614 -22.914 -15.095  0.00  0.00    +0.169 C 
ATOM     14  C   UNL     1      30.701 -23.162 -16.287  0.00  0.00    +0.169 C 
ATOM     15  C   UNL     1      29.341 -23.280 -15.627  0.00  0.00    +0.169 C 
ATOM     16  C   UNL     1      29.671 -23.994 -14.320  0.00  0.00    +0.174 C 
BRANCH  14  17
ATOM     17  O   UNL     1      30.767 -22.110 -17.229  0.00  0.00    -0.379 OA
ATOM     18  H   UNL     1      29.945 -21.596 -17.198  0.00  0.00    +0.211 HD
ENDBRANCH  14  17
BRANCH  15  19
ATOM     19  O   UNL     1      28.803 -21.990 -15.336  0.00  0.00    -0.379 OA
ATOM     20  H   UNL     1      29.497 -21.428 -14.957  0.00  0.00    +0.211 HD
ENDBRANCH  15  19
BRANCH  16  21
ATOM     21  C   UNL     1      29.580 -25.510 -14.434  0.00  0.00    +0.169 C 
BRANCH  21  22
ATOM     22  O   UNL     1      28.221 -25.893 -14.315  0.00  0.00    -0.379 OA
ATOM     23  H   UNL     1      27.899 -25.670 -13.428  0.00  0.00    +0.211 HD
ENDBRANCH  21  22
ENDBRANCH  16  21
ENDBRANCH   5  13
BRANCH   8  24
ATOM     24  N   UNL     1      37.500 -24.968 -15.386  0.00  0.00    -0.305 NA
ATOM     25  H   UNL     1      37.480 -25.071 -16.365  0.00  0.00    +0.120 HD
ATOM     26  H   UNL     1      38.347 -25.080 -14.896  0.00  0.00    +0.120 HD
ENDBRANCH   8  24
TORSDOF 6
ENDMDL
MODEL 9
REMARK VINA RESULT:      -7.9      3.288      5.881
REMARK  Name = 446658
REMARK  6 active torsions:
REMARK  status: ('A' for Active; 'I' for Inactive)
REMARK    1  A    between atoms: N_5  and  C_9
REMARK    2  A    between atoms: C_6  and  C_16
REMARK    3  A    between atoms: C_17  and  O_20
REMARK    4  A    between atoms: C_18  and  O_22
REMARK    5  A    between atoms: C_19  and  C_24
REMARK    6  A    between atoms: C_24  and  O_25
REMARK                            x       y       z     vdW  Elec       q    Type
REMARK                         _______ _______ _______ _____ _____    ______ ____
ROOT
ATOM      1  N   UNL     1      33.679 -24.649 -13.321  0.00  0.00    -0.251 N 
ATOM      2  N   UNL     1      34.941 -24.180 -13.368  0.00  0.00    -0.185 NA
ATOM      3  N   UNL     1      33.598 -23.433 -16.574  0.00  0.00    -0.254 NA
ATOM      4  N   UNL     1      35.899 -22.656 -16.448  0.00  0.00    -0.234 NA
ATOM      5  C   UNL     1      32.967 -24.467 -14.466  0.00  0.00    +0.157 C 
ATOM      6  C   UNL     1      33.830 -23.835 -15.308  0.00  0.00    +0.095 C 
ATOM      7  C   UNL     1      35.071 -23.660 -14.603  0.00  0.00    +0.120 C 
ATOM      8  C   UNL     1      36.176 -23.039 -15.191  0.00  0.00    +0.158 C 
ATOM      9  C   UNL     1      34.715 -22.843 -17.069  0.00  0.00    +0.202 C 
ATOM     10  C   UNL     1      36.949 -21.984 -17.222  0.00  0.00    +0.093 C 
ATOM     11  H   UNL     1      33.303 -25.089 -12.524  0.00  0.00    +0.169 HD
ENDROOT
BRANCH   5  13
ATOM     12  O   UNL     1      31.090 -24.654 -15.956  0.00  0.00    -0.349 OA
ATOM     13  C   UNL     1      31.536 -24.924 -14.611  0.00  0.00    +0.169 C 
ATOM     14  C   UNL     1      30.565 -24.195 -13.694  0.00  0.00    +0.169 C 
ATOM     15  C   UNL     1      29.265 -24.286 -14.470  0.00  0.00    +0.169 C 
ATOM     16  C   UNL     1      29.736 -24.150 -15.915  0.00  0.00    +0.174 C 
BRANCH  14  17
ATOM     17  O   UNL     1      30.489 -24.800 -12.419  0.00  0.00    -0.379 OA
ATOM     18  H   UNL     1      30.151 -24.159 -11.776  0.00  0.00    +0.211 HD
ENDBRANCH  14  17
BRANCH  15  19
ATOM     19  O   UNL     1      28.655 -25.564 -14.292  0.00  0.00    -0.379 OA
ATOM     20  H   UNL     1      28.961 -26.168 -14.987  0.00  0.00    +0.211 HD
ENDBRANCH  15  19
BRANCH  16  21
ATOM     21  C   UNL     1      29.749 -22.706 -16.400  0.00  0.00    +0.169 C 
BRANCH  21  22
ATOM     22  O   UNL     1      30.931 -22.490 -17.149  0.00  0.00    -0.379 OA
ATOM     23  H   UNL     1      31.043 -21.541 -17.311  0.00  0.00    +0.211 HD
ENDBRANCH  21  22
ENDBRANCH  16  21
ENDBRANCH   5  13
BRANCH   8  24
ATOM     24  N   UNL     1      37.415 -22.829 -14.576  0.00  0.00    -0.305 NA
ATOM     25  H   UNL     1      38.244 -23.090 -15.037  0.00  0.00    +0.120 HD
ATOM     26  H   UNL     1      37.457 -22.420 -13.681  0.00  0.00    +0.120 HD
ENDBRANCH   8  24
TORSDOF 6
ENDMDL
