MODEL 1
REMARK VINA RESULT:     -11.8      0.000      0.000
REMARK  Name = 44129603
REMARK  3 active torsions:
REMARK  status: ('A' for Active; 'I' for Inactive)
REMARK    1  A    between atoms: N_5  and  C_17
REMARK    2  A    between atoms: C_12  and  C_24
REMARK    3  A    between atoms: C_24  and  O_25
REMARK                            x       y       z     vdW  Elec       q    Type
REMARK                         _______ _______ _______ _____ _____    ______ ____
ROOT
ATOM      1  N   UNL     1      36.706 -22.884 -15.232  0.00  0.00    -0.246 N 
ATOM      2  N   UNL     1      37.678 -22.982 -14.302  0.00  0.00    -0.163 NA
ATOM      3  N   UNL     1      34.118 -22.767 -16.679  0.00  0.00    -0.336 NA
ATOM      4  N   UNL     1      31.804 -23.458 -16.716  0.00  0.00    -0.170 NA
ATOM      5  N   UNL     1      32.738 -22.257 -18.504  0.00  0.00    -0.247 N 
ATOM      6  C   UNL     1      34.536 -24.123 -12.621  0.00  0.00    +0.035 C 
ATOM      7  C   UNL     1      35.667 -23.660 -13.468  0.00  0.00    +0.024 A 
ATOM      8  C   UNL     1      33.380 -24.699 -13.485  0.00  0.00    +0.035 C 
ATOM      9  C   UNL     1      35.487 -23.285 -14.781  0.00  0.00    +0.106 A 
ATOM     10  C   UNL     1      33.171 -23.994 -14.809  0.00  0.00    +0.030 C 
ATOM     11  C   UNL     1      34.219 -23.348 -15.469  0.00  0.00    +0.158 C 
ATOM     12  C   UNL     1      37.035 -23.452 -13.225  0.00  0.00    +0.174 A 
ATOM     13  C   UNL     1      31.976 -24.025 -15.501  0.00  0.00    +0.110 C 
ATOM     14  C   UNL     1      37.050 -22.366 -16.536  0.00  0.00    +0.154 C 
ATOM     15  C   UNL     1      32.895 -22.858 -17.236  0.00  0.00    +0.149 C 
ATOM     16  H   UNL     1      31.829 -22.345 -18.874  0.00  0.00    +0.165 HD
ENDROOT
BRANCH   5  17
ATOM     17  C   UNL     1      33.623 -21.558 -19.344  0.00  0.00    +0.058 C 
ATOM     18  C   UNL     1      33.161 -20.486 -20.107  0.00  0.00    +0.015 C 
ATOM     19  C   UNL     1      34.964 -21.936 -19.411  0.00  0.00    +0.015 C 
ATOM     20  C   UNL     1      34.040 -19.791 -20.939  0.00  0.00    +0.001 C 
ATOM     21  C   UNL     1      35.843 -21.241 -20.243  0.00  0.00    +0.001 C 
ATOM     22  C   UNL     1      35.381 -20.169 -21.007  0.00  0.00    +0.000 C 
ENDBRANCH   5  17
BRANCH  12  24
ATOM     23  O   UNL     1      37.733 -24.735 -11.331  0.00  0.00    -0.243 OA
ATOM     24  C   UNL     1      37.762 -23.692 -12.011  0.00  0.00    +0.357 C 
BRANCH  24  25
ATOM     25  O   UNL     1      38.537 -22.630 -11.628  0.00  0.00    -0.476 OA
ATOM     26  H   UNL     1      39.458 -22.746 -11.496  0.00  0.00    +0.295 HD
ENDBRANCH  24  25
ENDBRANCH  12  24
TORSDOF 3
ENDMDL
MODEL 2
REMARK VINA RESULT:     -10.9      7.412     10.910
REMARK  Name = 44129603
REMARK  3 active torsions:
REMARK  status: ('A' for Active; 'I' for Inactive)
REMARK    1  A    between atoms: N_5  and  C_17
REMARK    2  A    between atoms: C_12  and  C_24
REMARK    3  A    between atoms: C_24  and  O_25
REMARK                            x       y       z     vdW  Elec       q    Type
REMARK                         _______ _______ _______ _____ _____    ______ ____
ROOT
ATOM      1  N   UNL     1      34.795 -16.153 -21.100  0.00  0.00    -0.246 N 
ATOM      2  N   UNL     1      35.370 -17.177 -20.436  0.00  0.00    -0.163 NA
ATOM      3  N   UNL     1      33.403 -14.435 -23.079  0.00  0.00    -0.336 NA
ATOM      4  N   UNL     1      32.867 -14.081 -25.407  0.00  0.00    -0.170 NA
ATOM      5  N   UNL     1      32.256 -12.511 -23.772  0.00  0.00    -0.247 N 
ATOM      6  C   UNL     1      34.844 -18.393 -23.935  0.00  0.00    +0.035 C 
ATOM      7  C   UNL     1      34.985 -17.720 -22.616  0.00  0.00    +0.024 A 
ATOM      8  C   UNL     1      34.766 -17.361 -25.093  0.00  0.00    +0.035 C 
ATOM      9  C   UNL     1      34.553 -16.430 -22.409  0.00  0.00    +0.106 A 
ATOM     10  C   UNL     1      34.032 -16.082 -24.750  0.00  0.00    +0.030 C 
ATOM     11  C   UNL     1      33.974 -15.599 -23.440  0.00  0.00    +0.158 C 
ATOM     12  C   UNL     1      35.480 -18.133 -21.368  0.00  0.00    +0.174 A 
ATOM     13  C   UNL     1      33.462 -15.258 -25.701  0.00  0.00    +0.110 C 
ATOM     14  C   UNL     1      34.495 -14.941 -20.372  0.00  0.00    +0.154 C 
ATOM     15  C   UNL     1      32.874 -13.737 -24.102  0.00  0.00    +0.149 C 
ATOM     16  H   UNL     1      31.881 -12.036 -24.548  0.00  0.00    +0.165 HD
ENDROOT
BRANCH   5  17
ATOM     17  C   UNL     1      32.070 -11.836 -22.552  0.00  0.00    +0.058 C 
ATOM     18  C   UNL     1      32.107 -10.443 -22.513  0.00  0.00    +0.015 C 
ATOM     19  C   UNL     1      31.847 -12.562 -21.381  0.00  0.00    +0.015 C 
ATOM     20  C   UNL     1      31.922  -9.774 -21.302  0.00  0.00    +0.001 C 
ATOM     21  C   UNL     1      31.661 -11.892 -20.171  0.00  0.00    +0.001 C 
ATOM     22  C   UNL     1      31.699 -10.499 -20.132  0.00  0.00    +0.000 C 
ENDBRANCH   5  17
BRANCH  12  24
ATOM     23  O   UNL     1      35.446 -20.468 -20.852  0.00  0.00    -0.243 OA
ATOM     24  C   UNL     1      36.062 -19.398 -21.024  0.00  0.00    +0.357 C 
BRANCH  24  25
ATOM     25  O   UNL     1      37.423 -19.347 -20.889  0.00  0.00    -0.476 OA
ATOM     26  H   UNL     1      37.953 -19.045 -21.601  0.00  0.00    +0.295 HD
ENDBRANCH  24  25
ENDBRANCH  12  24
TORSDOF 3
ENDMDL
MODEL 3
REMARK VINA RESULT:     -10.0     11.338     14.161
REMARK  Name = 44129603
REMARK  3 active torsions:
REMARK  status: ('A' for Active; 'I' for Inactive)
REMARK    1  A    between atoms: N_5  and  C_17
REMARK    2  A    between atoms: C_12  and  C_24
REMARK    3  A    between atoms: C_24  and  O_25
REMARK                            x       y       z     vdW  Elec       q    Type
REMARK                         _______ _______ _______ _____ _____    ______ ____
ROOT
ATOM      1  N   UNL     1      33.578 -12.718 -24.732  0.00  0.00    -0.246 N 
ATOM      2  N   UNL     1      34.021 -13.814 -25.381  0.00  0.00    -0.163 NA
ATOM      3  N   UNL     1      32.659 -10.759 -22.701  0.00  0.00    -0.336 NA
ATOM      4  N   UNL     1      31.595 -10.437 -20.556  0.00  0.00    -0.170 NA
ATOM      5  N   UNL     1      32.175  -8.607 -21.907  0.00  0.00    -0.247 N 
ATOM      6  C   UNL     1      33.048 -14.975 -21.959  0.00  0.00    +0.035 C 
ATOM      7  C   UNL     1      33.354 -14.324 -23.261  0.00  0.00    +0.024 A 
ATOM      8  C   UNL     1      31.986 -14.172 -21.160  0.00  0.00    +0.035 C 
ATOM      9  C   UNL     1      33.162 -12.976 -23.462  0.00  0.00    +0.106 A 
ATOM     10  C   UNL     1      32.083 -12.669 -21.315  0.00  0.00    +0.030 C 
ATOM     11  C   UNL     1      32.611 -12.083 -22.468  0.00  0.00    +0.158 C 
ATOM     12  C   UNL     1      33.885 -14.791 -24.475  0.00  0.00    +0.174 A 
ATOM     13  C   UNL     1      31.574 -11.778 -20.390  0.00  0.00    +0.110 C 
ATOM     14  C   UNL     1      33.615 -11.447 -25.419  0.00  0.00    +0.154 C 
ATOM     15  C   UNL     1      32.141 -10.005 -21.712  0.00  0.00    +0.149 C 
ATOM     16  H   UNL     1      31.788  -8.094 -21.160  0.00  0.00    +0.165 HD
ENDROOT
BRANCH   5  17
ATOM     17  C   UNL     1      32.653  -7.802 -22.957  0.00  0.00    +0.058 C 
ATOM     18  C   UNL     1      31.763  -7.040 -23.712  0.00  0.00    +0.015 C 
ATOM     19  C   UNL     1      34.018  -7.766 -23.241  0.00  0.00    +0.015 C 
ATOM     20  C   UNL     1      32.238  -6.241 -24.754  0.00  0.00    +0.001 C 
ATOM     21  C   UNL     1      34.493  -6.967 -24.282  0.00  0.00    +0.001 C 
ATOM     22  C   UNL     1      33.603  -6.205 -25.038  0.00  0.00    +0.000 C 
ENDBRANCH   5  17
BRANCH  12  24
ATOM     23  O   UNL     1      33.719 -16.854 -25.674  0.00  0.00    -0.243 OA
ATOM     24  C   UNL     1      34.262 -16.133 -24.815  0.00  0.00    +0.357 C 
BRANCH  24  25
ATOM     25  O   UNL     1      35.325 -16.596 -24.086  0.00  0.00    -0.476 OA
ATOM     26  H   UNL     1      35.609 -17.484 -24.184  0.00  0.00    +0.295 HD
ENDBRANCH  24  25
ENDBRANCH  12  24
TORSDOF 3
ENDMDL
MODEL 4
REMARK VINA RESULT:      -9.9      8.061     11.681
REMARK  Name = 44129603
REMARK  3 active torsions:
REMARK  status: ('A' for Active; 'I' for Inactive)
REMARK    1  A    between atoms: N_5  and  C_17
REMARK    2  A    between atoms: C_12  and  C_24
REMARK    3  A    between atoms: C_24  and  O_25
REMARK                            x       y       z     vdW  Elec       q    Type
REMARK                         _______ _______ _______ _____ _____    ______ ____
ROOT
ATOM      1  N   UNL     1      32.810 -14.538 -21.352  0.00  0.00    -0.246 N 
ATOM      2  N   UNL     1      32.266 -13.448 -20.774  0.00  0.00    -0.163 NA
ATOM      3  N   UNL     1      34.150 -16.451 -23.183  0.00  0.00    -0.336 NA
ATOM      4  N   UNL     1      34.675 -17.006 -25.474  0.00  0.00    -0.170 NA
ATOM      5  N   UNL     1      35.237 -18.458 -23.717  0.00  0.00    -0.247 N 
ATOM      6  C   UNL     1      32.832 -12.531 -24.357  0.00  0.00    +0.035 C 
ATOM      7  C   UNL     1      32.669 -13.092 -22.989  0.00  0.00    +0.024 A 
ATOM      8  C   UNL     1      32.878 -13.655 -25.429  0.00  0.00    +0.035 C 
ATOM      9  C   UNL     1      33.062 -14.375 -22.679  0.00  0.00    +0.106 A 
ATOM     10  C   UNL     1      33.573 -14.924 -24.982  0.00  0.00    +0.030 C 
ATOM     11  C   UNL     1      33.615 -15.303 -23.638  0.00  0.00    +0.158 C 
ATOM     12  C   UNL     1      32.187 -12.566 -21.779  0.00  0.00    +0.174 A 
ATOM     13  C   UNL     1      34.117 -15.838 -25.862  0.00  0.00    +0.110 C 
ATOM     14  C   UNL     1      33.072 -15.696 -20.529  0.00  0.00    +0.154 C 
ATOM     15  C   UNL     1      34.657 -17.244 -24.145  0.00  0.00    +0.149 C 
ATOM     16  H   UNL     1      35.597 -19.006 -24.451  0.00  0.00    +0.165 HD
ENDROOT
BRANCH   5  17
ATOM     17  C   UNL     1      35.401 -19.039 -22.446  0.00  0.00    +0.058 C 
ATOM     18  C   UNL     1      34.336 -19.702 -21.839  0.00  0.00    +0.015 C 
ATOM     19  C   UNL     1      36.632 -18.951 -21.794  0.00  0.00    +0.015 C 
ATOM     20  C   UNL     1      34.499 -20.279 -20.579  0.00  0.00    +0.001 C 
ATOM     21  C   UNL     1      36.795 -19.529 -20.534  0.00  0.00    +0.001 C 
ATOM     22  C   UNL     1      35.730 -20.192 -19.927  0.00  0.00    +0.000 C 
ENDBRANCH   5  17
BRANCH  12  24
ATOM     23  O   UNL     1      32.182 -10.175 -21.835  0.00  0.00    -0.243 OA
ATOM     24  C   UNL     1      31.645 -11.260 -21.539  0.00  0.00    +0.357 C 
BRANCH  24  25
ATOM     25  O   UNL     1      30.421 -11.288 -20.925  0.00  0.00    -0.476 OA
ATOM     26  H   UNL     1      29.701 -10.813 -21.293  0.00  0.00    +0.295 HD
ENDBRANCH  24  25
ENDBRANCH  12  24
TORSDOF 3
ENDMDL
MODEL 5
REMARK VINA RESULT:      -9.8      1.919      4.508
REMARK  Name = 44129603
REMARK  3 active torsions:
REMARK  status: ('A' for Active; 'I' for Inactive)
REMARK    1  A    between atoms: N_5  and  C_17
REMARK    2  A    between atoms: C_12  and  C_24
REMARK    3  A    between atoms: C_24  and  O_25
REMARK                            x       y       z     vdW  Elec       q    Type
REMARK                         _______ _______ _______ _____ _____    ______ ____
ROOT
ATOM      1  N   UNL     1      34.813 -23.845 -13.358  0.00  0.00    -0.246 N 
ATOM      2  N   UNL     1      35.675 -24.142 -12.365  0.00  0.00    -0.163 NA
ATOM      3  N   UNL     1      33.535 -23.263 -15.972  0.00  0.00    -0.336 NA
ATOM      4  N   UNL     1      33.840 -22.416 -18.214  0.00  0.00    -0.170 NA
ATOM      5  N   UNL     1      31.713 -23.021 -17.427  0.00  0.00    -0.247 N 
ATOM      6  C   UNL     1      37.788 -23.378 -15.357  0.00  0.00    +0.035 C 
ATOM      7  C   UNL     1      36.782 -23.622 -14.289  0.00  0.00    +0.024 A 
ATOM      8  C   UNL     1      37.220 -22.456 -16.470  0.00  0.00    +0.035 C 
ATOM      9  C   UNL     1      35.430 -23.521 -14.527  0.00  0.00    +0.106 A 
ATOM     10  C   UNL     1      35.750 -22.659 -16.768  0.00  0.00    +0.030 C 
ATOM     11  C   UNL     1      34.863 -23.130 -15.797  0.00  0.00    +0.158 C 
ATOM     12  C   UNL     1      36.877 -24.008 -12.941  0.00  0.00    +0.174 A 
ATOM     13  C   UNL     1      35.164 -22.303 -17.967  0.00  0.00    +0.110 C 
ATOM     14  C   UNL     1      33.396 -23.924 -13.088  0.00  0.00    +0.154 C 
ATOM     15  C   UNL     1      33.099 -22.893 -17.192  0.00  0.00    +0.149 C 
ATOM     16  H   UNL     1      31.437 -22.742 -18.331  0.00  0.00    +0.165 HD
ENDROOT
BRANCH   5  17
ATOM     17  C   UNL     1      30.647 -23.469 -16.625  0.00  0.00    +0.058 C 
ATOM     18  C   UNL     1      29.449 -22.757 -16.596  0.00  0.00    +0.015 C 
ATOM     19  C   UNL     1      30.791 -24.627 -15.860  0.00  0.00    +0.015 C 
ATOM     20  C   UNL     1      28.392 -23.203 -15.801  0.00  0.00    +0.001 C 
ATOM     21  C   UNL     1      29.733 -25.072 -15.065  0.00  0.00    +0.001 C 
ATOM     22  C   UNL     1      28.535 -24.360 -15.036  0.00  0.00    +0.000 C 
ENDBRANCH   5  17
BRANCH  12  24
ATOM     23  O   UNL     1      38.824 -23.377 -11.705  0.00  0.00    -0.243 OA
ATOM     24  C   UNL     1      38.065 -24.247 -12.173  0.00  0.00    +0.357 C 
BRANCH  24  25
ATOM     25  O   UNL     1      38.323 -25.578 -11.978  0.00  0.00    -0.476 OA
ATOM     26  H   UNL     1      38.567 -26.119 -12.704  0.00  0.00    +0.295 HD
ENDBRANCH  24  25
ENDBRANCH  12  24
TORSDOF 3
ENDMDL
MODEL 6
REMARK VINA RESULT:      -9.5      3.265      6.181
REMARK  Name = 44129603
REMARK  3 active torsions:
REMARK  status: ('A' for Active; 'I' for Inactive)
REMARK    1  A    between atoms: N_5  and  C_17
REMARK    2  A    between atoms: C_12  and  C_24
REMARK    3  A    between atoms: C_24  and  O_25
REMARK                            x       y       z     vdW  Elec       q    Type
REMARK                         _______ _______ _______ _____ _____    ______ ____
ROOT
ATOM      1  N   UNL     1      34.206 -22.392 -18.124  0.00  0.00    -0.246 N 
ATOM      2  N   UNL     1      34.714 -21.820 -19.234  0.00  0.00    -0.163 NA
ATOM      3  N   UNL     1      33.720 -23.377 -15.367  0.00  0.00    -0.336 NA
ATOM      4  N   UNL     1      34.713 -24.081 -13.281  0.00  0.00    -0.170 NA
ATOM      5  N   UNL     1      32.395 -24.219 -13.626  0.00  0.00    -0.247 N 
ATOM      6  C   UNL     1      37.497 -21.844 -16.733  0.00  0.00    +0.035 C 
ATOM      7  C   UNL     1      36.280 -21.947 -17.583  0.00  0.00    +0.024 A 
ATOM      8  C   UNL     1      37.489 -22.907 -15.600  0.00  0.00    +0.035 C 
ATOM      9  C   UNL     1      35.109 -22.495 -17.111  0.00  0.00    +0.106 A 
ATOM     10  C   UNL     1      36.120 -23.209 -15.028  0.00  0.00    +0.030 C 
ATOM     11  C   UNL     1      34.958 -23.058 -15.789  0.00  0.00    +0.158 C 
ATOM     12  C   UNL     1      35.980 -21.547 -18.895  0.00  0.00    +0.174 A 
ATOM     13  C   UNL     1      35.927 -23.744 -13.770  0.00  0.00    +0.110 C 
ATOM     14  C   UNL     1      32.817 -22.790 -18.126  0.00  0.00    +0.154 C 
ATOM     15  C   UNL     1      33.673 -23.876 -14.117  0.00  0.00    +0.149 C 
ATOM     16  H   UNL     1      32.406 -24.578 -12.709  0.00  0.00    +0.165 HD
ENDROOT
BRANCH   5  17
ATOM     17  C   UNL     1      31.108 -24.150 -14.189  0.00  0.00    +0.058 C 
ATOM     18  C   UNL     1      30.585 -22.920 -14.584  0.00  0.00    +0.015 C 
ATOM     19  C   UNL     1      30.356 -25.313 -14.353  0.00  0.00    +0.015 C 
ATOM     20  C   UNL     1      29.308 -22.851 -15.144  0.00  0.00    +0.001 C 
ATOM     21  C   UNL     1      29.079 -25.245 -14.913  0.00  0.00    +0.001 C 
ATOM     22  C   UNL     1      28.556 -24.015 -15.308  0.00  0.00    +0.000 C 
ENDBRANCH   5  17
BRANCH  12  24
ATOM     23  O   UNL     1      37.679 -21.501 -20.579  0.00  0.00    -0.243 OA
ATOM     24  C   UNL     1      36.853 -20.921 -19.848  0.00  0.00    +0.357 C 
BRANCH  24  25
ATOM     25  O   UNL     1      36.706 -19.561 -19.903  0.00  0.00    -0.476 OA
ATOM     26  H   UNL     1      36.084 -19.134 -19.346  0.00  0.00    +0.295 HD
ENDBRANCH  24  25
ENDBRANCH  12  24
TORSDOF 3
ENDMDL
MODEL 7
REMARK VINA RESULT:      -9.3      3.566      6.682
REMARK  Name = 44129603
REMARK  3 active torsions:
REMARK  status: ('A' for Active; 'I' for Inactive)
REMARK    1  A    between atoms: N_5  and  C_17
REMARK    2  A    between atoms: C_12  and  C_24
REMARK    3  A    between atoms: C_24  and  O_25
REMARK                            x       y       z     vdW  Elec       q    Type
REMARK                         _______ _______ _______ _____ _____    ______ ____
ROOT
ATOM      1  N   UNL     1      36.524 -21.708 -17.952  0.00  0.00    -0.246 N 
ATOM      2  N   UNL     1      36.891 -20.925 -18.987  0.00  0.00    -0.163 NA
ATOM      3  N   UNL     1      35.104 -23.544 -16.103  0.00  0.00    -0.336 NA
ATOM      4  N   UNL     1      32.967 -24.393 -15.362  0.00  0.00    -0.170 NA
ATOM      5  N   UNL     1      34.957 -25.014 -14.283  0.00  0.00    -0.247 N 
ATOM      6  C   UNL     1      33.267 -21.690 -19.519  0.00  0.00    +0.035 C 
ATOM      7  C   UNL     1      34.685 -21.487 -19.120  0.00  0.00    +0.024 A 
ATOM      8  C   UNL     1      32.379 -22.043 -18.294  0.00  0.00    +0.035 C 
ATOM      9  C   UNL     1      35.211 -22.063 -17.986  0.00  0.00    +0.106 A 
ATOM     10  C   UNL     1      33.060 -22.898 -17.247  0.00  0.00    +0.030 C 
ATOM     11  C   UNL     1      34.444 -22.866 -17.061  0.00  0.00    +0.158 C 
ATOM     12  C   UNL     1      35.764 -20.798 -19.699  0.00  0.00    +0.174 A 
ATOM     13  C   UNL     1      32.369 -23.682 -16.344  0.00  0.00    +0.110 C 
ATOM     14  C   UNL     1      37.526 -22.082 -16.981  0.00  0.00    +0.154 C 
ATOM     15  C   UNL     1      34.311 -24.279 -15.301  0.00  0.00    +0.149 C 
ATOM     16  H   UNL     1      34.341 -25.539 -13.722  0.00  0.00    +0.165 HD
ENDROOT
BRANCH   5  17
ATOM     17  C   UNL     1      36.308 -25.145 -13.914  0.00  0.00    +0.058 C 
ATOM     18  C   UNL     1      36.788 -24.494 -12.778  0.00  0.00    +0.015 C 
ATOM     19  C   UNL     1      37.168 -25.928 -14.684  0.00  0.00    +0.015 C 
ATOM     20  C   UNL     1      38.128 -24.625 -12.412  0.00  0.00    +0.001 C 
ATOM     21  C   UNL     1      38.508 -26.059 -14.318  0.00  0.00    +0.001 C 
ATOM     22  C   UNL     1      38.988 -25.407 -13.182  0.00  0.00    +0.000 C 
ENDBRANCH   5  17
BRANCH  12  24
ATOM     23  O   UNL     1      34.929 -20.076 -21.821  0.00  0.00    -0.243 OA
ATOM     24  C   UNL     1      35.766 -20.013 -20.901  0.00  0.00    +0.357 C 
BRANCH  24  25
ATOM     25  O   UNL     1      36.815 -19.136 -20.970  0.00  0.00    -0.476 OA
ATOM     26  H   UNL     1      37.590 -19.369 -21.445  0.00  0.00    +0.295 HD
ENDBRANCH  24  25
ENDBRANCH  12  24
TORSDOF 3
ENDMDL
MODEL 8
REMARK VINA RESULT:      -9.0      3.443      6.960
REMARK  Name = 44129603
REMARK  3 active torsions:
REMARK  status: ('A' for Active; 'I' for Inactive)
REMARK    1  A    between atoms: N_5  and  C_17
REMARK    2  A    between atoms: C_12  and  C_24
REMARK    3  A    between atoms: C_24  and  O_25
REMARK                            x       y       z     vdW  Elec       q    Type
REMARK                         _______ _______ _______ _____ _____    ______ ____
ROOT
ATOM      1  N   UNL     1      32.548 -23.908 -15.323  0.00  0.00    -0.246 N 
ATOM      2  N   UNL     1      31.203 -23.965 -15.242  0.00  0.00    -0.163 NA
ATOM      3  N   UNL     1      35.357 -23.229 -15.998  0.00  0.00    -0.336 NA
ATOM      4  N   UNL     1      36.865 -22.337 -17.661  0.00  0.00    -0.170 NA
ATOM      5  N   UNL     1      37.675 -23.230 -15.646  0.00  0.00    -0.247 N 
ATOM      6  C   UNL     1      31.955 -21.852 -18.237  0.00  0.00    +0.035 C 
ATOM      7  C   UNL     1      31.867 -22.726 -17.036  0.00  0.00    +0.024 A 
ATOM      8  C   UNL     1      33.309 -22.039 -18.975  0.00  0.00    +0.035 C 
ATOM      9  C   UNL     1      32.991 -23.182 -16.385  0.00  0.00    +0.106 A 
ATOM     10  C   UNL     1      34.493 -22.295 -18.068  0.00  0.00    +0.030 C 
ATOM     11  C   UNL     1      34.341 -22.906 -16.820  0.00  0.00    +0.158 C 
ATOM     12  C   UNL     1      30.794 -23.238 -16.289  0.00  0.00    +0.174 A 
ATOM     13  C   UNL     1      35.799 -22.045 -18.439  0.00  0.00    +0.110 C 
ATOM     14  C   UNL     1      33.330 -24.573 -14.307  0.00  0.00    +0.154 C 
ATOM     15  C   UNL     1      36.577 -22.917 -16.476  0.00  0.00    +0.149 C 
ATOM     16  H   UNL     1      38.546 -22.984 -16.033  0.00  0.00    +0.165 HD
ENDROOT
BRANCH   5  17
ATOM     17  C   UNL     1      37.769 -23.823 -14.374  0.00  0.00    +0.058 C 
ATOM     18  C   UNL     1      37.309 -23.140 -13.250  0.00  0.00    +0.015 C 
ATOM     19  C   UNL     1      38.323 -25.097 -14.239  0.00  0.00    +0.015 C 
ATOM     20  C   UNL     1      37.402 -23.729 -11.988  0.00  0.00    +0.001 C 
ATOM     21  C   UNL     1      38.416 -25.686 -12.978  0.00  0.00    +0.001 C 
ATOM     22  C   UNL     1      37.956 -25.002 -11.853  0.00  0.00    +0.000 C 
ENDBRANCH   5  17
BRANCH  12  24
ATOM     23  O   UNL     1      28.772 -23.441 -17.551  0.00  0.00    -0.243 OA
ATOM     24  C   UNL     1      29.390 -23.071 -16.534  0.00  0.00    +0.357 C 
BRANCH  24  25
ATOM     25  O   UNL     1      28.734 -22.440 -15.510  0.00  0.00    -0.476 OA
ATOM     26  H   UNL     1      27.958 -21.945 -15.686  0.00  0.00    +0.295 HD
ENDBRANCH  24  25
ENDBRANCH  12  24
TORSDOF 3
ENDMDL
