MODEL 1
REMARK VINA RESULT:      -9.7      0.000      0.000
REMARK  Name = 448934
REMARK  5 active torsions:
REMARK  status: ('A' for Active; 'I' for Inactive)
REMARK    1  A    between atoms: C_1  and  N_4
REMARK    2  A    between atoms: C_1  and  C_17
REMARK    3  A    between atoms: C_1  and  C_20
REMARK    4  A    between atoms: C_10  and  S_13
REMARK    5  A    between atoms: C_20  and  C_26
REMARK                            x       y       z     vdW  Elec       q    Type
REMARK                         _______ _______ _______ _____ _____    ______ ____
ROOT
ATOM      1  C   UNL     1      33.695 -24.309 -14.947  0.00  0.00    +0.154 C 
ENDROOT
BRANCH   1   4
ATOM      2  S   UNL     1      33.268 -20.737 -20.100  0.00  0.00    -0.024 S 
ATOM      3  O   UNL     1      35.505 -23.199 -16.860  0.00  0.00    -0.252 OA
ATOM      4  N   UNL     1      33.349 -23.492 -16.082  0.00  0.00    -0.282 N 
ATOM      5  N   UNL     1      33.673 -22.233 -17.974  0.00  0.00    -0.247 N 
ATOM      6  N   UNL     1      35.568 -21.536 -19.302  0.00  0.00    -0.125 NA
ATOM      7  N   UNL     1      35.808 -20.786 -20.440  0.00  0.00    -0.133 NA
ATOM      8  C   UNL     1      34.301 -22.985 -16.978  0.00  0.00    +0.306 C 
ATOM      9  C   UNL     1      34.298 -21.576 -19.035  0.00  0.00    +0.190 A 
ATOM     10  C   UNL     1      34.694 -20.312 -20.956  0.00  0.00    +0.157 A 
ATOM     11  H   UNL     1      32.401 -23.282 -16.237  0.00  0.00    +0.151 HD
ATOM     12  H   UNL     1      32.692 -22.159 -17.923  0.00  0.00    +0.158 HD
BRANCH  10  13
ATOM     13  S   UNL     1      34.686 -19.328 -22.397  0.00  0.00    -0.114 S 
ATOM     14  H   UNL     1      35.576 -18.310 -22.257  0.00  0.00    +0.109 HD
ENDBRANCH  10  13
ENDBRANCH   1   4
BRANCH   1  17
ATOM     15  O   UNL     1      32.334 -25.130 -13.117  0.00  0.00    -0.273 OA
ATOM     16  N   UNL     1      31.297 -24.540 -15.109  0.00  0.00    -0.301 N 
ATOM     17  C   UNL     1      32.392 -24.724 -14.276  0.00  0.00    +0.241 C 
ATOM     18  C   UNL     1      29.936 -24.809 -14.702  0.00  0.00    +0.111 C 
ATOM     19  H   UNL     1      31.454 -24.209 -16.022  0.00  0.00    +0.150 HD
ENDBRANCH   1  17
BRANCH   1  20
ATOM     20  C   UNL     1      34.594 -23.566 -13.952  0.00  0.00    +0.060 C 
BRANCH  20  26
ATOM     21  F   UNL     1      35.346 -25.901 -15.347  0.00  0.00    -0.202 F 
ATOM     22  F   UNL     1      36.524 -22.628 -12.116  0.00  0.00    -0.202 F 
ATOM     23  F   UNL     1      38.915 -23.880 -11.728  0.00  0.00    -0.199 F 
ATOM     24  F   UNL     1      37.741 -27.142 -14.954  0.00  0.00    -0.199 F 
ATOM     25  F   UNL     1      39.528 -26.136 -13.145  0.00  0.00    -0.199 F 
ATOM     26  C   UNL     1      35.919 -24.256 -13.733  0.00  0.00    +0.039 A 
ATOM     27  C   UNL     1      36.216 -25.399 -14.458  0.00  0.00    +0.168 A 
ATOM     28  C   UNL     1      36.815 -23.735 -12.814  0.00  0.00    +0.168 A 
ATOM     29  C   UNL     1      38.040 -24.372 -12.614  0.00  0.00    +0.197 A 
ATOM     30  C   UNL     1      37.441 -26.037 -14.259  0.00  0.00    +0.197 A 
ATOM     31  C   UNL     1      38.352 -25.524 -13.337  0.00  0.00    +0.199 A 
ENDBRANCH  20  26
ENDBRANCH   1  20
TORSDOF 5
ENDMDL
MODEL 2
REMARK VINA RESULT:      -9.7     10.134     13.850
REMARK  Name = 448934
REMARK  5 active torsions:
REMARK  status: ('A' for Active; 'I' for Inactive)
REMARK    1  A    between atoms: C_1  and  N_4
REMARK    2  A    between atoms: C_1  and  C_17
REMARK    3  A    between atoms: C_1  and  C_20
REMARK    4  A    between atoms: C_10  and  S_13
REMARK    5  A    between atoms: C_20  and  C_26
REMARK                            x       y       z     vdW  Elec       q    Type
REMARK                         _______ _______ _______ _____ _____    ______ ____
ROOT
ATOM      1  C   UNL     1      32.848 -13.664 -22.376  0.00  0.00    +0.154 C 
ENDROOT
BRANCH   1   4
ATOM      2  S   UNL     1      33.807 -19.709 -20.946  0.00  0.00    -0.024 S 
ATOM      3  O   UNL     1      35.039 -15.263 -21.476  0.00  0.00    -0.252 OA
ATOM      4  N   UNL     1      32.825 -15.080 -22.109  0.00  0.00    -0.282 N 
ATOM      5  N   UNL     1      33.625 -17.142 -21.495  0.00  0.00    -0.247 N 
ATOM      6  N   UNL     1      35.741 -18.039 -20.748  0.00  0.00    -0.125 NA
ATOM      7  N   UNL     1      36.264 -19.263 -20.369  0.00  0.00    -0.133 NA
ATOM      8  C   UNL     1      33.948 -15.794 -21.668  0.00  0.00    +0.306 C 
ATOM      9  C   UNL     1      34.488 -18.152 -21.066  0.00  0.00    +0.190 A 
ATOM     10  C   UNL     1      35.361 -20.219 -20.426  0.00  0.00    +0.157 A 
ATOM     11  H   UNL     1      31.981 -15.569 -22.242  0.00  0.00    +0.151 HD
ATOM     12  H   UNL     1      32.697 -17.406 -21.695  0.00  0.00    +0.158 HD
BRANCH  10  13
ATOM     13  S   UNL     1      35.732 -21.871 -20.003  0.00  0.00    -0.114 S 
ATOM     14  H   UNL     1      35.427 -22.084 -18.695  0.00  0.00    +0.109 HD
ENDBRANCH  10  13
ENDBRANCH   1   4
BRANCH   1  17
ATOM     15  O   UNL     1      32.419 -13.250 -20.026  0.00  0.00    -0.273 OA
ATOM     16  N   UNL     1      31.298 -11.975 -21.612  0.00  0.00    -0.301 N 
ATOM     17  C   UNL     1      32.172 -12.972 -21.198  0.00  0.00    +0.241 C 
ATOM     18  C   UNL     1      30.565 -11.132 -20.696  0.00  0.00    +0.111 C 
ATOM     19  H   UNL     1      31.173 -11.835 -22.578  0.00  0.00    +0.150 HD
ENDBRANCH   1  17
BRANCH   1  20
ATOM     20  C   UNL     1      32.132 -13.310 -23.684  0.00  0.00    +0.060 C 
BRANCH  20  26
ATOM     21  F   UNL     1      32.550 -14.514 -26.202  0.00  0.00    -0.202 F 
ATOM     22  F   UNL     1      33.599 -10.933 -23.267  0.00  0.00    -0.202 F 
ATOM     23  F   UNL     1      35.278  -9.893 -25.146  0.00  0.00    -0.199 F 
ATOM     24  F   UNL     1      34.229 -13.463 -28.074  0.00  0.00    -0.199 F 
ATOM     25  F   UNL     1      35.595 -11.154 -27.551  0.00  0.00    -0.199 F 
ATOM     26  C   UNL     1      33.063 -12.731 -24.721  0.00  0.00    +0.039 A 
ATOM     27  C   UNL     1      33.215 -13.381 -25.936  0.00  0.00    +0.168 A 
ATOM     28  C   UNL     1      33.749 -11.559 -24.443  0.00  0.00    +0.168 A 
ATOM     29  C   UNL     1      34.608 -11.024 -25.403  0.00  0.00    +0.197 A 
ATOM     30  C   UNL     1      34.074 -12.846 -26.896  0.00  0.00    +0.197 A 
ATOM     31  C   UNL     1      34.770 -11.668 -26.629  0.00  0.00    +0.199 A 
ENDBRANCH  20  26
ENDBRANCH   1  20
TORSDOF 5
ENDMDL
MODEL 3
REMARK VINA RESULT:      -9.7     10.135     13.999
REMARK  Name = 448934
REMARK  5 active torsions:
REMARK  status: ('A' for Active; 'I' for Inactive)
REMARK    1  A    between atoms: C_1  and  N_4
REMARK    2  A    between atoms: C_1  and  C_17
REMARK    3  A    between atoms: C_1  and  C_20
REMARK    4  A    between atoms: C_10  and  S_13
REMARK    5  A    between atoms: C_20  and  C_26
REMARK                            x       y       z     vdW  Elec       q    Type
REMARK                         _______ _______ _______ _____ _____    ______ ____
ROOT
ATOM      1  C   UNL     1      32.841 -13.658 -22.371  0.00  0.00    +0.154 C 
ENDROOT
BRANCH   1   4
ATOM      2  S   UNL     1      33.804 -19.703 -20.945  0.00  0.00    -0.024 S 
ATOM      3  O   UNL     1      35.034 -15.257 -21.474  0.00  0.00    -0.252 OA
ATOM      4  N   UNL     1      32.819 -15.074 -22.105  0.00  0.00    -0.282 N 
ATOM      5  N   UNL     1      33.620 -17.136 -21.492  0.00  0.00    -0.247 N 
ATOM      6  N   UNL     1      35.737 -18.033 -20.749  0.00  0.00    -0.125 NA
ATOM      7  N   UNL     1      36.261 -19.257 -20.370  0.00  0.00    -0.133 NA
ATOM      8  C   UNL     1      33.943 -15.788 -21.666  0.00  0.00    +0.306 C 
ATOM      9  C   UNL     1      34.483 -18.146 -21.065  0.00  0.00    +0.190 A 
ATOM     10  C   UNL     1      35.358 -20.213 -20.427  0.00  0.00    +0.157 A 
ATOM     11  H   UNL     1      31.975 -15.563 -22.237  0.00  0.00    +0.151 HD
ATOM     12  H   UNL     1      32.692 -17.400 -21.691  0.00  0.00    +0.158 HD
BRANCH  10  13
ATOM     13  S   UNL     1      35.731 -21.865 -20.005  0.00  0.00    -0.114 S 
ATOM     14  H   UNL     1      36.656 -22.357 -20.871  0.00  0.00    +0.109 HD
ENDBRANCH  10  13
ENDBRANCH   1   4
BRANCH   1  17
ATOM     15  O   UNL     1      32.413 -13.241 -20.022  0.00  0.00    -0.273 OA
ATOM     16  N   UNL     1      31.286 -11.975 -21.609  0.00  0.00    -0.301 N 
ATOM     17  C   UNL     1      32.164 -12.967 -21.194  0.00  0.00    +0.241 C 
ATOM     18  C   UNL     1      30.550 -11.133 -20.692  0.00  0.00    +0.111 C 
ATOM     19  H   UNL     1      31.159 -11.837 -22.575  0.00  0.00    +0.150 HD
ENDBRANCH   1  17
BRANCH   1  20
ATOM     20  C   UNL     1      32.126 -13.304 -23.680  0.00  0.00    +0.060 C 
BRANCH  20  26
ATOM     21  F   UNL     1      33.592 -10.930 -23.260  0.00  0.00    -0.202 F 
ATOM     22  F   UNL     1      32.549 -14.509 -26.199  0.00  0.00    -0.202 F 
ATOM     23  F   UNL     1      34.235 -13.459 -28.067  0.00  0.00    -0.199 F 
ATOM     24  F   UNL     1      35.278  -9.891 -25.133  0.00  0.00    -0.199 F 
ATOM     25  F   UNL     1      35.602 -11.151 -27.537  0.00  0.00    -0.199 F 
ATOM     26  C   UNL     1      33.058 -12.726 -24.717  0.00  0.00    +0.039 A 
ATOM     27  C   UNL     1      33.744 -11.555 -24.436  0.00  0.00    +0.168 A 
ATOM     28  C   UNL     1      33.214 -13.376 -25.932  0.00  0.00    +0.168 A 
ATOM     29  C   UNL     1      34.077 -12.842 -26.888  0.00  0.00    +0.197 A 
ATOM     30  C   UNL     1      34.608 -11.021 -25.392  0.00  0.00    +0.197 A 
ATOM     31  C   UNL     1      34.773 -11.664 -26.618  0.00  0.00    +0.199 A 
ENDBRANCH  20  26
ENDBRANCH   1  20
TORSDOF 5
ENDMDL
MODEL 4
REMARK VINA RESULT:      -9.7      0.074      2.049
REMARK  Name = 448934
REMARK  5 active torsions:
REMARK  status: ('A' for Active; 'I' for Inactive)
REMARK    1  A    between atoms: C_1  and  N_4
REMARK    2  A    between atoms: C_1  and  C_17
REMARK    3  A    between atoms: C_1  and  C_20
REMARK    4  A    between atoms: C_10  and  S_13
REMARK    5  A    between atoms: C_20  and  C_26
REMARK                            x       y       z     vdW  Elec       q    Type
REMARK                         _______ _______ _______ _____ _____    ______ ____
ROOT
ATOM      1  C   UNL     1      33.642 -24.285 -14.982  0.00  0.00    +0.154 C 
ENDROOT
BRANCH   1   4
ATOM      2  S   UNL     1      33.233 -20.757 -20.167  0.00  0.00    -0.024 S 
ATOM      3  O   UNL     1      35.461 -23.160 -16.878  0.00  0.00    -0.252 OA
ATOM      4  N   UNL     1      33.299 -23.482 -16.128  0.00  0.00    -0.282 N 
ATOM      5  N   UNL     1      33.630 -22.231 -18.025  0.00  0.00    -0.247 N 
ATOM      6  N   UNL     1      35.533 -21.514 -19.330  0.00  0.00    -0.125 NA
ATOM      7  N   UNL     1      35.778 -20.768 -20.470  0.00  0.00    -0.133 NA
ATOM      8  C   UNL     1      34.256 -22.966 -17.014  0.00  0.00    +0.306 C 
ATOM      9  C   UNL     1      34.260 -21.572 -19.082  0.00  0.00    +0.190 A 
ATOM     10  C   UNL     1      34.664 -20.315 -21.005  0.00  0.00    +0.157 A 
ATOM     11  H   UNL     1      32.350 -23.288 -16.299  0.00  0.00    +0.151 HD
ATOM     12  H   UNL     1      32.647 -22.173 -17.988  0.00  0.00    +0.158 HD
BRANCH  10  13
ATOM     13  S   UNL     1      34.661 -19.342 -22.454  0.00  0.00    -0.114 S 
ATOM     14  H   UNL     1      34.762 -20.150 -23.543  0.00  0.00    +0.109 HD
ENDBRANCH  10  13
ENDBRANCH   1   4
BRANCH   1  17
ATOM     15  O   UNL     1      32.276 -25.036 -13.125  0.00  0.00    -0.273 OA
ATOM     16  N   UNL     1      31.245 -24.534 -15.146  0.00  0.00    -0.301 N 
ATOM     17  C   UNL     1      32.337 -24.678 -14.300  0.00  0.00    +0.241 C 
ATOM     18  C   UNL     1      29.884 -24.792 -14.734  0.00  0.00    +0.111 C 
ATOM     19  H   UNL     1      31.406 -24.241 -16.071  0.00  0.00    +0.150 HD
ENDBRANCH   1  17
BRANCH   1  20
ATOM     20  C   UNL     1      34.551 -23.537 -14.002  0.00  0.00    +0.060 C 
BRANCH  20  26
ATOM     21  F   UNL     1      36.444 -22.647 -12.107  0.00  0.00    -0.202 F 
ATOM     22  F   UNL     1      35.319 -25.854 -15.422  0.00  0.00    -0.202 F 
ATOM     23  F   UNL     1      37.694 -27.121 -14.994  0.00  0.00    -0.199 F 
ATOM     24  F   UNL     1      38.814 -23.925 -11.685  0.00  0.00    -0.199 F 
ATOM     25  F   UNL     1      39.444 -26.161 -13.125  0.00  0.00    -0.199 F 
ATOM     26  C   UNL     1      35.865 -24.241 -13.768  0.00  0.00    +0.039 A 
ATOM     27  C   UNL     1      36.743 -23.743 -12.818  0.00  0.00    +0.168 A 
ATOM     28  C   UNL     1      36.171 -25.375 -14.506  0.00  0.00    +0.168 A 
ATOM     29  C   UNL     1      37.385 -26.026 -14.288  0.00  0.00    +0.197 A 
ATOM     30  C   UNL     1      37.957 -24.395 -12.600  0.00  0.00    +0.197 A 
ATOM     31  C   UNL     1      38.278 -25.535 -13.335  0.00  0.00    +0.199 A 
ENDBRANCH  20  26
ENDBRANCH   1  20
TORSDOF 5
ENDMDL
MODEL 5
REMARK VINA RESULT:      -9.7      7.478     11.595
REMARK  Name = 448934
REMARK  5 active torsions:
REMARK  status: ('A' for Active; 'I' for Inactive)
REMARK    1  A    between atoms: C_1  and  N_4
REMARK    2  A    between atoms: C_1  and  C_17
REMARK    3  A    between atoms: C_1  and  C_20
REMARK    4  A    between atoms: C_10  and  S_13
REMARK    5  A    between atoms: C_20  and  C_26
REMARK                            x       y       z     vdW  Elec       q    Type
REMARK                         _______ _______ _______ _____ _____    ______ ____
ROOT
ATOM      1  C   UNL     1      34.386 -17.719 -23.035  0.00  0.00    +0.154 C 
ENDROOT
BRANCH   1   4
ATOM      2  S   UNL     1      35.195 -22.054 -18.557  0.00  0.00    -0.024 S 
ATOM      3  O   UNL     1      32.706 -19.339 -21.385  0.00  0.00    -0.252 OA
ATOM      4  N   UNL     1      34.817 -18.673 -22.044  0.00  0.00    -0.282 N 
ATOM      5  N   UNL     1      34.631 -20.266 -20.403  0.00  0.00    -0.247 N 
ATOM      6  N   UNL     1      32.822 -21.394 -19.265  0.00  0.00    -0.125 NA
ATOM      7  N   UNL     1      32.664 -22.354 -18.280  0.00  0.00    -0.133 NA
ATOM      8  C   UNL     1      33.926 -19.431 -21.273  0.00  0.00    +0.306 C 
ATOM      9  C   UNL     1      34.080 -21.163 -19.486  0.00  0.00    +0.190 A 
ATOM     10  C   UNL     1      33.823 -22.782 -17.826  0.00  0.00    +0.157 A 
ATOM     11  H   UNL     1      35.783 -18.798 -21.903  0.00  0.00    +0.151 HD
ATOM     12  H   UNL     1      35.615 -20.218 -20.440  0.00  0.00    +0.158 HD
BRANCH  10  13
ATOM     13  S   UNL     1      33.936 -23.996 -16.578  0.00  0.00    -0.114 S 
ATOM     14  H   UNL     1      33.765 -25.229 -17.126  0.00  0.00    +0.109 HD
ENDBRANCH  10  13
ENDBRANCH   1   4
BRANCH   1  17
ATOM     15  O   UNL     1      34.738 -17.670 -25.433  0.00  0.00    -0.273 OA
ATOM     16  N   UNL     1      34.837 -19.710 -24.326  0.00  0.00    -0.301 N 
ATOM     17  C   UNL     1      34.654 -18.336 -24.402  0.00  0.00    +0.241 C 
ATOM     18  C   UNL     1      35.154 -20.533 -25.471  0.00  0.00    +0.111 C 
ATOM     19  H   UNL     1      34.748 -20.145 -23.448  0.00  0.00    +0.150 HD
ENDBRANCH   1  17
BRANCH   1  20
ATOM     20  C   UNL     1      35.115 -16.377 -22.903  0.00  0.00    +0.060 C 
BRANCH  20  26
ATOM     21  F   UNL     1      34.043 -16.048 -20.313  0.00  0.00    -0.202 F 
ATOM     22  F   UNL     1      34.312 -14.407 -24.760  0.00  0.00    -0.202 F 
ATOM     23  F   UNL     1      32.638 -12.359 -24.099  0.00  0.00    -0.199 F 
ATOM     24  F   UNL     1      32.374 -13.994 -19.662  0.00  0.00    -0.199 F 
ATOM     25  F   UNL     1      31.668 -12.148 -21.551  0.00  0.00    -0.199 F 
ATOM     26  C   UNL     1      34.189 -15.242 -22.542  0.00  0.00    +0.039 A 
ATOM     27  C   UNL     1      33.704 -15.148 -21.246  0.00  0.00    +0.168 A 
ATOM     28  C   UNL     1      33.839 -14.313 -23.509  0.00  0.00    +0.168 A 
ATOM     29  C   UNL     1      32.985 -13.263 -23.173  0.00  0.00    +0.197 A 
ATOM     30  C   UNL     1      32.849 -14.098 -20.910  0.00  0.00    +0.197 A 
ATOM     31  C   UNL     1      32.489 -13.156 -21.873  0.00  0.00    +0.199 A 
ENDBRANCH  20  26
ENDBRANCH   1  20
TORSDOF 5
ENDMDL
MODEL 6
REMARK VINA RESULT:      -9.6      7.475     11.522
REMARK  Name = 448934
REMARK  5 active torsions:
REMARK  status: ('A' for Active; 'I' for Inactive)
REMARK    1  A    between atoms: C_1  and  N_4
REMARK    2  A    between atoms: C_1  and  C_17
REMARK    3  A    between atoms: C_1  and  C_20
REMARK    4  A    between atoms: C_10  and  S_13
REMARK    5  A    between atoms: C_20  and  C_26
REMARK                            x       y       z     vdW  Elec       q    Type
REMARK                         _______ _______ _______ _____ _____    ______ ____
ROOT
ATOM      1  C   UNL     1      34.392 -17.717 -23.037  0.00  0.00    +0.154 C 
ENDROOT
BRANCH   1   4
ATOM      2  S   UNL     1      35.218 -22.049 -18.558  0.00  0.00    -0.024 S 
ATOM      3  O   UNL     1      32.719 -19.339 -21.382  0.00  0.00    -0.252 OA
ATOM      4  N   UNL     1      34.828 -18.670 -22.047  0.00  0.00    -0.282 N 
ATOM      5  N   UNL     1      34.648 -20.263 -20.404  0.00  0.00    -0.247 N 
ATOM      6  N   UNL     1      32.843 -21.393 -19.262  0.00  0.00    -0.125 NA
ATOM      7  N   UNL     1      32.689 -22.352 -18.276  0.00  0.00    -0.133 NA
ATOM      8  C   UNL     1      33.939 -19.430 -21.274  0.00  0.00    +0.306 C 
ATOM      9  C   UNL     1      34.100 -21.160 -19.486  0.00  0.00    +0.190 A 
ATOM     10  C   UNL     1      33.849 -22.779 -17.824  0.00  0.00    +0.157 A 
ATOM     11  H   UNL     1      35.794 -18.794 -21.908  0.00  0.00    +0.151 HD
ATOM     12  H   UNL     1      35.631 -20.213 -20.444  0.00  0.00    +0.158 HD
BRANCH  10  13
ATOM     13  S   UNL     1      33.967 -23.992 -16.576  0.00  0.00    -0.114 S 
ATOM     14  H   UNL     1      35.147 -24.656 -16.699  0.00  0.00    +0.109 HD
ENDBRANCH  10  13
ENDBRANCH   1   4
BRANCH   1  17
ATOM     15  O   UNL     1      34.740 -17.669 -25.435  0.00  0.00    -0.273 OA
ATOM     16  N   UNL     1      34.843 -19.708 -24.328  0.00  0.00    -0.301 N 
ATOM     17  C   UNL     1      34.659 -18.334 -24.405  0.00  0.00    +0.241 C 
ATOM     18  C   UNL     1      35.159 -20.531 -25.474  0.00  0.00    +0.111 C 
ATOM     19  H   UNL     1      34.755 -20.143 -23.450  0.00  0.00    +0.150 HD
ENDBRANCH   1  17
BRANCH   1  20
ATOM     20  C   UNL     1      35.119 -16.374 -22.907  0.00  0.00    +0.060 C 
BRANCH  20  26
ATOM     21  F   UNL     1      34.307 -14.405 -24.757  0.00  0.00    -0.202 F 
ATOM     22  F   UNL     1      34.055 -16.050 -20.311  0.00  0.00    -0.202 F 
ATOM     23  F   UNL     1      32.382 -14.001 -19.654  0.00  0.00    -0.199 F 
ATOM     24  F   UNL     1      32.630 -12.363 -24.090  0.00  0.00    -0.199 F 
ATOM     25  F   UNL     1      31.666 -12.155 -21.540  0.00  0.00    -0.199 F 
ATOM     26  C   UNL     1      34.193 -15.242 -22.538  0.00  0.00    +0.039 A 
ATOM     27  C   UNL     1      33.839 -14.313 -23.504  0.00  0.00    +0.168 A 
ATOM     28  C   UNL     1      33.711 -15.149 -21.242  0.00  0.00    +0.168 A 
ATOM     29  C   UNL     1      32.854 -14.102 -20.903  0.00  0.00    +0.197 A 
ATOM     30  C   UNL     1      32.981 -13.266 -23.166  0.00  0.00    +0.197 A 
ATOM     31  C   UNL     1      32.489 -13.161 -21.865  0.00  0.00    +0.199 A 
ENDBRANCH  20  26
ENDBRANCH   1  20
TORSDOF 5
ENDMDL
MODEL 7
REMARK VINA RESULT:      -9.6      2.072      2.730
REMARK  Name = 448934
REMARK  5 active torsions:
REMARK  status: ('A' for Active; 'I' for Inactive)
REMARK    1  A    between atoms: C_1  and  N_4
REMARK    2  A    between atoms: C_1  and  C_17
REMARK    3  A    between atoms: C_1  and  C_20
REMARK    4  A    between atoms: C_10  and  S_13
REMARK    5  A    between atoms: C_20  and  C_26
REMARK                            x       y       z     vdW  Elec       q    Type
REMARK                         _______ _______ _______ _____ _____    ______ ____
ROOT
ATOM      1  C   UNL     1      32.626 -23.407 -16.565  0.00  0.00    +0.154 C 
ENDROOT
BRANCH   1   4
ATOM      2  S   UNL     1      33.149 -19.293 -21.287  0.00  0.00    -0.024 S 
ATOM      3  O   UNL     1      34.630 -22.670 -18.465  0.00  0.00    -0.252 OA
ATOM      4  N   UNL     1      32.511 -22.398 -17.586  0.00  0.00    -0.282 N 
ATOM      5  N   UNL     1      33.144 -21.079 -19.356  0.00  0.00    -0.247 N 
ATOM      6  N   UNL     1      35.122 -20.827 -20.722  0.00  0.00    -0.125 NA
ATOM      7  N   UNL     1      35.544 -20.055 -21.790  0.00  0.00    -0.133 NA
ATOM      8  C   UNL     1      33.545 -22.095 -18.483  0.00  0.00    +0.306 C 
ATOM      9  C   UNL     1      33.908 -20.519 -20.381  0.00  0.00    +0.190 A 
ATOM     10  C   UNL     1      34.611 -19.214 -22.183  0.00  0.00    +0.157 A 
ATOM     11  H   UNL     1      31.666 -21.898 -17.659  0.00  0.00    +0.151 HD
ATOM     12  H   UNL     1      32.234 -20.724 -19.235  0.00  0.00    +0.158 HD
BRANCH  10  13
ATOM     13  S   UNL     1      34.859 -18.111 -23.512  0.00  0.00    -0.114 S 
ATOM     14  H   UNL     1      36.172 -18.116 -23.868  0.00  0.00    +0.109 HD
ENDBRANCH  10  13
ENDBRANCH   1   4
BRANCH   1  17
ATOM     15  O   UNL     1      30.972 -24.652 -15.304  0.00  0.00    -0.273 OA
ATOM     16  N   UNL     1      30.258 -22.965 -16.732  0.00  0.00    -0.301 N 
ATOM     17  C   UNL     1      31.213 -23.772 -16.129  0.00  0.00    +0.241 C 
ATOM     18  C   UNL     1      28.843 -23.067 -16.456  0.00  0.00    +0.111 C 
ATOM     19  H   UNL     1      30.560 -22.288 -17.380  0.00  0.00    +0.150 HD
ENDBRANCH   1  17
BRANCH   1  20
ATOM     20  C   UNL     1      33.447 -22.924 -15.364  0.00  0.00    +0.060 C 
BRANCH  20  26
ATOM     21  F   UNL     1      35.820 -21.549 -16.027  0.00  0.00    -0.202 F 
ATOM     22  F   UNL     1      33.835 -25.601 -14.551  0.00  0.00    -0.202 F 
ATOM     23  F   UNL     1      36.301 -26.755 -14.421  0.00  0.00    -0.199 F 
ATOM     24  F   UNL     1      38.281 -22.711 -15.889  0.00  0.00    -0.199 F 
ATOM     25  F   UNL     1      38.527 -25.313 -15.088  0.00  0.00    -0.199 F 
ATOM     26  C   UNL     1      34.810 -23.567 -15.290  0.00  0.00    +0.039 A 
ATOM     27  C   UNL     1      35.930 -22.825 -15.632  0.00  0.00    +0.168 A 
ATOM     28  C   UNL     1      34.920 -24.887 -14.882  0.00  0.00    +0.168 A 
ATOM     29  C   UNL     1      36.181 -25.480 -14.813  0.00  0.00    +0.197 A 
ATOM     30  C   UNL     1      37.191 -23.417 -15.563  0.00  0.00    +0.197 A 
ATOM     31  C   UNL     1      37.316 -24.744 -15.154  0.00  0.00    +0.199 A 
ENDBRANCH  20  26
ENDBRANCH   1  20
TORSDOF 5
ENDMDL
MODEL 8
REMARK VINA RESULT:      -9.6      7.678     10.237
REMARK  Name = 448934
REMARK  5 active torsions:
REMARK  status: ('A' for Active; 'I' for Inactive)
REMARK    1  A    between atoms: C_1  and  N_4
REMARK    2  A    between atoms: C_1  and  C_17
REMARK    3  A    between atoms: C_1  and  C_20
REMARK    4  A    between atoms: C_10  and  S_13
REMARK    5  A    between atoms: C_20  and  C_26
REMARK                            x       y       z     vdW  Elec       q    Type
REMARK                         _______ _______ _______ _____ _____    ______ ____
ROOT
ATOM      1  C   UNL     1      35.064 -17.258 -23.176  0.00  0.00    +0.154 C 
ENDROOT
BRANCH   1   4
ATOM      2  S   UNL     1      33.928 -11.153 -24.151  0.00  0.00    -0.024 S 
ATOM      3  O   UNL     1      33.182 -15.320 -22.243  0.00  0.00    -0.252 OA
ATOM      4  N   UNL     1      34.999 -15.870 -23.558  0.00  0.00    -0.282 N 
ATOM      5  N   UNL     1      34.226 -13.709 -23.601  0.00  0.00    -0.247 N 
ATOM      6  N   UNL     1      32.447 -12.473 -22.530  0.00  0.00    -0.125 NA
ATOM      7  N   UNL     1      31.949 -11.182 -22.523  0.00  0.00    -0.133 NA
ATOM      8  C   UNL     1      34.041 -14.981 -23.052  0.00  0.00    +0.306 C 
ATOM      9  C   UNL     1      33.463 -12.571 -23.331  0.00  0.00    +0.190 A 
ATOM     10  C   UNL     1      32.631 -10.392 -23.325  0.00  0.00    +0.157 A 
ATOM     11  H   UNL     1      35.660 -15.529 -24.204  0.00  0.00    +0.151 HD
ATOM     12  H   UNL     1      34.968 -13.605 -24.240  0.00  0.00    +0.158 HD
BRANCH  10  13
ATOM     13  S   UNL     1      32.232  -8.704 -23.522  0.00  0.00    -0.114 S 
ATOM     14  H   UNL     1      31.281  -8.354 -22.616  0.00  0.00    +0.109 HD
ENDBRANCH  10  13
ENDBRANCH   1   4
BRANCH   1  17
ATOM     15  O   UNL     1      34.062 -17.592 -25.358  0.00  0.00    -0.273 OA
ATOM     16  N   UNL     1      35.018 -19.410 -24.273  0.00  0.00    -0.301 N 
ATOM     17  C   UNL     1      34.637 -18.079 -24.387  0.00  0.00    +0.241 C 
ATOM     18  C   UNL     1      34.780 -20.394 -25.303  0.00  0.00    +0.111 C 
ATOM     19  H   UNL     1      35.475 -19.696 -23.449  0.00  0.00    +0.150 HD
ENDBRANCH   1  17
BRANCH   1  20
ATOM     20  C   UNL     1      34.164 -17.570 -21.975  0.00  0.00    +0.060 C 
BRANCH  20  26
ATOM     21  F   UNL     1      32.308 -19.375 -20.853  0.00  0.00    -0.202 F 
ATOM     22  F   UNL     1      36.869 -18.294 -21.608  0.00  0.00    -0.202 F 
ATOM     23  F   UNL     1      37.619 -20.553 -20.278  0.00  0.00    -0.199 F 
ATOM     24  F   UNL     1      33.069 -21.632 -19.528  0.00  0.00    -0.199 F 
ATOM     25  F   UNL     1      35.722 -22.225 -19.237  0.00  0.00    -0.199 F 
ATOM     26  C   UNL     1      34.584 -18.819 -21.240  0.00  0.00    +0.039 A 
ATOM     27  C   UNL     1      33.612 -19.657 -20.716  0.00  0.00    +0.168 A 
ATOM     28  C   UNL     1      35.933 -19.107 -21.100  0.00  0.00    +0.168 A 
ATOM     29  C   UNL     1      36.319 -20.263 -20.421  0.00  0.00    +0.197 A 
ATOM     30  C   UNL     1      33.998 -20.813 -20.037  0.00  0.00    +0.197 A 
ATOM     31  C   UNL     1      35.351 -21.115 -19.889  0.00  0.00    +0.199 A 
ENDBRANCH  20  26
ENDBRANCH   1  20
TORSDOF 5
ENDMDL
MODEL 9
REMARK VINA RESULT:      -9.6      7.678     10.295
REMARK  Name = 448934
REMARK  5 active torsions:
REMARK  status: ('A' for Active; 'I' for Inactive)
REMARK    1  A    between atoms: C_1  and  N_4
REMARK    2  A    between atoms: C_1  and  C_17
REMARK    3  A    between atoms: C_1  and  C_20
REMARK    4  A    between atoms: C_10  and  S_13
REMARK    5  A    between atoms: C_20  and  C_26
REMARK                            x       y       z     vdW  Elec       q    Type
REMARK                         _______ _______ _______ _____ _____    ______ ____
ROOT
ATOM      1  C   UNL     1      35.062 -17.229 -23.133  0.00  0.00    +0.154 C 
ENDROOT
BRANCH   1   4
ATOM      2  S   UNL     1      33.917 -11.124 -24.093  0.00  0.00    -0.024 S 
ATOM      3  O   UNL     1      33.145 -15.309 -22.234  0.00  0.00    -0.252 OA
ATOM      4  N   UNL     1      34.999 -15.839 -23.507  0.00  0.00    -0.282 N 
ATOM      5  N   UNL     1      34.215 -13.682 -23.553  0.00  0.00    -0.247 N 
ATOM      6  N   UNL     1      32.402 -12.464 -22.519  0.00  0.00    -0.125 NA
ATOM      7  N   UNL     1      31.897 -11.175 -22.516  0.00  0.00    -0.133 NA
ATOM      8  C   UNL     1      34.023 -14.959 -23.019  0.00  0.00    +0.306 C 
ATOM      9  C   UNL     1      33.439 -12.551 -23.295  0.00  0.00    +0.190 A 
ATOM     10  C   UNL     1      32.595 -10.376 -23.295  0.00  0.00    +0.157 A 
ATOM     11  H   UNL     1      35.674 -15.490 -24.133  0.00  0.00    +0.151 HD
ATOM     12  H   UNL     1      34.972 -13.569 -24.173  0.00  0.00    +0.158 HD
BRANCH  10  13
ATOM     13  S   UNL     1      32.192  -8.689 -23.490  0.00  0.00    -0.114 S 
ATOM     14  H   UNL     1      33.251  -7.923 -23.116  0.00  0.00    +0.109 HD
ENDBRANCH  10  13
ENDBRANCH   1   4
BRANCH   1  17
ATOM     15  O   UNL     1      34.057 -17.550 -25.316  0.00  0.00    -0.273 OA
ATOM     16  N   UNL     1      35.014 -19.374 -24.243  0.00  0.00    -0.301 N 
ATOM     17  C   UNL     1      34.633 -18.043 -24.348  0.00  0.00    +0.241 C 
ATOM     18  C   UNL     1      34.774 -20.352 -25.279  0.00  0.00    +0.111 C 
ATOM     19  H   UNL     1      35.472 -19.666 -23.422  0.00  0.00    +0.150 HD
ENDBRANCH   1  17
BRANCH   1  20
ATOM     20  C   UNL     1      34.162 -17.547 -21.933  0.00  0.00    +0.060 C 
BRANCH  20  26
ATOM     21  F   UNL     1      36.860 -18.281 -21.559  0.00  0.00    -0.202 F 
ATOM     22  F   UNL     1      32.294 -19.367 -20.849  0.00  0.00    -0.202 F 
ATOM     23  F   UNL     1      33.043 -21.643 -19.549  0.00  0.00    -0.199 F 
ATOM     24  F   UNL     1      37.598 -20.557 -20.254  0.00  0.00    -0.199 F 
ATOM     25  F   UNL     1      35.694 -22.241 -19.248  0.00  0.00    -0.199 F 
ATOM     26  C   UNL     1      34.572 -18.808 -21.213  0.00  0.00    +0.039 A 
ATOM     27  C   UNL     1      35.919 -19.100 -21.069  0.00  0.00    +0.168 A 
ATOM     28  C   UNL     1      33.595 -19.653 -20.708  0.00  0.00    +0.168 A 
ATOM     29  C   UNL     1      33.976 -20.817 -20.041  0.00  0.00    +0.197 A 
ATOM     30  C   UNL     1      36.300 -20.264 -20.402  0.00  0.00    +0.197 A 
ATOM     31  C   UNL     1      35.329 -21.123 -19.889  0.00  0.00    +0.199 A 
ENDBRANCH  20  26
ENDBRANCH   1  20
TORSDOF 5
ENDMDL
