MODEL 1
REMARK VINA RESULT:      -9.7      0.000      0.000
REMARK  Name = 2014
REMARK  3 active torsions:
REMARK  status: ('A' for Active; 'I' for Inactive)
REMARK    1  A    between atoms: N_2  and  C_14
REMARK    2  A    between atoms: N_3  and  C_8
REMARK    3  A    between atoms: C_15  and  C_22
REMARK                            x       y       z     vdW  Elec       q    Type
REMARK                         _______ _______ _______ _____ _____    ______ ____
ROOT
ATOM      1  O   UNL     1      33.941 -19.429 -20.629  0.00  0.00    -0.252 OA
ATOM      2  N   UNL     1      35.903 -20.684 -20.377  0.00  0.00    -0.268 N 
ATOM      3  N   UNL     1      35.682 -19.259 -22.182  0.00  0.00    -0.268 N 
ATOM      4  C   UNL     1      35.056 -19.752 -21.025  0.00  0.00    +0.308 C 
ATOM      5  H   UNL     1      36.772 -20.845 -20.812  0.00  0.00    +0.156 HD
ATOM      6  H   UNL     1      36.581 -19.614 -22.371  0.00  0.00    +0.156 HD
ENDROOT
BRANCH   3   8
ATOM      7 CL   UNL     1      33.584 -15.319 -26.048  0.00  0.00    -0.082 Cl
ATOM      8  C   UNL     1      35.180 -18.316 -23.108  0.00  0.00    +0.052 C 
ATOM      9  C   UNL     1      35.235 -16.966 -22.799  0.00  0.00    +0.016 C 
ATOM     10  C   UNL     1      34.643 -18.760 -24.306  0.00  0.00    +0.016 C 
ATOM     11  C   UNL     1      34.739 -16.036 -23.712  0.00  0.00    +0.013 C 
ATOM     12  C   UNL     1      34.148 -17.829 -25.219  0.00  0.00    +0.013 C 
ATOM     13  C   UNL     1      34.196 -16.468 -24.922  0.00  0.00    +0.058 C 
ENDBRANCH   3   8
BRANCH   2  14
ATOM     14  C   UNL     1      35.671 -21.404 -19.204  0.00  0.00    +0.052 C 
ATOM     15  C   UNL     1      35.207 -22.842 -16.860  0.00  0.00    +0.031 C 
ATOM     16  C   UNL     1      34.459 -22.070 -19.023  0.00  0.00    +0.015 C 
ATOM     17  C   UNL     1      36.651 -21.456 -18.214  0.00  0.00    +0.015 C 
ATOM     18  C   UNL     1      34.227 -22.789 -17.851  0.00  0.00    +0.004 C 
ATOM     19  C   UNL     1      36.419 -22.175 -17.041  0.00  0.00    +0.004 C 
BRANCH  15  22
ATOM     20  N   UNL     1      34.310 -23.017 -14.551  0.00  0.00    -0.343 N 
ATOM     21  N   UNL     1      35.376 -24.845 -15.544  0.00  0.00    -0.285 NA
ATOM     22  C   UNL     1      34.965 -23.592 -15.638  0.00  0.00    +0.117 C 
ATOM     23  H   UNL     1      34.158 -23.543 -13.733  0.00  0.00    +0.144 HD
ATOM     24  H   UNL     1      34.001 -22.084 -14.601  0.00  0.00    +0.144 HD
ATOM     25  H   UNL     1      35.213 -25.355 -14.717  0.00  0.00    +0.188 HD
ENDBRANCH  15  22
ENDBRANCH   2  14
TORSDOF 3
ENDMDL
MODEL 2
REMARK VINA RESULT:      -9.7      0.021      1.528
REMARK  Name = 2014
REMARK  3 active torsions:
REMARK  status: ('A' for Active; 'I' for Inactive)
REMARK    1  A    between atoms: N_2  and  C_14
REMARK    2  A    between atoms: N_3  and  C_8
REMARK    3  A    between atoms: C_15  and  C_22
REMARK                            x       y       z     vdW  Elec       q    Type
REMARK                         _______ _______ _______ _____ _____    ______ ____
ROOT
ATOM      1  O   UNL     1      33.934 -19.446 -20.628  0.00  0.00    -0.252 OA
ATOM      2  N   UNL     1      35.908 -20.679 -20.359  0.00  0.00    -0.268 N 
ATOM      3  N   UNL     1      35.689 -19.253 -22.163  0.00  0.00    -0.268 N 
ATOM      4  C   UNL     1      35.057 -19.756 -21.014  0.00  0.00    +0.308 C 
ATOM      5  H   UNL     1      36.783 -20.829 -20.785  0.00  0.00    +0.156 HD
ATOM      6  H   UNL     1      36.594 -19.597 -22.343  0.00  0.00    +0.156 HD
ENDROOT
BRANCH   3   8
ATOM      7 CL   UNL     1      33.587 -15.329 -26.044  0.00  0.00    -0.082 Cl
ATOM      8  C   UNL     1      35.186 -18.313 -23.092  0.00  0.00    +0.052 C 
ATOM      9  C   UNL     1      34.654 -18.761 -24.291  0.00  0.00    +0.016 C 
ATOM     10  C   UNL     1      35.234 -16.963 -22.785  0.00  0.00    +0.016 C 
ATOM     11  C   UNL     1      34.158 -17.835 -25.206  0.00  0.00    +0.013 C 
ATOM     12  C   UNL     1      34.737 -16.036 -23.702  0.00  0.00    +0.013 C 
ATOM     13  C   UNL     1      34.199 -16.472 -24.912  0.00  0.00    +0.058 C 
ENDBRANCH   3   8
BRANCH   2  14
ATOM     14  C   UNL     1      35.671 -21.404 -19.190  0.00  0.00    +0.052 C 
ATOM     15  C   UNL     1      35.197 -22.853 -16.855  0.00  0.00    +0.031 C 
ATOM     16  C   UNL     1      36.647 -21.463 -18.196  0.00  0.00    +0.015 C 
ATOM     17  C   UNL     1      34.458 -22.069 -19.017  0.00  0.00    +0.015 C 
ATOM     18  C   UNL     1      36.410 -22.187 -17.028  0.00  0.00    +0.004 C 
ATOM     19  C   UNL     1      34.221 -22.794 -17.850  0.00  0.00    +0.004 C 
BRANCH  15  22
ATOM     20  N   UNL     1      34.257 -23.048 -14.565  0.00  0.00    -0.343 N 
ATOM     21  N   UNL     1      35.390 -24.850 -15.532  0.00  0.00    -0.285 NA
ATOM     22  C   UNL     1      34.949 -23.608 -15.637  0.00  0.00    +0.117 C 
ATOM     23  H   UNL     1      34.101 -23.577 -13.750  0.00  0.00    +0.144 HD
ATOM     24  H   UNL     1      33.925 -22.124 -14.623  0.00  0.00    +0.144 HD
ATOM     25  H   UNL     1      35.222 -25.363 -14.708  0.00  0.00    +0.188 HD
ENDBRANCH  15  22
ENDBRANCH   2  14
TORSDOF 3
ENDMDL
MODEL 3
REMARK VINA RESULT:      -9.5      3.718      8.872
REMARK  Name = 2014
REMARK  3 active torsions:
REMARK  status: ('A' for Active; 'I' for Inactive)
REMARK    1  A    between atoms: N_2  and  C_14
REMARK    2  A    between atoms: N_3  and  C_8
REMARK    3  A    between atoms: C_15  and  C_22
REMARK                            x       y       z     vdW  Elec       q    Type
REMARK                         _______ _______ _______ _____ _____    ______ ____
ROOT
ATOM      1  O   UNL     1      33.702 -19.297 -20.618  0.00  0.00    -0.252 OA
ATOM      2  N   UNL     1      35.461 -19.019 -22.140  0.00  0.00    -0.268 N 
ATOM      3  N   UNL     1      35.655 -20.572 -20.441  0.00  0.00    -0.268 N 
ATOM      4  C   UNL     1      34.820 -19.601 -21.019  0.00  0.00    +0.308 C 
ATOM      5  H   UNL     1      36.360 -19.363 -22.345  0.00  0.00    +0.156 HD
ATOM      6  H   UNL     1      36.528 -20.705 -20.877  0.00  0.00    +0.156 HD
ENDROOT
BRANCH   3   8
ATOM      7 CL   UNL     1      34.570 -23.950 -15.720  0.00  0.00    -0.082 Cl
ATOM      8  C   UNL     1      35.396 -21.381 -19.311  0.00  0.00    +0.052 C 
ATOM      9  C   UNL     1      34.172 -22.021 -19.202  0.00  0.00    +0.016 C 
ATOM     10  C   UNL     1      36.370 -21.517 -18.335  0.00  0.00    +0.016 C 
ATOM     11  C   UNL     1      33.916 -22.819 -18.087  0.00  0.00    +0.013 C 
ATOM     12  C   UNL     1      36.114 -22.315 -17.220  0.00  0.00    +0.013 C 
ATOM     13  C   UNL     1      34.887 -22.966 -17.096  0.00  0.00    +0.058 C 
ENDBRANCH   3   8
BRANCH   2  14
ATOM     14  C   UNL     1      34.986 -18.022 -22.994  0.00  0.00    +0.052 C 
ATOM     15  C   UNL     1      34.037 -16.030 -24.701  0.00  0.00    +0.031 C 
ATOM     16  C   UNL     1      34.822 -16.719 -22.523  0.00  0.00    +0.015 C 
ATOM     17  C   UNL     1      34.675 -18.329 -24.319  0.00  0.00    +0.015 C 
ATOM     18  C   UNL     1      34.348 -15.724 -23.376  0.00  0.00    +0.004 C 
ATOM     19  C   UNL     1      34.201 -17.334 -25.172  0.00  0.00    +0.004 C 
BRANCH  15  22
ATOM     20  N   UNL     1      33.245 -13.714 -25.121  0.00  0.00    -0.343 N 
ATOM     21  N   UNL     1      33.366 -15.255 -26.874  0.00  0.00    -0.285 NA
ATOM     22  C   UNL     1      33.543 -14.992 -25.591  0.00  0.00    +0.117 C 
ATOM     23  H   UNL     1      32.911 -13.027 -25.741  0.00  0.00    +0.144 HD
ATOM     24  H   UNL     1      33.367 -13.500 -24.168  0.00  0.00    +0.144 HD
ATOM     25  H   UNL     1      33.032 -14.553 -27.479  0.00  0.00    +0.188 HD
ENDBRANCH  15  22
ENDBRANCH   2  14
TORSDOF 3
ENDMDL
MODEL 4
REMARK VINA RESULT:      -9.5      3.390      4.771
REMARK  Name = 2014
REMARK  3 active torsions:
REMARK  status: ('A' for Active; 'I' for Inactive)
REMARK    1  A    between atoms: N_2  and  C_14
REMARK    2  A    between atoms: N_3  and  C_8
REMARK    3  A    between atoms: C_15  and  C_22
REMARK                            x       y       z     vdW  Elec       q    Type
REMARK                         _______ _______ _______ _____ _____    ______ ____
ROOT
ATOM      1  O   UNL     1      33.976 -15.552 -20.815  0.00  0.00    -0.252 OA
ATOM      2  N   UNL     1      34.076 -17.286 -22.387  0.00  0.00    -0.268 N 
ATOM      3  N   UNL     1      33.517 -15.153 -23.073  0.00  0.00    -0.268 N 
ATOM      4  C   UNL     1      33.867 -15.949 -21.970  0.00  0.00    +0.308 C 
ATOM      5  H   UNL     1      33.952 -17.458 -23.348  0.00  0.00    +0.156 HD
ATOM      6  H   UNL     1      33.469 -15.615 -23.941  0.00  0.00    +0.156 HD
ENDROOT
BRANCH   3   8
ATOM      7 CL   UNL     1      32.300  -9.374 -23.143  0.00  0.00    -0.082 Cl
ATOM      8  C   UNL     1      33.226 -13.769 -23.090  0.00  0.00    +0.052 C 
ATOM      9  C   UNL     1      32.251 -13.271 -22.241  0.00  0.00    +0.016 C 
ATOM     10  C   UNL     1      33.921 -12.939 -23.954  0.00  0.00    +0.016 C 
ATOM     11  C   UNL     1      31.964 -11.906 -22.257  0.00  0.00    +0.013 C 
ATOM     12  C   UNL     1      33.634 -11.574 -23.971  0.00  0.00    +0.013 C 
ATOM     13  C   UNL     1      32.655 -11.058 -23.122  0.00  0.00    +0.058 C 
ENDBRANCH   3   8
BRANCH   2  14
ATOM     14  C   UNL     1      34.435 -18.393 -21.616  0.00  0.00    +0.052 C 
ATOM     15  C   UNL     1      35.154 -20.603 -20.074  0.00  0.00    +0.031 C 
ATOM     16  C   UNL     1      33.451 -19.247 -21.121  0.00  0.00    +0.015 C 
ATOM     17  C   UNL     1      35.780 -18.643 -21.340  0.00  0.00    +0.015 C 
ATOM     18  C   UNL     1      33.810 -20.353 -20.350  0.00  0.00    +0.004 C 
ATOM     19  C   UNL     1      36.139 -19.748 -20.570  0.00  0.00    +0.004 C 
BRANCH  15  22
ATOM     20  N   UNL     1      36.651 -21.731 -18.445  0.00  0.00    -0.343 N 
ATOM     21  N   UNL     1      34.801 -22.858 -19.322  0.00  0.00    -0.285 NA
ATOM     22  C   UNL     1      35.529 -21.756 -19.272  0.00  0.00    +0.117 C 
ATOM     23  H   UNL     1      36.887 -22.523 -17.911  0.00  0.00    +0.144 HD
ATOM     24  H   UNL     1      37.208 -20.921 -18.397  0.00  0.00    +0.144 HD
ATOM     25  H   UNL     1      35.053 -23.640 -18.779  0.00  0.00    +0.188 HD
ENDBRANCH  15  22
ENDBRANCH   2  14
TORSDOF 3
ENDMDL
MODEL 5
REMARK VINA RESULT:      -9.3      7.198     10.343
REMARK  Name = 2014
REMARK  3 active torsions:
REMARK  status: ('A' for Active; 'I' for Inactive)
REMARK    1  A    between atoms: N_2  and  C_14
REMARK    2  A    between atoms: N_3  and  C_8
REMARK    3  A    between atoms: C_15  and  C_22
REMARK                            x       y       z     vdW  Elec       q    Type
REMARK                         _______ _______ _______ _____ _____    ______ ____
ROOT
ATOM      1  O   UNL     1      33.487 -10.573 -23.890  0.00  0.00    -0.252 OA
ATOM      2  N   UNL     1      32.367 -12.223 -22.661  0.00  0.00    -0.268 N 
ATOM      3  N   UNL     1      31.769 -10.007 -22.406  0.00  0.00    -0.268 N 
ATOM      4  C   UNL     1      32.631 -10.894 -23.072  0.00  0.00    +0.308 C 
ATOM      5  H   UNL     1      31.649 -12.330 -21.996  0.00  0.00    +0.156 HD
ATOM      6  H   UNL     1      31.133 -10.415 -21.776  0.00  0.00    +0.156 HD
ENDROOT
BRANCH   3   8
ATOM      7 CL   UNL     1      31.500  -4.130 -22.922  0.00  0.00    -0.082 Cl
ATOM      8  C   UNL     1      31.705  -8.599 -22.529  0.00  0.00    +0.052 C 
ATOM      9  C   UNL     1      32.203  -7.805 -21.509  0.00  0.00    +0.016 C 
ATOM     10  C   UNL     1      31.145  -8.043 -23.668  0.00  0.00    +0.016 C 
ATOM     11  C   UNL     1      32.140  -6.418 -21.632  0.00  0.00    +0.013 C 
ATOM     12  C   UNL     1      31.081  -6.655 -23.790  0.00  0.00    +0.013 C 
ATOM     13  C   UNL     1      31.579  -5.842 -22.772  0.00  0.00    +0.058 C 
ENDBRANCH   3   8
BRANCH   2  14
ATOM     14  C   UNL     1      32.990 -13.402 -23.073  0.00  0.00    +0.052 C 
ATOM     15  C   UNL     1      34.235 -15.758 -23.896  0.00  0.00    +0.031 C 
ATOM     16  C   UNL     1      32.840 -13.849 -24.386  0.00  0.00    +0.015 C 
ATOM     17  C   UNL     1      33.763 -14.134 -22.171  0.00  0.00    +0.015 C 
ATOM     18  C   UNL     1      33.462 -15.027 -24.797  0.00  0.00    +0.004 C 
ATOM     19  C   UNL     1      34.385 -15.312 -22.582  0.00  0.00    +0.004 C 
BRANCH  15  22
ATOM     20  N   UNL     1      35.806 -17.643 -23.510  0.00  0.00    -0.343 N 
ATOM     21  N   UNL     1      34.609 -17.497 -25.512  0.00  0.00    -0.285 NA
ATOM     22  C   UNL     1      34.885 -16.986 -24.325  0.00  0.00    +0.117 C 
ATOM     23  H   UNL     1      36.234 -18.473 -23.821  0.00  0.00    +0.144 HD
ATOM     24  H   UNL     1      36.027 -17.276 -22.624  0.00  0.00    +0.144 HD
ATOM     25  H   UNL     1      35.048 -18.329 -25.805  0.00  0.00    +0.188 HD
ENDBRANCH  15  22
ENDBRANCH   2  14
TORSDOF 3
ENDMDL
MODEL 6
REMARK VINA RESULT:      -9.3      5.213      9.781
REMARK  Name = 2014
REMARK  3 active torsions:
REMARK  status: ('A' for Active; 'I' for Inactive)
REMARK    1  A    between atoms: N_2  and  C_14
REMARK    2  A    between atoms: N_3  and  C_8
REMARK    3  A    between atoms: C_15  and  C_22
REMARK                            x       y       z     vdW  Elec       q    Type
REMARK                         _______ _______ _______ _____ _____    ______ ____
ROOT
ATOM      1  O   UNL     1      34.486 -15.534 -20.879  0.00  0.00    -0.252 OA
ATOM      2  N   UNL     1      33.503 -15.262 -22.989  0.00  0.00    -0.268 N 
ATOM      3  N   UNL     1      34.165 -17.365 -22.300  0.00  0.00    -0.268 N 
ATOM      4  C   UNL     1      34.095 -16.009 -21.941  0.00  0.00    +0.308 C 
ATOM      5  H   UNL     1      33.237 -15.778 -23.784  0.00  0.00    +0.156 HD
ATOM      6  H   UNL     1      33.809 -17.595 -23.188  0.00  0.00    +0.156 HD
ENDROOT
BRANCH   3   8
ATOM      7 CL   UNL     1      36.332 -21.854 -19.132  0.00  0.00    -0.082 Cl
ATOM      8  C   UNL     1      34.684 -18.440 -21.541  0.00  0.00    +0.052 C 
ATOM      9  C   UNL     1      36.052 -18.529 -21.339  0.00  0.00    +0.016 C 
ATOM     10  C   UNL     1      33.814 -19.382 -21.015  0.00  0.00    +0.016 C 
ATOM     11  C   UNL     1      36.563 -19.589 -20.591  0.00  0.00    +0.013 C 
ATOM     12  C   UNL     1      34.326 -20.442 -20.267  0.00  0.00    +0.013 C 
ATOM     13  C   UNL     1      35.700 -20.545 -20.055  0.00  0.00    +0.058 C 
ENDBRANCH   3   8
BRANCH   2  14
ATOM     14  C   UNL     1      33.246 -13.891 -23.044  0.00  0.00    +0.052 C 
ATOM     15  C   UNL     1      32.735 -11.152 -23.155  0.00  0.00    +0.031 C 
ATOM     16  C   UNL     1      32.295 -13.324 -22.196  0.00  0.00    +0.015 C 
ATOM     17  C   UNL     1      33.943 -13.088 -23.947  0.00  0.00    +0.015 C 
ATOM     18  C   UNL     1      32.039 -11.955 -22.252  0.00  0.00    +0.004 C 
ATOM     19  C   UNL     1      33.687 -11.719 -24.003  0.00  0.00    +0.004 C 
BRANCH  15  22
ATOM     20  N   UNL     1      31.196  -9.212 -22.967  0.00  0.00    -0.343 N 
ATOM     21  N   UNL     1      33.446  -8.884 -23.507  0.00  0.00    -0.285 NA
ATOM     22  C   UNL     1      32.469  -9.723 -23.213  0.00  0.00    +0.117 C 
ATOM     23  H   UNL     1      31.038  -8.241 -23.012  0.00  0.00    +0.144 HD
ATOM     24  H   UNL     1      30.455  -9.821 -22.750  0.00  0.00    +0.144 HD
ATOM     25  H   UNL     1      33.268  -7.915 -23.547  0.00  0.00    +0.188 HD
ENDBRANCH  15  22
ENDBRANCH   2  14
TORSDOF 3
ENDMDL
MODEL 7
REMARK VINA RESULT:      -9.1      2.429      3.797
REMARK  Name = 2014
REMARK  3 active torsions:
REMARK  status: ('A' for Active; 'I' for Inactive)
REMARK    1  A    between atoms: N_2  and  C_14
REMARK    2  A    between atoms: N_3  and  C_8
REMARK    3  A    between atoms: C_15  and  C_22
REMARK                            x       y       z     vdW  Elec       q    Type
REMARK                         _______ _______ _______ _____ _____    ______ ____
ROOT
ATOM      1  O   UNL     1      35.416 -22.371 -18.860  0.00  0.00    -0.252 OA
ATOM      2  N   UNL     1      36.943 -21.679 -17.224  0.00  0.00    -0.268 N 
ATOM      3  N   UNL     1      36.592 -20.362 -19.089  0.00  0.00    -0.268 N 
ATOM      4  C   UNL     1      36.229 -21.554 -18.441  0.00  0.00    +0.308 C 
ATOM      5  H   UNL     1      37.564 -20.944 -17.016  0.00  0.00    +0.156 HD
ATOM      6  H   UNL     1      37.261 -19.806 -18.627  0.00  0.00    +0.156 HD
ENDROOT
BRANCH   3   8
ATOM      7 CL   UNL     1      34.598 -18.278 -24.242  0.00  0.00    -0.082 Cl
ATOM      8  C   UNL     1      36.115 -19.862 -20.323  0.00  0.00    +0.052 C 
ATOM      9  C   UNL     1      34.794 -20.083 -20.679  0.00  0.00    +0.016 C 
ATOM     10  C   UNL     1      36.977 -19.163 -21.151  0.00  0.00    +0.016 C 
ATOM     11  C   UNL     1      34.323 -19.591 -21.895  0.00  0.00    +0.013 C 
ATOM     12  C   UNL     1      36.506 -18.670 -22.369  0.00  0.00    +0.013 C 
ATOM     13  C   UNL     1      35.180 -18.884 -22.740  0.00  0.00    +0.058 C 
ENDBRANCH   3   8
BRANCH   2  14
ATOM     14  C   UNL     1      36.883 -22.705 -16.280  0.00  0.00    +0.052 C 
ATOM     15  C   UNL     1      36.761 -24.756 -14.394  0.00  0.00    +0.031 C 
ATOM     16  C   UNL     1      38.053 -23.340 -15.863  0.00  0.00    +0.015 C 
ATOM     17  C   UNL     1      35.651 -23.096 -15.754  0.00  0.00    +0.015 C 
ATOM     18  C   UNL     1      37.992 -24.365 -14.920  0.00  0.00    +0.004 C 
ATOM     19  C   UNL     1      35.590 -24.122 -14.811  0.00  0.00    +0.004 C 
BRANCH  15  22
ATOM     20  N   UNL     1      36.926 -27.153 -13.766  0.00  0.00    -0.343 N 
ATOM     21  N   UNL     1      36.413 -25.543 -12.151  0.00  0.00    -0.285 NA
ATOM     22  C   UNL     1      36.697 -25.825 -13.410  0.00  0.00    +0.117 C 
ATOM     23  H   UNL     1      36.877 -27.861 -13.083  0.00  0.00    +0.144 HD
ATOM     24  H   UNL     1      37.135 -27.383 -14.699  0.00  0.00    +0.144 HD
ATOM     25  H   UNL     1      36.370 -26.266 -11.482  0.00  0.00    +0.188 HD
ENDBRANCH  15  22
ENDBRANCH   2  14
TORSDOF 3
ENDMDL
MODEL 8
REMARK VINA RESULT:      -9.0      5.540      9.966
REMARK  Name = 2014
REMARK  3 active torsions:
REMARK  status: ('A' for Active; 'I' for Inactive)
REMARK    1  A    between atoms: N_2  and  C_14
REMARK    2  A    between atoms: N_3  and  C_8
REMARK    3  A    between atoms: C_15  and  C_22
REMARK                            x       y       z     vdW  Elec       q    Type
REMARK                         _______ _______ _______ _____ _____    ______ ____
ROOT
ATOM      1  O   UNL     1      34.301 -15.155 -20.845  0.00  0.00    -0.252 OA
ATOM      2  N   UNL     1      33.199 -14.742 -22.871  0.00  0.00    -0.268 N 
ATOM      3  N   UNL     1      33.942 -16.876 -22.389  0.00  0.00    -0.268 N 
ATOM      4  C   UNL     1      33.863 -15.554 -21.919  0.00  0.00    +0.308 C 
ATOM      5  H   UNL     1      32.902 -15.201 -23.690  0.00  0.00    +0.156 HD
ATOM      6  H   UNL     1      33.544 -17.044 -23.273  0.00  0.00    +0.156 HD
ENDROOT
BRANCH   3   8
ATOM      7 CL   UNL     1      36.374 -21.543 -19.709  0.00  0.00    -0.082 Cl
ATOM      8  C   UNL     1      34.525 -17.993 -21.747  0.00  0.00    +0.052 C 
ATOM      9  C   UNL     1      33.706 -19.001 -21.263  0.00  0.00    +0.016 C 
ATOM     10  C   UNL     1      35.903 -18.059 -21.616  0.00  0.00    +0.016 C 
ATOM     11  C   UNL     1      34.280 -20.102 -20.631  0.00  0.00    +0.013 C 
ATOM     12  C   UNL     1      36.477 -19.162 -20.983  0.00  0.00    +0.013 C 
ATOM     13  C   UNL     1      35.666 -20.183 -20.491  0.00  0.00    +0.058 C 
ENDBRANCH   3   8
BRANCH   2  14
ATOM     14  C   UNL     1      32.911 -13.378 -22.802  0.00  0.00    +0.052 C 
ATOM     15  C   UNL     1      32.334 -10.653 -22.664  0.00  0.00    +0.031 C 
ATOM     16  C   UNL     1      33.591 -12.479 -23.623  0.00  0.00    +0.015 C 
ATOM     17  C   UNL     1      31.942 -12.916 -21.911  0.00  0.00    +0.015 C 
ATOM     18  C   UNL     1      33.302 -11.116 -23.554  0.00  0.00    +0.004 C 
ATOM     19  C   UNL     1      31.653 -11.553 -21.842  0.00  0.00    +0.004 C 
BRANCH  15  22
ATOM     20  N   UNL     1      32.488  -8.446 -21.536  0.00  0.00    -0.343 N 
ATOM     21  N   UNL     1      31.307  -8.665 -23.541  0.00  0.00    -0.285 NA
ATOM     22  C   UNL     1      32.032  -9.232 -22.592  0.00  0.00    +0.117 C 
ATOM     23  H   UNL     1      32.272  -7.487 -21.507  0.00  0.00    +0.144 HD
ATOM     24  H   UNL     1      33.027  -8.851 -20.819  0.00  0.00    +0.144 HD
ATOM     25  H   UNL     1      31.102  -7.703 -23.494  0.00  0.00    +0.188 HD
ENDBRANCH  15  22
ENDBRANCH   2  14
TORSDOF 3
ENDMDL
MODEL 9
REMARK VINA RESULT:      -9.0      7.767     10.730
REMARK  Name = 2014
REMARK  3 active torsions:
REMARK  status: ('A' for Active; 'I' for Inactive)
REMARK    1  A    between atoms: N_2  and  C_14
REMARK    2  A    between atoms: N_3  and  C_8
REMARK    3  A    between atoms: C_15  and  C_22
REMARK                            x       y       z     vdW  Elec       q    Type
REMARK                         _______ _______ _______ _____ _____    ______ ____
ROOT
ATOM      1  O   UNL     1      33.491  -9.843 -23.147  0.00  0.00    -0.252 OA
ATOM      2  N   UNL     1      31.850 -11.404 -22.547  0.00  0.00    -0.268 N 
ATOM      3  N   UNL     1      31.287  -9.172 -22.743  0.00  0.00    -0.268 N 
ATOM      4  C   UNL     1      32.331 -10.106 -22.845  0.00  0.00    +0.308 C 
ATOM      5  H   UNL     1      30.894 -11.463 -22.321  0.00  0.00    +0.156 HD
ATOM      6  H   UNL     1      30.407  -9.535 -22.490  0.00  0.00    +0.156 HD
ENDROOT
BRANCH   3   8
ATOM      7 CL   UNL     1      31.526  -3.341 -23.643  0.00  0.00    -0.082 Cl
ATOM      8  C   UNL     1      31.344  -7.776 -22.958  0.00  0.00    +0.052 C 
ATOM      9  C   UNL     1      31.069  -7.272 -24.219  0.00  0.00    +0.016 C 
ATOM     10  C   UNL     1      31.673  -6.939 -21.904  0.00  0.00    +0.016 C 
ATOM     11  C   UNL     1      31.125  -5.895 -24.431  0.00  0.00    +0.013 C 
ATOM     12  C   UNL     1      31.730  -5.562 -22.116  0.00  0.00    +0.013 C 
ATOM     13  C   UNL     1      31.456  -5.040 -23.380  0.00  0.00    +0.058 C 
ENDBRANCH   3   8
BRANCH   2  14
ATOM     14  C   UNL     1      32.551 -12.611 -22.532  0.00  0.00    +0.052 C 
ATOM     15  C   UNL     1      33.952 -15.022 -22.500  0.00  0.00    +0.031 C 
ATOM     16  C   UNL     1      33.346 -12.970 -23.620  0.00  0.00    +0.015 C 
ATOM     17  C   UNL     1      32.457 -13.457 -21.427  0.00  0.00    +0.015 C 
ATOM     18  C   UNL     1      34.046 -14.176 -23.604  0.00  0.00    +0.004 C 
ATOM     19  C   UNL     1      33.157 -14.663 -21.411  0.00  0.00    +0.004 C 
BRANCH  15  22
ATOM     20  N   UNL     1      35.547 -16.630 -23.518  0.00  0.00    -0.343 N 
ATOM     21  N   UNL     1      34.530 -17.115 -21.471  0.00  0.00    -0.285 NA
ATOM     22  C   UNL     1      34.683 -16.279 -22.482  0.00  0.00    +0.117 C 
ATOM     23  H   UNL     1      36.031 -17.486 -23.486  0.00  0.00    +0.144 HD
ATOM     24  H   UNL     1      35.672 -16.023 -24.282  0.00  0.00    +0.144 HD
ATOM     25  H   UNL     1      35.024 -17.967 -21.457  0.00  0.00    +0.188 HD
ENDBRANCH  15  22
ENDBRANCH   2  14
TORSDOF 3
ENDMDL
