MODEL 1
REMARK VINA RESULT:      -9.7      0.000      0.000
REMARK  Name = 657095
REMARK  3 active torsions:
REMARK  status: ('A' for Active; 'I' for Inactive)
REMARK    1  A    between atoms: N_1  and  C_18
REMARK    2  A    between atoms: C_7  and  C_10
REMARK    3  A    between atoms: C_13  and  O_16
REMARK                            x       y       z     vdW  Elec       q    Type
REMARK                         _______ _______ _______ _____ _____    ______ ____
ROOT
ATOM      1  N   UNL     1      34.145 -16.079 -22.073  0.00  0.00    -0.201 N 
ATOM      2  N   UNL     1      34.313 -16.942 -21.082  0.00  0.00    -0.181 NA
ATOM      3  N   UNL     1      34.140 -15.900 -24.479  0.00  0.00    -0.232 NA
ATOM      4  N   UNL     1      34.611 -18.062 -25.505  0.00  0.00    -0.234 NA
ATOM      5  C   UNL     1      34.262 -16.558 -23.315  0.00  0.00    +0.137 C 
ATOM      6  C   UNL     1      34.544 -17.901 -23.143  0.00  0.00    +0.150 C 
ATOM      7  C   UNL     1      34.562 -18.075 -21.748  0.00  0.00    +0.090 C 
ATOM      8  C   UNL     1      34.721 -18.662 -24.295  0.00  0.00    +0.112 C 
ATOM      9  C   UNL     1      34.330 -16.737 -25.521  0.00  0.00    +0.252 C 
ATOM     10  N   UNL     1      35.009 -20.036 -24.224  0.00  0.00    -0.346 N 
ATOM     11  H   UNL     1      35.130 -20.558 -25.051  0.00  0.00    +0.143 HD
ATOM     12  H   UNL     1      35.089 -20.479 -23.347  0.00  0.00    +0.143 HD
ENDROOT
BRANCH   7  13
ATOM     13  C   UNL     1      34.810 -19.294 -21.019  0.00  0.00    +0.019 C 
ATOM     14  C   UNL     1      33.740 -20.077 -20.593  0.00  0.00    +0.038 C 
ATOM     15  C   UNL     1      36.119 -19.682 -20.746  0.00  0.00    +0.001 C 
ATOM     16  C   UNL     1      33.981 -21.257 -19.889  0.00  0.00    +0.134 C 
ATOM     17  C   UNL     1      36.360 -20.862 -20.042  0.00  0.00    +0.003 C 
ATOM     18  C   UNL     1      35.291 -21.650 -19.614  0.00  0.00    +0.037 C 
BRANCH  16  19
ATOM     19  O   UNL     1      32.938 -22.026 -19.472  0.00  0.00    -0.506 OA
ATOM     20  H   UNL     1      32.339 -22.383 -20.099  0.00  0.00    +0.292 HD
ENDBRANCH  16  19
ENDBRANCH   7  13
BRANCH   1  21
ATOM     21  C   UNL     1      33.841 -14.665 -21.718  0.00  0.00    +0.081 C 
ATOM     22  C   UNL     1      34.654 -14.254 -20.471  0.00  0.00    +0.022 C 
ATOM     23  C   UNL     1      32.331 -14.515 -21.427  0.00  0.00    +0.022 C 
ATOM     24  C   UNL     1      34.186 -13.648 -22.834  0.00  0.00    +0.022 C 
ENDBRANCH   1  21
TORSDOF 3
ENDMDL
MODEL 2
REMARK VINA RESULT:      -9.5      8.240     10.682
REMARK  Name = 657095
REMARK  3 active torsions:
REMARK  status: ('A' for Active; 'I' for Inactive)
REMARK    1  A    between atoms: N_1  and  C_18
REMARK    2  A    between atoms: C_7  and  C_10
REMARK    3  A    between atoms: C_13  and  O_16
REMARK                            x       y       z     vdW  Elec       q    Type
REMARK                         _______ _______ _______ _____ _____    ______ ____
ROOT
ATOM      1  N   UNL     1      35.484 -23.875 -13.093  0.00  0.00    -0.201 N 
ATOM      2  N   UNL     1      34.185 -24.058 -12.907  0.00  0.00    -0.181 NA
ATOM      3  N   UNL     1      37.114 -23.248 -14.758  0.00  0.00    -0.232 NA
ATOM      4  N   UNL     1      36.026 -22.767 -16.888  0.00  0.00    -0.234 NA
ATOM      5  C   UNL     1      35.871 -23.496 -14.315  0.00  0.00    +0.137 C 
ATOM      6  C   UNL     1      34.695 -23.415 -15.040  0.00  0.00    +0.150 C 
ATOM      7  C   UNL     1      33.695 -23.772 -14.118  0.00  0.00    +0.090 C 
ATOM      8  C   UNL     1      34.801 -23.034 -16.374  0.00  0.00    +0.112 C 
ATOM      9  C   UNL     1      37.090 -22.888 -16.060  0.00  0.00    +0.252 C 
ATOM     10  N   UNL     1      33.664 -22.921 -17.193  0.00  0.00    -0.346 N 
ATOM     11  H   UNL     1      33.760 -22.649 -18.135  0.00  0.00    +0.143 HD
ATOM     12  H   UNL     1      32.770 -23.112 -16.825  0.00  0.00    +0.143 HD
ENDROOT
BRANCH   7  13
ATOM     13  C   UNL     1      32.275 -23.851 -14.352  0.00  0.00    +0.019 C 
ATOM     14  C   UNL     1      31.640 -25.090 -14.347  0.00  0.00    +0.038 C 
ATOM     15  C   UNL     1      31.546 -22.687 -14.583  0.00  0.00    +0.001 C 
ATOM     16  C   UNL     1      30.265 -25.166 -14.573  0.00  0.00    +0.134 C 
ATOM     17  C   UNL     1      30.171 -22.763 -14.808  0.00  0.00    +0.003 C 
ATOM     18  C   UNL     1      29.531 -24.003 -14.803  0.00  0.00    +0.037 C 
BRANCH  16  19
ATOM     19  O   UNL     1      29.640 -26.375 -14.567  0.00  0.00    -0.506 OA
ATOM     20  H   UNL     1      30.014 -27.098 -15.031  0.00  0.00    +0.292 HD
ENDBRANCH  16  19
ENDBRANCH   7  13
BRANCH   1  21
ATOM     21  C   UNL     1      36.391 -24.104 -11.934  0.00  0.00    +0.081 C 
ATOM     22  C   UNL     1      37.344 -25.280 -12.242  0.00  0.00    +0.022 C 
ATOM     23  C   UNL     1      35.555 -24.430 -10.676  0.00  0.00    +0.022 C 
ATOM     24  C   UNL     1      37.279 -22.887 -11.579  0.00  0.00    +0.022 C 
ENDBRANCH   1  21
TORSDOF 3
ENDMDL
MODEL 3
REMARK VINA RESULT:      -9.3      8.191     10.666
REMARK  Name = 657095
REMARK  3 active torsions:
REMARK  status: ('A' for Active; 'I' for Inactive)
REMARK    1  A    between atoms: N_1  and  C_18
REMARK    2  A    between atoms: C_7  and  C_10
REMARK    3  A    between atoms: C_13  and  O_16
REMARK                            x       y       z     vdW  Elec       q    Type
REMARK                         _______ _______ _______ _____ _____    ______ ____
ROOT
ATOM      1  N   UNL     1      35.220 -23.983 -13.169  0.00  0.00    -0.201 N 
ATOM      2  N   UNL     1      33.929 -24.210 -12.978  0.00  0.00    -0.181 NA
ATOM      3  N   UNL     1      36.818 -23.273 -14.832  0.00  0.00    -0.232 NA
ATOM      4  N   UNL     1      35.701 -22.786 -16.945  0.00  0.00    -0.234 NA
ATOM      5  C   UNL     1      35.587 -23.569 -14.385  0.00  0.00    +0.137 C 
ATOM      6  C   UNL     1      34.404 -23.510 -15.102  0.00  0.00    +0.150 C 
ATOM      7  C   UNL     1      33.422 -23.916 -14.181  0.00  0.00    +0.090 C 
ATOM      8  C   UNL     1      34.489 -23.101 -16.429  0.00  0.00    +0.112 C 
ATOM      9  C   UNL     1      36.775 -22.890 -16.126  0.00  0.00    +0.252 C 
ATOM     10  N   UNL     1      33.343 -23.008 -17.238  0.00  0.00    -0.346 N 
ATOM     11  H   UNL     1      33.425 -22.715 -18.175  0.00  0.00    +0.143 HD
ATOM     12  H   UNL     1      32.458 -23.235 -16.868  0.00  0.00    +0.143 HD
ENDROOT
BRANCH   7  13
ATOM     13  C   UNL     1      32.003 -24.036 -14.408  0.00  0.00    +0.019 C 
ATOM     14  C   UNL     1      31.238 -22.894 -14.625  0.00  0.00    +0.038 C 
ATOM     15  C   UNL     1      31.407 -25.294 -14.409  0.00  0.00    +0.001 C 
ATOM     16  C   UNL     1      29.865 -23.010 -14.846  0.00  0.00    +0.134 C 
ATOM     17  C   UNL     1      30.034 -25.411 -14.630  0.00  0.00    +0.003 C 
ATOM     18  C   UNL     1      29.263 -24.269 -14.849  0.00  0.00    +0.037 C 
BRANCH  16  19
ATOM     19  O   UNL     1      29.113 -21.896 -15.059  0.00  0.00    -0.506 OA
ATOM     20  H   UNL     1      28.334 -21.753 -14.557  0.00  0.00    +0.292 HD
ENDBRANCH  16  19
ENDBRANCH   7  13
BRANCH   1  21
ATOM     21  C   UNL     1      36.141 -24.206 -12.020  0.00  0.00    +0.081 C 
ATOM     22  C   UNL     1      37.057 -25.415 -12.312  0.00  0.00    +0.022 C 
ATOM     23  C   UNL     1      35.320 -24.474 -10.739  0.00  0.00    +0.022 C 
ATOM     24  C   UNL     1      37.069 -23.004 -11.715  0.00  0.00    +0.022 C 
ENDBRANCH   1  21
TORSDOF 3
ENDMDL
MODEL 4
REMARK VINA RESULT:      -9.2      7.395     10.091
REMARK  Name = 657095
REMARK  3 active torsions:
REMARK  status: ('A' for Active; 'I' for Inactive)
REMARK    1  A    between atoms: N_1  and  C_18
REMARK    2  A    between atoms: C_7  and  C_10
REMARK    3  A    between atoms: C_13  and  O_16
REMARK                            x       y       z     vdW  Elec       q    Type
REMARK                         _______ _______ _______ _____ _____    ______ ____
ROOT
ATOM      1  N   UNL     1      32.407 -23.959 -14.882  0.00  0.00    -0.201 N 
ATOM      2  N   UNL     1      33.199 -24.305 -13.878  0.00  0.00    -0.181 NA
ATOM      3  N   UNL     1      32.431 -23.067 -17.124  0.00  0.00    -0.232 NA
ATOM      4  N   UNL     1      34.717 -22.623 -17.850  0.00  0.00    -0.234 NA
ATOM      5  C   UNL     1      33.000 -23.483 -15.981  0.00  0.00    +0.137 C 
ATOM      6  C   UNL     1      34.351 -23.508 -15.684  0.00  0.00    +0.150 C 
ATOM      7  C   UNL     1      34.408 -24.024 -14.377  0.00  0.00    +0.090 C 
ATOM      8  C   UNL     1      35.223 -23.057 -16.670  0.00  0.00    +0.112 C 
ATOM      9  C   UNL     1      33.372 -22.655 -18.001  0.00  0.00    +0.252 C 
ATOM     10  N   UNL     1      36.614 -23.046 -16.464  0.00  0.00    -0.346 N 
ATOM     11  H   UNL     1      37.215 -22.723 -17.175  0.00  0.00    +0.143 HD
ATOM     12  H   UNL     1      36.989 -23.361 -15.609  0.00  0.00    +0.143 HD
ENDROOT
BRANCH   7  13
ATOM     13  C   UNL     1      35.584 -24.261 -13.578  0.00  0.00    +0.019 C 
ATOM     14  C   UNL     1      35.932 -23.363 -12.573  0.00  0.00    +0.038 C 
ATOM     15  C   UNL     1      36.367 -25.388 -13.817  0.00  0.00    +0.001 C 
ATOM     16  C   UNL     1      37.071 -23.594 -11.800  0.00  0.00    +0.134 C 
ATOM     17  C   UNL     1      37.505 -25.619 -13.044  0.00  0.00    +0.003 C 
ATOM     18  C   UNL     1      37.857 -24.722 -12.035  0.00  0.00    +0.037 C 
BRANCH  16  19
ATOM     19  O   UNL     1      37.414 -22.719 -10.815  0.00  0.00    -0.506 OA
ATOM     20  H   UNL     1      36.909 -21.939 -10.685  0.00  0.00    +0.292 HD
ENDBRANCH  16  19
ENDBRANCH   7  13
BRANCH   1  21
ATOM     21  C   UNL     1      30.939 -24.132 -14.700  0.00  0.00    +0.081 C 
ATOM     22  C   UNL     1      30.227 -22.775 -14.891  0.00  0.00    +0.022 C 
ATOM     23  C   UNL     1      30.651 -24.674 -13.283  0.00  0.00    +0.022 C 
ATOM     24  C   UNL     1      30.293 -25.122 -15.700  0.00  0.00    +0.022 C 
ENDBRANCH   1  21
TORSDOF 3
ENDMDL
MODEL 5
REMARK VINA RESULT:      -9.0      6.426      9.245
REMARK  Name = 657095
REMARK  3 active torsions:
REMARK  status: ('A' for Active; 'I' for Inactive)
REMARK    1  A    between atoms: N_1  and  C_18
REMARK    2  A    between atoms: C_7  and  C_10
REMARK    3  A    between atoms: C_13  and  O_16
REMARK                            x       y       z     vdW  Elec       q    Type
REMARK                         _______ _______ _______ _____ _____    ______ ____
ROOT
ATOM      1  N   UNL     1      34.322 -22.859 -17.507  0.00  0.00    -0.201 N 
ATOM      2  N   UNL     1      35.465 -23.128 -16.894  0.00  0.00    -0.181 NA
ATOM      3  N   UNL     1      31.928 -22.937 -17.219  0.00  0.00    -0.232 NA
ATOM      4  N   UNL     1      31.353 -23.831 -15.023  0.00  0.00    -0.234 NA
ATOM      5  C   UNL     1      33.200 -23.118 -16.829  0.00  0.00    +0.137 C 
ATOM      6  C   UNL     1      33.636 -23.624 -15.617  0.00  0.00    +0.150 C 
ATOM      7  C   UNL     1      35.039 -23.605 -15.720  0.00  0.00    +0.090 C 
ATOM      8  C   UNL     1      32.659 -23.987 -14.696  0.00  0.00    +0.112 C 
ATOM      9  C   UNL     1      31.074 -23.322 -16.247  0.00  0.00    +0.252 C 
ATOM     10  N   UNL     1      33.002 -24.509 -13.436  0.00  0.00    -0.346 N 
ATOM     11  H   UNL     1      32.295 -24.759 -12.798  0.00  0.00    +0.143 HD
ATOM     12  H   UNL     1      33.949 -24.624 -13.192  0.00  0.00    +0.143 HD
ENDROOT
BRANCH   7  13
ATOM     13  C   UNL     1      35.996 -24.029 -14.729  0.00  0.00    +0.019 C 
ATOM     14  C   UNL     1      36.498 -23.109 -13.813  0.00  0.00    +0.038 C 
ATOM     15  C   UNL     1      36.412 -25.357 -14.692  0.00  0.00    +0.001 C 
ATOM     16  C   UNL     1      37.424 -23.520 -12.853  0.00  0.00    +0.134 C 
ATOM     17  C   UNL     1      37.337 -25.768 -13.732  0.00  0.00    +0.003 C 
ATOM     18  C   UNL     1      37.843 -24.850 -12.812  0.00  0.00    +0.037 C 
BRANCH  16  19
ATOM     19  O   UNL     1      37.917 -22.624 -11.955  0.00  0.00    -0.506 OA
ATOM     20  H   UNL     1      38.428 -21.896 -12.252  0.00  0.00    +0.292 HD
ENDBRANCH  16  19
ENDBRANCH   7  13
BRANCH   1  21
ATOM     21  C   UNL     1      34.388 -22.293 -18.883  0.00  0.00    +0.081 C 
ATOM     22  C   UNL     1      34.258 -23.430 -19.920  0.00  0.00    +0.022 C 
ATOM     23  C   UNL     1      35.734 -21.561 -19.081  0.00  0.00    +0.022 C 
ATOM     24  C   UNL     1      33.269 -21.270 -19.197  0.00  0.00    +0.022 C 
ENDBRANCH   1  21
TORSDOF 3
ENDMDL
MODEL 6
REMARK VINA RESULT:      -8.5      0.937      1.038
REMARK  Name = 657095
REMARK  3 active torsions:
REMARK  status: ('A' for Active; 'I' for Inactive)
REMARK    1  A    between atoms: N_1  and  C_18
REMARK    2  A    between atoms: C_7  and  C_10
REMARK    3  A    between atoms: C_13  and  O_16
REMARK                            x       y       z     vdW  Elec       q    Type
REMARK                         _______ _______ _______ _____ _____    ______ ____
ROOT
ATOM      1  N   UNL     1      33.541 -15.420 -22.166  0.00  0.00    -0.201 N 
ATOM      2  N   UNL     1      33.738 -16.314 -21.208  0.00  0.00    -0.181 NA
ATOM      3  N   UNL     1      33.579 -15.137 -24.562  0.00  0.00    -0.232 NA
ATOM      4  N   UNL     1      34.204 -17.221 -25.665  0.00  0.00    -0.234 NA
ATOM      5  C   UNL     1      33.715 -15.836 -23.424  0.00  0.00    +0.137 C 
ATOM      6  C   UNL     1      34.074 -17.167 -23.302  0.00  0.00    +0.150 C 
ATOM      7  C   UNL     1      34.071 -17.400 -21.915  0.00  0.00    +0.090 C 
ATOM      8  C   UNL     1      34.323 -17.865 -24.479  0.00  0.00    +0.112 C 
ATOM      9  C   UNL     1      33.844 -15.916 -25.633  0.00  0.00    +0.252 C 
ATOM     10  N   UNL     1      34.692 -19.222 -24.459  0.00  0.00    -0.346 N 
ATOM     11  H   UNL     1      34.863 -19.698 -25.305  0.00  0.00    +0.143 HD
ATOM     12  H   UNL     1      34.779 -19.696 -23.600  0.00  0.00    +0.143 HD
ENDROOT
BRANCH   7  13
ATOM     13  C   UNL     1      34.376 -18.632 -21.232  0.00  0.00    +0.019 C 
ATOM     14  C   UNL     1      33.343 -19.435 -20.756  0.00  0.00    +0.038 C 
ATOM     15  C   UNL     1      35.703 -19.014 -21.053  0.00  0.00    +0.001 C 
ATOM     16  C   UNL     1      33.639 -20.628 -20.096  0.00  0.00    +0.134 C 
ATOM     17  C   UNL     1      35.999 -20.207 -20.394  0.00  0.00    +0.003 C 
ATOM     18  C   UNL     1      34.967 -21.015 -19.916  0.00  0.00    +0.037 C 
BRANCH  16  19
ATOM     19  O   UNL     1      32.632 -21.417 -19.630  0.00  0.00    -0.506 OA
ATOM     20  H   UNL     1      32.485 -21.493 -18.707  0.00  0.00    +0.292 HD
ENDBRANCH  16  19
ENDBRANCH   7  13
BRANCH   1  21
ATOM     21  C   UNL     1      33.143 -14.044 -21.760  0.00  0.00    +0.081 C 
ATOM     22  C   UNL     1      34.375 -13.112 -21.800  0.00  0.00    +0.022 C 
ATOM     23  C   UNL     1      32.559 -14.071 -20.330  0.00  0.00    +0.022 C 
ATOM     24  C   UNL     1      32.068 -13.404 -22.672  0.00  0.00    +0.022 C 
ENDBRANCH   1  21
TORSDOF 3
ENDMDL
MODEL 7
REMARK VINA RESULT:      -8.5      5.624      9.220
REMARK  Name = 657095
REMARK  3 active torsions:
REMARK  status: ('A' for Active; 'I' for Inactive)
REMARK    1  A    between atoms: N_1  and  C_18
REMARK    2  A    between atoms: C_7  and  C_10
REMARK    3  A    between atoms: C_13  and  O_16
REMARK                            x       y       z     vdW  Elec       q    Type
REMARK                         _______ _______ _______ _____ _____    ______ ____
ROOT
ATOM      1  N   UNL     1      35.503 -23.866 -15.493  0.00  0.00    -0.201 N 
ATOM      2  N   UNL     1      35.933 -23.188 -16.547  0.00  0.00    -0.181 NA
ATOM      3  N   UNL     1      33.496 -24.588 -14.366  0.00  0.00    -0.232 NA
ATOM      4  N   UNL     1      31.513 -23.811 -15.556  0.00  0.00    -0.234 NA
ATOM      5  C   UNL     1      34.179 -23.963 -15.337  0.00  0.00    +0.137 C 
ATOM      6  C   UNL     1      33.653 -23.266 -16.411  0.00  0.00    +0.150 C 
ATOM      7  C   UNL     1      34.782 -22.814 -17.117  0.00  0.00    +0.090 C 
ATOM      8  C   UNL     1      32.266 -23.201 -16.503  0.00  0.00    +0.112 C 
ATOM      9  C   UNL     1      32.166 -24.457 -14.561  0.00  0.00    +0.252 C 
ATOM     10  N   UNL     1      31.636 -22.518 -17.558  0.00  0.00    -0.346 N 
ATOM     11  H   UNL     1      30.653 -22.484 -17.605  0.00  0.00    +0.143 HD
ATOM     12  H   UNL     1      32.178 -22.074 -18.251  0.00  0.00    +0.143 HD
ENDROOT
BRANCH   7  13
ATOM     13  C   UNL     1      34.804 -22.031 -18.327  0.00  0.00    +0.019 C 
ATOM     14  C   UNL     1      33.609 -21.707 -18.965  0.00  0.00    +0.038 C 
ATOM     15  C   UNL     1      36.020 -21.602 -18.852  0.00  0.00    +0.001 C 
ATOM     16  C   UNL     1      33.631 -20.949 -20.135  0.00  0.00    +0.134 C 
ATOM     17  C   UNL     1      36.042 -20.844 -20.023  0.00  0.00    +0.003 C 
ATOM     18  C   UNL     1      34.847 -20.516 -20.664  0.00  0.00    +0.037 C 
BRANCH  16  19
ATOM     19  O   UNL     1      32.465 -20.629 -20.761  0.00  0.00    -0.506 OA
ATOM     20  H   UNL     1      32.381 -19.806 -21.202  0.00  0.00    +0.292 HD
ENDBRANCH  16  19
ENDBRANCH   7  13
BRANCH   1  21
ATOM     21  C   UNL     1      36.524 -24.458 -14.585  0.00  0.00    +0.081 C 
ATOM     22  C   UNL     1      37.930 -23.960 -14.986  0.00  0.00    +0.022 C 
ATOM     23  C   UNL     1      36.473 -25.999 -14.679  0.00  0.00    +0.022 C 
ATOM     24  C   UNL     1      36.327 -24.092 -13.093  0.00  0.00    +0.022 C 
ENDBRANCH   1  21
TORSDOF 3
ENDMDL
MODEL 8
REMARK VINA RESULT:      -8.4      4.170      7.552
REMARK  Name = 657095
REMARK  3 active torsions:
REMARK  status: ('A' for Active; 'I' for Inactive)
REMARK    1  A    between atoms: N_1  and  C_18
REMARK    2  A    between atoms: C_7  and  C_10
REMARK    3  A    between atoms: C_13  and  O_16
REMARK                            x       y       z     vdW  Elec       q    Type
REMARK                         _______ _______ _______ _____ _____    ______ ____
ROOT
ATOM      1  N   UNL     1      33.740 -14.559 -22.737  0.00  0.00    -0.201 N 
ATOM      2  N   UNL     1      33.754 -13.275 -22.411  0.00  0.00    -0.181 NA
ATOM      3  N   UNL     1      33.601 -16.057 -24.623  0.00  0.00    -0.232 NA
ATOM      4  N   UNL     1      33.414 -14.803 -26.707  0.00  0.00    -0.234 NA
ATOM      5  C   UNL     1      33.637 -14.850 -24.037  0.00  0.00    +0.137 C 
ATOM      6  C   UNL     1      33.570 -13.618 -24.663  0.00  0.00    +0.150 C 
ATOM      7  C   UNL     1      33.647 -12.690 -23.609  0.00  0.00    +0.090 C 
ATOM      8  C   UNL     1      33.454 -13.619 -26.050  0.00  0.00    +0.112 C 
ATOM      9  C   UNL     1      33.489 -15.932 -25.963  0.00  0.00    +0.252 C 
ATOM     10  N   UNL     1      33.381 -12.418 -26.777  0.00  0.00    -0.346 N 
ATOM     11  H   UNL     1      33.301 -12.440 -27.759  0.00  0.00    +0.143 HD
ATOM     12  H   UNL     1      33.412 -11.553 -26.305  0.00  0.00    +0.143 HD
ENDROOT
BRANCH   7  13
ATOM     13  C   UNL     1      33.622 -11.252 -23.704  0.00  0.00    +0.019 C 
ATOM     14  C   UNL     1      32.517 -10.545 -23.238  0.00  0.00    +0.038 C 
ATOM     15  C   UNL     1      34.706 -10.576 -24.260  0.00  0.00    +0.001 C 
ATOM     16  C   UNL     1      32.494  -9.153 -23.329  0.00  0.00    +0.134 C 
ATOM     17  C   UNL     1      34.683  -9.184 -24.351  0.00  0.00    +0.003 C 
ATOM     18  C   UNL     1      33.577  -8.473 -23.885  0.00  0.00    +0.037 C 
BRANCH  16  19
ATOM     19  O   UNL     1      31.416  -8.459 -22.874  0.00  0.00    -0.506 OA
ATOM     20  H   UNL     1      30.575  -8.873 -22.832  0.00  0.00    +0.292 HD
ENDBRANCH  16  19
ENDBRANCH   7  13
BRANCH   1  21
ATOM     21  C   UNL     1      33.844 -15.556 -21.636  0.00  0.00    +0.081 C 
ATOM     22  C   UNL     1      32.432 -15.913 -21.121  0.00  0.00    +0.022 C 
ATOM     23  C   UNL     1      34.685 -14.969 -20.480  0.00  0.00    +0.022 C 
ATOM     24  C   UNL     1      34.520 -16.886 -22.052  0.00  0.00    +0.022 C 
ENDBRANCH   1  21
TORSDOF 3
ENDMDL
MODEL 9
REMARK VINA RESULT:      -8.3      5.930      9.611
REMARK  Name = 657095
REMARK  3 active torsions:
REMARK  status: ('A' for Active; 'I' for Inactive)
REMARK    1  A    between atoms: N_1  and  C_18
REMARK    2  A    between atoms: C_7  and  C_10
REMARK    3  A    between atoms: C_13  and  O_16
REMARK                            x       y       z     vdW  Elec       q    Type
REMARK                         _______ _______ _______ _____ _____    ______ ____
ROOT
ATOM      1  N   UNL     1      35.402 -24.176 -15.365  0.00  0.00    -0.201 N 
ATOM      2  N   UNL     1      35.784 -23.500 -16.439  0.00  0.00    -0.181 NA
ATOM      3  N   UNL     1      33.454 -24.806 -14.088  0.00  0.00    -0.232 NA
ATOM      4  N   UNL     1      31.430 -23.890 -15.096  0.00  0.00    -0.234 NA
ATOM      5  C   UNL     1      34.092 -24.200 -15.102  0.00  0.00    +0.137 C 
ATOM      6  C   UNL     1      33.522 -23.450 -16.116  0.00  0.00    +0.150 C 
ATOM      7  C   UNL     1      34.614 -23.048 -16.905  0.00  0.00    +0.090 C 
ATOM      8  C   UNL     1      32.138 -23.303 -16.091  0.00  0.00    +0.112 C 
ATOM      9  C   UNL     1      32.123 -24.595 -14.170  0.00  0.00    +0.252 C 
ATOM     10  N   UNL     1      31.466 -22.561 -17.078  0.00  0.00    -0.346 N 
ATOM     11  H   UNL     1      30.485 -22.470 -17.043  0.00  0.00    +0.143 HD
ATOM     12  H   UNL     1      31.974 -22.134 -17.806  0.00  0.00    +0.143 HD
ENDROOT
BRANCH   7  13
ATOM     13  C   UNL     1      34.583 -22.241 -18.099  0.00  0.00    +0.019 C 
ATOM     14  C   UNL     1      35.737 -21.588 -18.525  0.00  0.00    +0.038 C 
ATOM     15  C   UNL     1      33.398 -22.119 -18.821  0.00  0.00    +0.001 C 
ATOM     16  C   UNL     1      35.706 -20.808 -19.681  0.00  0.00    +0.134 C 
ATOM     17  C   UNL     1      33.368 -21.338 -19.977  0.00  0.00    +0.003 C 
ATOM     18  C   UNL     1      34.522 -20.684 -20.407  0.00  0.00    +0.037 C 
BRANCH  16  19
ATOM     19  O   UNL     1      36.832 -20.170 -20.102  0.00  0.00    -0.506 OA
ATOM     20  H   UNL     1      37.042 -19.320 -19.766  0.00  0.00    +0.292 HD
ENDBRANCH  16  19
ENDBRANCH   7  13
BRANCH   1  21
ATOM     21  C   UNL     1      36.457 -24.846 -14.556  0.00  0.00    +0.081 C 
ATOM     22  C   UNL     1      37.820 -24.165 -14.809  0.00  0.00    +0.022 C 
ATOM     23  C   UNL     1      36.542 -26.339 -14.944  0.00  0.00    +0.022 C 
ATOM     24  C   UNL     1      36.206 -24.793 -13.028  0.00  0.00    +0.022 C 
ENDBRANCH   1  21
TORSDOF 3
ENDMDL
