MODEL 1
REMARK VINA RESULT:      -8.7      0.000      0.000
REMARK  Name = 6603746
REMARK  7 active torsions:
REMARK  status: ('A' for Active; 'I' for Inactive)
REMARK    1  A    between atoms: C_1  and  C_14
REMARK    2  A    between atoms: C_4  and  O_9
REMARK    3  A    between atoms: C_5  and  O_7
REMARK    4  A    between atoms: O_9  and  C_10
REMARK    5  A    between atoms: C_10  and  C_11
REMARK    6  A    between atoms: C_11  and  C_12
REMARK    7  A    between atoms: C_14  and  C_18
REMARK                            x       y       z     vdW  Elec       q    Type
REMARK                         _______ _______ _______ _____ _____    ______ ____
ROOT
ATOM      1  C   UNL     1      34.222 -23.394 -15.341  0.00  0.00    -0.017 C 
ATOM      2  C   UNL     1      34.088 -23.132 -16.697  0.00  0.00    +0.036 C 
ATOM      3  C   UNL     1      33.112 -23.449 -14.510  0.00  0.00    -0.001 C 
ATOM      4  C   UNL     1      32.818 -22.920 -17.233  0.00  0.00    +0.172 C 
ATOM      5  C   UNL     1      31.695 -22.972 -16.408  0.00  0.00    +0.172 C 
ATOM      6  C   UNL     1      31.843 -23.237 -15.046  0.00  0.00    +0.040 C 
ENDROOT
BRANCH   5   7
ATOM      7  O   UNL     1      30.450 -22.768 -16.919  0.00  0.00    -0.468 OA
ATOM      8  C   UNL     1      29.358 -23.373 -16.230  0.00  0.00    +0.253 C 
ENDBRANCH   5   7
BRANCH   4   9
ATOM      9  O   UNL     1      32.686 -22.661 -18.564  0.00  0.00    -0.472 OA
BRANCH   9  10
ATOM     10  C   UNL     1      33.803 -22.063 -19.221  0.00  0.00    +0.206 C 
BRANCH  10  11
ATOM     11  C   UNL     1      33.317 -20.867 -20.027  0.00  0.00    +0.047 C 
BRANCH  11  12
ATOM     12  C   UNL     1      34.481 -20.068 -20.607  0.00  0.00    +0.004 C 
ATOM     13  C   UNL     1      35.821 -20.666 -20.209  0.00  0.00    +0.000 C 
ENDBRANCH  11  12
ENDBRANCH  10  11
ENDBRANCH   9  10
ENDBRANCH   4   9
BRANCH   1  14
ATOM     14  C   UNL     1      35.593 -23.623 -14.763  0.00  0.00    +0.048 C 
BRANCH  14  18
ATOM     15  O   UNL     1      36.816 -27.574 -16.350  0.00  0.00    -0.253 OA
ATOM     16  N   UNL     1      35.501 -26.033 -15.165  0.00  0.00    -0.289 N 
ATOM     17  N   UNL     1      37.683 -26.228 -14.635  0.00  0.00    -0.287 N 
ATOM     18  C   UNL     1      35.727 -25.016 -14.161  0.00  0.00    +0.097 C 
ATOM     19  C   UNL     1      37.148 -25.298 -13.671  0.00  0.00    +0.111 C 
ATOM     20  C   UNL     1      36.684 -26.715 -15.489  0.00  0.00    +0.301 C 
ATOM     21  H   UNL     1      34.625 -26.223 -15.571  0.00  0.00    +0.151 HD
ATOM     22  H   UNL     1      38.631 -26.488 -14.686  0.00  0.00    +0.151 HD
ENDBRANCH  14  18
ENDBRANCH   1  14
TORSDOF 7
ENDMDL
MODEL 2
REMARK VINA RESULT:      -8.5      4.849      8.320
REMARK  Name = 6603746
REMARK  7 active torsions:
REMARK  status: ('A' for Active; 'I' for Inactive)
REMARK    1  A    between atoms: C_1  and  C_14
REMARK    2  A    between atoms: C_4  and  O_9
REMARK    3  A    between atoms: C_5  and  O_7
REMARK    4  A    between atoms: O_9  and  C_10
REMARK    5  A    between atoms: C_10  and  C_11
REMARK    6  A    between atoms: C_11  and  C_12
REMARK    7  A    between atoms: C_14  and  C_18
REMARK                            x       y       z     vdW  Elec       q    Type
REMARK                         _______ _______ _______ _____ _____    ______ ____
ROOT
ATOM      1  C   UNL     1      35.453 -19.962 -20.557  0.00  0.00    -0.017 C 
ATOM      2  C   UNL     1      36.373 -20.593 -19.733  0.00  0.00    +0.036 C 
ATOM      3  C   UNL     1      34.120 -20.349 -20.571  0.00  0.00    -0.001 C 
ATOM      4  C   UNL     1      35.952 -21.634 -18.905  0.00  0.00    +0.172 C 
ATOM      5  C   UNL     1      34.616 -22.034 -18.910  0.00  0.00    +0.172 C 
ATOM      6  C   UNL     1      33.700 -21.391 -19.744  0.00  0.00    +0.040 C 
ENDROOT
BRANCH   5   7
ATOM      7  O   UNL     1      34.193 -23.048 -18.107  0.00  0.00    -0.468 OA
ATOM      8  C   UNL     1      32.887 -22.931 -17.547  0.00  0.00    +0.253 C 
ENDBRANCH   5   7
BRANCH   4   9
ATOM      9  O   UNL     1      36.857 -22.256 -18.097  0.00  0.00    -0.472 OA
BRANCH   9  10
ATOM     10  C   UNL     1      37.137 -21.638 -16.842  0.00  0.00    +0.206 C 
BRANCH  10  11
ATOM     11  C   UNL     1      37.234 -22.717 -15.774  0.00  0.00    +0.047 C 
BRANCH  11  12
ATOM     12  C   UNL     1      35.887 -22.968 -15.102  0.00  0.00    +0.004 C 
ATOM     13  C   UNL     1      35.527 -24.445 -15.110  0.00  0.00    +0.000 C 
ENDBRANCH  11  12
ENDBRANCH  10  11
ENDBRANCH   9  10
ENDBRANCH   4   9
BRANCH   1  14
ATOM     14  C   UNL     1      35.907 -18.838 -21.450  0.00  0.00    +0.048 C 
BRANCH  14  18
ATOM     15  O   UNL     1      34.893 -14.894 -23.195  0.00  0.00    -0.253 OA
ATOM     16  N   UNL     1      34.521 -16.923 -22.075  0.00  0.00    -0.289 N 
ATOM     17  N   UNL     1      35.348 -16.979 -24.171  0.00  0.00    -0.287 N 
ATOM     18  C   UNL     1      34.776 -18.324 -22.330  0.00  0.00    +0.097 C 
ATOM     19  C   UNL     1      35.139 -18.362 -23.816  0.00  0.00    +0.111 C 
ATOM     20  C   UNL     1      34.920 -16.117 -23.152  0.00  0.00    +0.301 C 
ATOM     21  H   UNL     1      34.117 -16.578 -21.246  0.00  0.00    +0.151 HD
ATOM     22  H   UNL     1      35.742 -16.679 -25.021  0.00  0.00    +0.151 HD
ENDBRANCH  14  18
ENDBRANCH   1  14
TORSDOF 7
ENDMDL
MODEL 3
REMARK VINA RESULT:      -8.4      5.758      9.306
REMARK  Name = 6603746
REMARK  7 active torsions:
REMARK  status: ('A' for Active; 'I' for Inactive)
REMARK    1  A    between atoms: C_1  and  C_14
REMARK    2  A    between atoms: C_4  and  O_9
REMARK    3  A    between atoms: C_5  and  O_7
REMARK    4  A    between atoms: O_9  and  C_10
REMARK    5  A    between atoms: C_10  and  C_11
REMARK    6  A    between atoms: C_11  and  C_12
REMARK    7  A    between atoms: C_14  and  C_18
REMARK                            x       y       z     vdW  Elec       q    Type
REMARK                         _______ _______ _______ _____ _____    ______ ____
ROOT
ATOM      1  C   UNL     1      34.867 -18.317 -23.132  0.00  0.00    -0.017 C 
ATOM      2  C   UNL     1      34.868 -17.126 -22.419  0.00  0.00    +0.036 C 
ATOM      3  C   UNL     1      34.531 -18.345 -24.478  0.00  0.00    -0.001 C 
ATOM      4  C   UNL     1      34.526 -15.939 -23.067  0.00  0.00    +0.172 C 
ATOM      5  C   UNL     1      34.186 -15.954 -24.419  0.00  0.00    +0.172 C 
ATOM      6  C   UNL     1      34.188 -17.158 -25.125  0.00  0.00    +0.040 C 
ENDROOT
BRANCH   5   7
ATOM      7  O   UNL     1      33.850 -14.802 -25.062  0.00  0.00    -0.468 OA
ATOM      8  C   UNL     1      33.079 -14.926 -26.255  0.00  0.00    +0.253 C 
ENDBRANCH   5   7
BRANCH   4   9
ATOM      9  O   UNL     1      34.524 -14.769 -22.367  0.00  0.00    -0.472 OA
BRANCH   9  10
ATOM     10  C   UNL     1      34.313 -14.858 -20.958  0.00  0.00    +0.206 C 
BRANCH  10  11
ATOM     11  C   UNL     1      32.846 -14.580 -20.663  0.00  0.00    +0.047 C 
BRANCH  11  12
ATOM     12  C   UNL     1      32.286 -13.487 -21.568  0.00  0.00    +0.004 C 
ATOM     13  C   UNL     1      31.827 -12.280 -20.765  0.00  0.00    +0.000 C 
ENDBRANCH  11  12
ENDBRANCH  10  11
ENDBRANCH   9  10
ENDBRANCH   4   9
BRANCH   1  14
ATOM     14  C   UNL     1      35.237 -19.598 -22.433  0.00  0.00    +0.048 C 
BRANCH  14  18
ATOM     15  O   UNL     1      32.776 -21.829 -19.502  0.00  0.00    -0.253 OA
ATOM     16  N   UNL     1      33.702 -19.951 -20.563  0.00  0.00    -0.289 N 
ATOM     17  N   UNL     1      35.091 -21.493 -19.684  0.00  0.00    -0.287 N 
ATOM     18  C   UNL     1      35.027 -19.500 -20.928  0.00  0.00    +0.097 C 
ATOM     19  C   UNL     1      35.955 -20.438 -20.154  0.00  0.00    +0.111 C 
ATOM     20  C   UNL     1      33.739 -21.173 -19.872  0.00  0.00    +0.301 C 
ATOM     21  H   UNL     1      32.874 -19.461 -20.774  0.00  0.00    +0.151 HD
ATOM     22  H   UNL     1      35.410 -22.333 -19.281  0.00  0.00    +0.151 HD
ENDBRANCH  14  18
ENDBRANCH   1  14
TORSDOF 7
ENDMDL
MODEL 4
REMARK VINA RESULT:      -8.4      1.045      1.125
REMARK  Name = 6603746
REMARK  7 active torsions:
REMARK  status: ('A' for Active; 'I' for Inactive)
REMARK    1  A    between atoms: C_1  and  C_14
REMARK    2  A    between atoms: C_4  and  O_9
REMARK    3  A    between atoms: C_5  and  O_7
REMARK    4  A    between atoms: O_9  and  C_10
REMARK    5  A    between atoms: C_10  and  C_11
REMARK    6  A    between atoms: C_11  and  C_12
REMARK    7  A    between atoms: C_14  and  C_18
REMARK                            x       y       z     vdW  Elec       q    Type
REMARK                         _______ _______ _______ _____ _____    ______ ____
ROOT
ATOM      1  C   UNL     1      34.562 -23.670 -15.584  0.00  0.00    -0.017 C 
ATOM      2  C   UNL     1      34.222 -23.195 -16.843  0.00  0.00    +0.036 C 
ATOM      3  C   UNL     1      33.591 -23.906 -14.621  0.00  0.00    -0.001 C 
ATOM      4  C   UNL     1      32.882 -22.952 -17.145  0.00  0.00    +0.172 C 
ATOM      5  C   UNL     1      31.896 -23.184 -16.186  0.00  0.00    +0.172 C 
ATOM      6  C   UNL     1      32.251 -23.661 -14.924  0.00  0.00    +0.040 C 
ENDROOT
BRANCH   5   7
ATOM      7  O   UNL     1      30.586 -22.950 -16.470  0.00  0.00    -0.468 OA
ATOM      8  C   UNL     1      29.646 -23.939 -16.054  0.00  0.00    +0.253 C 
ENDBRANCH   5   7
BRANCH   4   9
ATOM      9  O   UNL     1      32.548 -22.483 -18.381  0.00  0.00    -0.472 OA
BRANCH   9  10
ATOM     10  C   UNL     1      33.621 -22.186 -19.273  0.00  0.00    +0.206 C 
BRANCH  10  11
ATOM     11  C   UNL     1      33.344 -20.850 -19.947  0.00  0.00    +0.047 C 
BRANCH  11  12
ATOM     12  C   UNL     1      34.625 -20.204 -20.466  0.00  0.00    +0.004 C 
ATOM     13  C   UNL     1      35.856 -20.997 -20.055  0.00  0.00    +0.000 C 
ENDBRANCH  11  12
ENDBRANCH  10  11
ENDBRANCH   9  10
ENDBRANCH   4   9
BRANCH   1  14
ATOM     14  C   UNL     1      36.008 -23.933 -15.258  0.00  0.00    +0.048 C 
BRANCH  14  18
ATOM     15  O   UNL     1      39.538 -26.558 -14.734  0.00  0.00    -0.253 OA
ATOM     16  N   UNL     1      37.348 -25.977 -15.346  0.00  0.00    -0.289 N 
ATOM     17  N   UNL     1      37.991 -25.674 -13.207  0.00  0.00    -0.287 N 
ATOM     18  C   UNL     1      36.216 -25.339 -14.710  0.00  0.00    +0.097 C 
ATOM     19  C   UNL     1      36.590 -25.329 -13.227  0.00  0.00    +0.111 C 
ATOM     20  C   UNL     1      38.428 -26.121 -14.462  0.00  0.00    +0.301 C 
ATOM     21  H   UNL     1      37.359 -26.273 -16.285  0.00  0.00    +0.151 HD
ATOM     22  H   UNL     1      38.568 -25.604 -12.412  0.00  0.00    +0.151 HD
ENDBRANCH  14  18
ENDBRANCH   1  14
TORSDOF 7
ENDMDL
MODEL 5
REMARK VINA RESULT:      -8.3      1.476      1.611
REMARK  Name = 6603746
REMARK  7 active torsions:
REMARK  status: ('A' for Active; 'I' for Inactive)
REMARK    1  A    between atoms: C_1  and  C_14
REMARK    2  A    between atoms: C_4  and  O_9
REMARK    3  A    between atoms: C_5  and  O_7
REMARK    4  A    between atoms: O_9  and  C_10
REMARK    5  A    between atoms: C_10  and  C_11
REMARK    6  A    between atoms: C_11  and  C_12
REMARK    7  A    between atoms: C_14  and  C_18
REMARK                            x       y       z     vdW  Elec       q    Type
REMARK                         _______ _______ _______ _____ _____    ______ ____
ROOT
ATOM      1  C   UNL     1      34.066 -23.613 -15.685  0.00  0.00    -0.017 C 
ATOM      2  C   UNL     1      33.957 -23.215 -17.010  0.00  0.00    +0.036 C 
ATOM      3  C   UNL     1      32.964 -23.609 -14.843  0.00  0.00    -0.001 C 
ATOM      4  C   UNL     1      32.718 -22.805 -17.503  0.00  0.00    +0.172 C 
ATOM      5  C   UNL     1      31.602 -22.795 -16.666  0.00  0.00    +0.172 C 
ATOM      6  C   UNL     1      31.726 -23.197 -15.336  0.00  0.00    +0.040 C 
ENDROOT
BRANCH   5   7
ATOM      7  O   UNL     1      30.388 -22.397 -17.136  0.00  0.00    -0.468 OA
ATOM      8  C   UNL     1      29.236 -22.883 -16.450  0.00  0.00    +0.253 C 
ENDBRANCH   5   7
BRANCH   4   9
ATOM      9  O   UNL     1      32.610 -22.413 -18.804  0.00  0.00    -0.472 OA
BRANCH   9  10
ATOM     10  C   UNL     1      33.695 -21.659 -19.345  0.00  0.00    +0.206 C 
BRANCH  10  11
ATOM     11  C   UNL     1      33.134 -20.559 -20.234  0.00  0.00    +0.047 C 
BRANCH  11  12
ATOM     12  C   UNL     1      34.241 -19.686 -20.817  0.00  0.00    +0.004 C 
ATOM     13  C   UNL     1      35.616 -20.279 -20.552  0.00  0.00    +0.000 C 
ENDBRANCH  11  12
ENDBRANCH  10  11
ENDBRANCH   9  10
ENDBRANCH   4   9
BRANCH   1  14
ATOM     14  C   UNL     1      35.403 -24.056 -15.154  0.00  0.00    +0.048 C 
BRANCH  14  18
ATOM     15  O   UNL     1      37.726 -26.406 -12.203  0.00  0.00    -0.253 OA
ATOM     16  N   UNL     1      35.820 -25.469 -13.202  0.00  0.00    -0.289 N 
ATOM     17  N   UNL     1      37.478 -24.096 -12.534  0.00  0.00    -0.287 N 
ATOM     18  C   UNL     1      35.402 -24.153 -13.634  0.00  0.00    +0.097 C 
ATOM     19  C   UNL     1      36.432 -23.218 -12.996  0.00  0.00    +0.111 C 
ATOM     20  C   UNL     1      37.087 -25.441 -12.599  0.00  0.00    +0.301 C 
ATOM     21  H   UNL     1      35.281 -26.285 -13.317  0.00  0.00    +0.151 HD
ATOM     22  H   UNL     1      38.357 -23.790 -12.213  0.00  0.00    +0.151 HD
ENDBRANCH  14  18
ENDBRANCH   1  14
TORSDOF 7
ENDMDL
MODEL 6
REMARK VINA RESULT:      -8.3      3.192      5.782
REMARK  Name = 6603746
REMARK  7 active torsions:
REMARK  status: ('A' for Active; 'I' for Inactive)
REMARK    1  A    between atoms: C_1  and  C_14
REMARK    2  A    between atoms: C_4  and  O_9
REMARK    3  A    between atoms: C_5  and  O_7
REMARK    4  A    between atoms: O_9  and  C_10
REMARK    5  A    between atoms: C_10  and  C_11
REMARK    6  A    between atoms: C_11  and  C_12
REMARK    7  A    between atoms: C_14  and  C_18
REMARK                            x       y       z     vdW  Elec       q    Type
REMARK                         _______ _______ _______ _____ _____    ______ ____
ROOT
ATOM      1  C   UNL     1      32.111 -23.660 -15.529  0.00  0.00    -0.017 C 
ATOM      2  C   UNL     1      32.640 -23.360 -16.776  0.00  0.00    +0.036 C 
ATOM      3  C   UNL     1      32.934 -23.849 -14.428  0.00  0.00    -0.001 C 
ATOM      4  C   UNL     1      34.022 -23.248 -16.926  0.00  0.00    +0.172 C 
ATOM      5  C   UNL     1      34.861 -23.437 -15.828  0.00  0.00    +0.172 C 
ATOM      6  C   UNL     1      34.317 -23.737 -14.579  0.00  0.00    +0.040 C 
ENDROOT
BRANCH   5   7
ATOM      7  O   UNL     1      36.212 -23.330 -15.962  0.00  0.00    -0.468 OA
ATOM      8  C   UNL     1      37.010 -23.788 -14.872  0.00  0.00    +0.253 C 
ENDBRANCH   5   7
BRANCH   4   9
ATOM      9  O   UNL     1      34.543 -22.956 -18.152  0.00  0.00    -0.472 OA
BRANCH   9  10
ATOM     10  C   UNL     1      33.637 -22.469 -19.141  0.00  0.00    +0.206 C 
BRANCH  10  11
ATOM     11  C   UNL     1      34.208 -21.195 -19.746  0.00  0.00    +0.047 C 
BRANCH  11  12
ATOM     12  C   UNL     1      33.110 -20.292 -20.299  0.00  0.00    +0.004 C 
ATOM     13  C   UNL     1      33.687 -19.160 -21.135  0.00  0.00    +0.000 C 
ENDBRANCH  11  12
ENDBRANCH  10  11
ENDBRANCH   9  10
ENDBRANCH   4   9
BRANCH   1  14
ATOM     14  C   UNL     1      30.619 -23.780 -15.368  0.00  0.00    +0.048 C 
BRANCH  14  18
ATOM     15  O   UNL     1      27.149 -23.064 -18.027  0.00  0.00    -0.253 OA
ATOM     16  N   UNL     1      29.310 -22.759 -17.163  0.00  0.00    -0.289 N 
ATOM     17  N   UNL     1      27.547 -22.529 -15.777  0.00  0.00    -0.287 N 
ATOM     18  C   UNL     1      29.896 -22.533 -15.859  0.00  0.00    +0.097 C 
ATOM     19  C   UNL     1      28.696 -22.178 -14.979  0.00  0.00    +0.111 C 
ATOM     20  C   UNL     1      27.909 -22.816 -17.101  0.00  0.00    +0.301 C 
ATOM     21  H   UNL     1      29.831 -22.861 -17.992  0.00  0.00    +0.151 HD
ATOM     22  H   UNL     1      26.624 -22.562 -15.435  0.00  0.00    +0.151 HD
ENDBRANCH  14  18
ENDBRANCH   1  14
TORSDOF 7
ENDMDL
MODEL 7
REMARK VINA RESULT:      -8.2      4.860      8.521
REMARK  Name = 6603746
REMARK  7 active torsions:
REMARK  status: ('A' for Active; 'I' for Inactive)
REMARK    1  A    between atoms: C_1  and  C_14
REMARK    2  A    between atoms: C_4  and  O_9
REMARK    3  A    between atoms: C_5  and  O_7
REMARK    4  A    between atoms: O_9  and  C_10
REMARK    5  A    between atoms: C_10  and  C_11
REMARK    6  A    between atoms: C_11  and  C_12
REMARK    7  A    between atoms: C_14  and  C_18
REMARK                            x       y       z     vdW  Elec       q    Type
REMARK                         _______ _______ _______ _____ _____    ______ ____
ROOT
ATOM      1  C   UNL     1      34.968 -20.107 -20.822  0.00  0.00    -0.017 C 
ATOM      2  C   UNL     1      34.257 -21.167 -20.279  0.00  0.00    +0.036 C 
ATOM      3  C   UNL     1      36.250 -19.806 -20.385  0.00  0.00    -0.001 C 
ATOM      4  C   UNL     1      34.841 -21.945 -19.279  0.00  0.00    +0.172 C 
ATOM      5  C   UNL     1      36.129 -21.653 -18.830  0.00  0.00    +0.172 C 
ATOM      6  C   UNL     1      36.833 -20.583 -19.384  0.00  0.00    +0.040 C 
ENDROOT
BRANCH   5   7
ATOM      7  O   UNL     1      36.709 -22.404 -17.854  0.00  0.00    -0.468 OA
ATOM      8  C   UNL     1      37.182 -21.714 -16.699  0.00  0.00    +0.253 C 
ENDBRANCH   5   7
BRANCH   4   9
ATOM      9  O   UNL     1      34.142 -22.985 -18.744  0.00  0.00    -0.472 OA
BRANCH   9  10
ATOM     10  C   UNL     1      33.066 -22.660 -17.865  0.00  0.00    +0.206 C 
BRANCH  10  11
ATOM     11  C   UNL     1      33.316 -23.321 -16.517  0.00  0.00    +0.047 C 
BRANCH  11  12
ATOM     12  C   UNL     1      32.053 -23.350 -15.661  0.00  0.00    +0.004 C 
ATOM     13  C   UNL     1      30.832 -22.910 -16.453  0.00  0.00    +0.000 C 
ENDBRANCH  11  12
ENDBRANCH  10  11
ENDBRANCH   9  10
ENDBRANCH   4   9
BRANCH   1  14
ATOM     14  C   UNL     1      34.338 -19.269 -21.902  0.00  0.00    +0.048 C 
BRANCH  14  18
ATOM     15  O   UNL     1      34.620 -17.226 -25.823  0.00  0.00    -0.253 OA
ATOM     16  N   UNL     1      35.361 -18.465 -23.972  0.00  0.00    -0.289 N 
ATOM     17  N   UNL     1      34.503 -16.410 -23.626  0.00  0.00    -0.287 N 
ATOM     18  C   UNL     1      35.342 -18.314 -22.534  0.00  0.00    +0.097 C 
ATOM     19  C   UNL     1      34.954 -16.849 -22.328  0.00  0.00    +0.111 C 
ATOM     20  C   UNL     1      34.803 -17.352 -24.620  0.00  0.00    +0.301 C 
ATOM     21  H   UNL     1      35.720 -19.254 -24.440  0.00  0.00    +0.151 HD
ATOM     22  H   UNL     1      34.042 -15.557 -23.793  0.00  0.00    +0.151 HD
ENDBRANCH  14  18
ENDBRANCH   1  14
TORSDOF 7
ENDMDL
MODEL 8
REMARK VINA RESULT:      -8.2      1.701      4.269
REMARK  Name = 6603746
REMARK  7 active torsions:
REMARK  status: ('A' for Active; 'I' for Inactive)
REMARK    1  A    between atoms: C_1  and  C_14
REMARK    2  A    between atoms: C_4  and  O_9
REMARK    3  A    between atoms: C_5  and  O_7
REMARK    4  A    between atoms: O_9  and  C_10
REMARK    5  A    between atoms: C_10  and  C_11
REMARK    6  A    between atoms: C_11  and  C_12
REMARK    7  A    between atoms: C_14  and  C_18
REMARK                            x       y       z     vdW  Elec       q    Type
REMARK                         _______ _______ _______ _____ _____    ______ ____
ROOT
ATOM      1  C   UNL     1      36.131 -22.580 -16.792  0.00  0.00    -0.017 C 
ATOM      2  C   UNL     1      34.844 -23.050 -16.575  0.00  0.00    +0.036 C 
ATOM      3  C   UNL     1      36.463 -21.916 -17.964  0.00  0.00    -0.001 C 
ATOM      4  C   UNL     1      33.867 -22.852 -17.551  0.00  0.00    +0.172 C 
ATOM      5  C   UNL     1      34.188 -22.187 -18.735  0.00  0.00    +0.172 C 
ATOM      6  C   UNL     1      35.486 -21.719 -18.941  0.00  0.00    +0.040 C 
ENDROOT
BRANCH   5   7
ATOM      7  O   UNL     1      33.244 -21.987 -19.694  0.00  0.00    -0.468 OA
ATOM      8  C   UNL     1      33.097 -20.659 -20.194  0.00  0.00    +0.253 C 
ENDBRANCH   5   7
BRANCH   4   9
ATOM      9  O   UNL     1      32.603 -23.315 -17.340  0.00  0.00    -0.472 OA
BRANCH   9  10
ATOM     10  C   UNL     1      32.145 -23.352 -15.989  0.00  0.00    +0.206 C 
BRANCH  10  11
ATOM     11  C   UNL     1      30.625 -23.262 -15.983  0.00  0.00    +0.047 C 
BRANCH  11  12
ATOM     12  C   UNL     1      30.028 -23.893 -14.729  0.00  0.00    +0.004 C 
ATOM     13  C   UNL     1      29.884 -25.400 -14.878  0.00  0.00    +0.000 C 
ENDBRANCH  11  12
ENDBRANCH  10  11
ENDBRANCH   9  10
ENDBRANCH   4   9
BRANCH   1  14
ATOM     14  C   UNL     1      37.185 -22.794 -15.738  0.00  0.00    +0.048 C 
BRANCH  14  18
ATOM     15  O   UNL     1      39.231 -26.577 -14.676  0.00  0.00    -0.253 OA
ATOM     16  N   UNL     1      37.450 -25.188 -15.317  0.00  0.00    -0.289 N 
ATOM     17  N   UNL     1      38.521 -24.752 -13.382  0.00  0.00    -0.287 N 
ATOM     18  C   UNL     1      36.844 -23.968 -14.830  0.00  0.00    +0.097 C 
ATOM     19  C   UNL     1      37.435 -23.803 -13.428  0.00  0.00    +0.111 C 
ATOM     20  C   UNL     1      38.492 -25.621 -14.482  0.00  0.00    +0.301 C 
ATOM     21  H   UNL     1      37.167 -25.657 -16.135  0.00  0.00    +0.151 HD
ATOM     22  H   UNL     1      39.198 -24.785 -12.668  0.00  0.00    +0.151 HD
ENDBRANCH  14  18
ENDBRANCH   1  14
TORSDOF 7
ENDMDL
MODEL 9
REMARK VINA RESULT:      -8.0      6.240      9.598
REMARK  Name = 6603746
REMARK  7 active torsions:
REMARK  status: ('A' for Active; 'I' for Inactive)
REMARK    1  A    between atoms: C_1  and  C_14
REMARK    2  A    between atoms: C_4  and  O_9
REMARK    3  A    between atoms: C_5  and  O_7
REMARK    4  A    between atoms: O_9  and  C_10
REMARK    5  A    between atoms: C_10  and  C_11
REMARK    6  A    between atoms: C_11  and  C_12
REMARK    7  A    between atoms: C_14  and  C_18
REMARK                            x       y       z     vdW  Elec       q    Type
REMARK                         _______ _______ _______ _____ _____    ______ ____
ROOT
ATOM      1  C   UNL     1      34.768 -17.390 -22.068  0.00  0.00    -0.017 C 
ATOM      2  C   UNL     1      34.357 -16.125 -21.675  0.00  0.00    +0.036 C 
ATOM      3  C   UNL     1      34.871 -17.724 -23.412  0.00  0.00    -0.001 C 
ATOM      4  C   UNL     1      34.043 -15.172 -22.645  0.00  0.00    +0.172 C 
ATOM      5  C   UNL     1      34.141 -15.496 -23.998  0.00  0.00    +0.172 C 
ATOM      6  C   UNL     1      34.555 -16.772 -24.381  0.00  0.00    +0.040 C 
ENDROOT
BRANCH   5   7
ATOM      7  O   UNL     1      33.837 -14.575 -24.953  0.00  0.00    -0.468 OA
ATOM      8  C   UNL     1      33.053 -15.021 -26.058  0.00  0.00    +0.253 C 
ENDBRANCH   5   7
BRANCH   4   9
ATOM      9  O   UNL     1      33.637 -13.930 -22.258  0.00  0.00    -0.472 OA
BRANCH   9  10
ATOM     10  C   UNL     1      32.275 -13.789 -21.855  0.00  0.00    +0.206 C 
BRANCH  10  11
ATOM     11  C   UNL     1      32.226 -13.001 -20.554  0.00  0.00    +0.047 C 
BRANCH  11  12
ATOM     12  C   UNL     1      31.515 -11.663 -20.733  0.00  0.00    +0.004 C 
ATOM     13  C   UNL     1      31.286 -10.971 -19.398  0.00  0.00    +0.000 C 
ENDBRANCH  11  12
ENDBRANCH  10  11
ENDBRANCH   9  10
ENDBRANCH   4   9
BRANCH   1  14
ATOM     14  C   UNL     1      35.108 -18.417 -21.021  0.00  0.00    +0.048 C 
BRANCH  14  18
ATOM     15  O   UNL     1      34.458 -22.133 -18.698  0.00  0.00    -0.253 OA
ATOM     16  N   UNL     1      35.084 -20.814 -20.536  0.00  0.00    -0.289 N 
ATOM     17  N   UNL     1      32.974 -20.659 -19.761  0.00  0.00    -0.287 N 
ATOM     18  C   UNL     1      34.478 -19.769 -21.332  0.00  0.00    +0.097 C 
ATOM     19  C   UNL     1      33.001 -19.821 -20.935  0.00  0.00    +0.111 C 
ATOM     20  C   UNL     1      34.203 -21.302 -19.559  0.00  0.00    +0.301 C 
ATOM     21  H   UNL     1      36.004 -21.141 -20.664  0.00  0.00    +0.151 HD
ATOM     22  H   UNL     1      32.189 -20.767 -19.176  0.00  0.00    +0.151 HD
ENDBRANCH  14  18
ENDBRANCH   1  14
TORSDOF 7
ENDMDL
