MODEL 1
REMARK VINA RESULT:      -9.7      0.000      0.000
REMARK  Name = 10039403
REMARK  7 active torsions:
REMARK  status: ('A' for Active; 'I' for Inactive)
REMARK    1  A    between atoms: C_1  and  C_7
REMARK    2  A    between atoms: C_2  and  O_15
REMARK    3  A    between atoms: C_12  and  C_14
REMARK    4  A    between atoms: O_15  and  C_16
REMARK    5  A    between atoms: C_16  and  C_17
REMARK    6  A    between atoms: C_17  and  C_20
REMARK    7  A    between atoms: N_19  and  O_22
REMARK                            x       y       z     vdW  Elec       q    Type
REMARK                         _______ _______ _______ _____ _____    ______ ____
ROOT
ATOM      1  C   UNL     1      35.036 -19.845 -21.098  0.00  0.00    +0.000 C 
ATOM      2  C   UNL     1      35.489 -21.629 -19.015  0.00  0.00    +0.139 C 
ATOM      3  C   UNL     1      36.334 -20.066 -20.641  0.00  0.00    +0.003 C 
ATOM      4  C   UNL     1      33.965 -20.518 -20.512  0.00  0.00    +0.003 C 
ATOM      5  C   UNL     1      36.563 -20.961 -19.595  0.00  0.00    +0.037 C 
ATOM      6  C   UNL     1      34.192 -21.414 -19.467  0.00  0.00    +0.037 C 
ENDROOT
BRANCH   1   7
ATOM      7  C   UNL     1      34.800 -18.915 -22.182  0.00  0.00    +0.000 C 
ATOM      8  C   UNL     1      34.750 -19.376 -23.497  0.00  0.00    +0.001 C 
ATOM      9  C   UNL     1      34.623 -17.558 -21.911  0.00  0.00    +0.001 C 
ATOM     10  C   UNL     1      34.522 -18.481 -24.542  0.00  0.00    +0.010 C 
ATOM     11  C   UNL     1      34.395 -16.663 -22.956  0.00  0.00    +0.010 C 
ATOM     12  C   UNL     1      34.345 -17.124 -24.272  0.00  0.00    +0.068 C 
BRANCH  12  14
ATOM     13  N   UNL     1      33.922 -15.460 -26.212  0.00  0.00    -0.191 NA
ATOM     14  C   UNL     1      34.111 -16.207 -25.342  0.00  0.00    +0.100 C 
ENDBRANCH  12  14
ENDBRANCH   1   7
BRANCH   2  15
ATOM     15  O   UNL     1      35.713 -22.509 -17.988  0.00  0.00    -0.475 OA
BRANCH  15  16
ATOM     16  C   UNL     1      34.622 -22.765 -17.115  0.00  0.00    +0.215 C 
BRANCH  16  17
ATOM     17  C   UNL     1      35.141 -22.951 -15.698  0.00  0.00    +0.134 C 
BRANCH  17  20
ATOM     18  O   UNL     1      36.445 -24.972 -15.411  0.00  0.00    -0.273 OA
ATOM     19  N   UNL     1      37.530 -22.987 -15.872  0.00  0.00    -0.197 N 
ATOM     20  C   UNL     1      36.422 -23.766 -15.637  0.00  0.00    +0.248 C 
ATOM     21  H   UNL     1      37.460 -22.021 -16.048  0.00  0.00    +0.182 HD
BRANCH  19  22
ATOM     22  O   UNL     1      38.763 -23.650 -15.844  0.00  0.00    -0.295 OA
ATOM     23  H   UNL     1      39.481 -23.003 -15.925  0.00  0.00    +0.241 HD
ENDBRANCH  19  22
ENDBRANCH  17  20
ENDBRANCH  16  17
ENDBRANCH  15  16
ENDBRANCH   2  15
TORSDOF 7
ENDMDL
MODEL 2
REMARK VINA RESULT:      -9.6      4.930      9.361
REMARK  Name = 10039403
REMARK  7 active torsions:
REMARK  status: ('A' for Active; 'I' for Inactive)
REMARK    1  A    between atoms: C_1  and  C_7
REMARK    2  A    between atoms: C_2  and  O_15
REMARK    3  A    between atoms: C_12  and  C_14
REMARK    4  A    between atoms: O_15  and  C_16
REMARK    5  A    between atoms: C_16  and  C_17
REMARK    6  A    between atoms: C_17  and  C_20
REMARK    7  A    between atoms: N_19  and  O_22
REMARK                            x       y       z     vdW  Elec       q    Type
REMARK                         _______ _______ _______ _____ _____    ______ ____
ROOT
ATOM      1  C   UNL     1      34.488 -18.105 -21.684  0.00  0.00    +0.000 C 
ATOM      2  C   UNL     1      34.747 -15.763 -23.160  0.00  0.00    +0.139 C 
ATOM      3  C   UNL     1      34.770 -18.169 -23.048  0.00  0.00    +0.003 C 
ATOM      4  C   UNL     1      34.335 -16.867 -21.060  0.00  0.00    +0.003 C 
ATOM      5  C   UNL     1      34.901 -16.995 -23.789  0.00  0.00    +0.037 C 
ATOM      6  C   UNL     1      34.466 -15.692 -21.800  0.00  0.00    +0.037 C 
ENDROOT
BRANCH   1   7
ATOM      7  C   UNL     1      34.352 -19.324 -20.916  0.00  0.00    +0.000 C 
ATOM      8  C   UNL     1      35.487 -20.040 -20.538  0.00  0.00    +0.001 C 
ATOM      9  C   UNL     1      33.085 -19.783 -20.554  0.00  0.00    +0.001 C 
ATOM     10  C   UNL     1      35.357 -21.215 -19.797  0.00  0.00    +0.010 C 
ATOM     11  C   UNL     1      32.954 -20.958 -19.813  0.00  0.00    +0.010 C 
ATOM     12  C   UNL     1      34.090 -21.674 -19.435  0.00  0.00    +0.068 C 
BRANCH  12  14
ATOM     13  N   UNL     1      33.845 -23.855 -18.059  0.00  0.00    -0.191 NA
ATOM     14  C   UNL     1      33.956 -22.876 -18.676  0.00  0.00    +0.100 C 
ENDBRANCH  12  14
ENDBRANCH   1   7
BRANCH   2  15
ATOM     15  O   UNL     1      34.876 -14.609 -23.888  0.00  0.00    -0.475 OA
BRANCH  15  16
ATOM     16  C   UNL     1      33.809 -13.674 -23.799  0.00  0.00    +0.215 C 
BRANCH  16  17
ATOM     17  C   UNL     1      32.704 -14.077 -24.764  0.00  0.00    +0.134 C 
BRANCH  17  20
ATOM     18  O   UNL     1      33.209 -15.512 -26.648  0.00  0.00    -0.273 OA
ATOM     19  N   UNL     1      33.675 -13.255 -26.793  0.00  0.00    -0.197 N 
ATOM     20  C   UNL     1      33.217 -14.386 -26.160  0.00  0.00    +0.248 C 
ATOM     21  H   UNL     1      33.661 -12.371 -26.358  0.00  0.00    +0.182 HD
BRANCH  19  22
ATOM     22  O   UNL     1      34.164 -13.435 -28.093  0.00  0.00    -0.295 OA
ATOM     23  H   UNL     1      33.424 -13.616 -28.694  0.00  0.00    +0.241 HD
ENDBRANCH  19  22
ENDBRANCH  17  20
ENDBRANCH  16  17
ENDBRANCH  15  16
ENDBRANCH   2  15
TORSDOF 7
ENDMDL
MODEL 3
REMARK VINA RESULT:      -9.6      0.919      1.751
REMARK  Name = 10039403
REMARK  7 active torsions:
REMARK  status: ('A' for Active; 'I' for Inactive)
REMARK    1  A    between atoms: C_1  and  C_7
REMARK    2  A    between atoms: C_2  and  O_15
REMARK    3  A    between atoms: C_12  and  C_14
REMARK    4  A    between atoms: O_15  and  C_16
REMARK    5  A    between atoms: C_16  and  C_17
REMARK    6  A    between atoms: C_17  and  C_20
REMARK    7  A    between atoms: N_19  and  O_22
REMARK                            x       y       z     vdW  Elec       q    Type
REMARK                         _______ _______ _______ _____ _____    ______ ____
ROOT
ATOM      1  C   UNL     1      35.027 -20.091 -20.784  0.00  0.00    +0.000 C 
ATOM      2  C   UNL     1      35.356 -21.848 -18.655  0.00  0.00    +0.139 C 
ATOM      3  C   UNL     1      33.918 -20.723 -20.225  0.00  0.00    +0.003 C 
ATOM      4  C   UNL     1      36.302 -20.339 -20.275  0.00  0.00    +0.003 C 
ATOM      5  C   UNL     1      34.081 -21.605 -19.157  0.00  0.00    +0.037 C 
ATOM      6  C   UNL     1      36.466 -21.220 -19.207  0.00  0.00    +0.037 C 
ENDROOT
BRANCH   1   7
ATOM      7  C   UNL     1      34.856 -19.176 -21.892  0.00  0.00    +0.000 C 
ATOM      8  C   UNL     1      34.746 -17.806 -21.656  0.00  0.00    +0.001 C 
ATOM      9  C   UNL     1      34.802 -19.666 -23.198  0.00  0.00    +0.001 C 
ATOM     10  C   UNL     1      34.582 -16.925 -22.724  0.00  0.00    +0.010 C 
ATOM     11  C   UNL     1      34.637 -18.784 -24.266  0.00  0.00    +0.010 C 
ATOM     12  C   UNL     1      34.527 -17.413 -24.029  0.00  0.00    +0.068 C 
BRANCH  12  14
ATOM     13  N   UNL     1      34.223 -15.776 -26.014  0.00  0.00    -0.191 NA
ATOM     14  C   UNL     1      34.360 -16.511 -25.124  0.00  0.00    +0.100 C 
ENDBRANCH  12  14
ENDBRANCH   1   7
BRANCH   2  15
ATOM     15  O   UNL     1      35.517 -22.715 -17.605  0.00  0.00    -0.475 OA
BRANCH  15  16
ATOM     16  C   UNL     1      36.435 -22.329 -16.592  0.00  0.00    +0.215 C 
BRANCH  16  17
ATOM     17  C   UNL     1      36.114 -23.077 -15.307  0.00  0.00    +0.134 C 
BRANCH  17  20
ATOM     18  O   UNL     1      35.772 -25.474 -15.359  0.00  0.00    -0.273 OA
ATOM     19  N   UNL     1      37.926 -24.642 -15.352  0.00  0.00    -0.197 N 
ATOM     20  C   UNL     1      36.556 -24.531 -15.340  0.00  0.00    +0.248 C 
ATOM     21  H   UNL     1      38.515 -23.853 -15.335  0.00  0.00    +0.182 HD
BRANCH  19  22
ATOM     22  O   UNL     1      38.434 -25.947 -15.390  0.00  0.00    -0.295 OA
ATOM     23  H   UNL     1      37.715 -26.569 -15.580  0.00  0.00    +0.241 HD
ENDBRANCH  19  22
ENDBRANCH  17  20
ENDBRANCH  16  17
ENDBRANCH  15  16
ENDBRANCH   2  15
TORSDOF 7
ENDMDL
MODEL 4
REMARK VINA RESULT:      -9.5      2.173      3.915
REMARK  Name = 10039403
REMARK  7 active torsions:
REMARK  status: ('A' for Active; 'I' for Inactive)
REMARK    1  A    between atoms: C_1  and  C_7
REMARK    2  A    between atoms: C_2  and  O_15
REMARK    3  A    between atoms: C_12  and  C_14
REMARK    4  A    between atoms: O_15  and  C_16
REMARK    5  A    between atoms: C_16  and  C_17
REMARK    6  A    between atoms: C_17  and  C_20
REMARK    7  A    between atoms: N_19  and  O_22
REMARK                            x       y       z     vdW  Elec       q    Type
REMARK                         _______ _______ _______ _____ _____    ______ ____
ROOT
ATOM      1  C   UNL     1      35.058 -22.090 -18.023  0.00  0.00    +0.000 C 
ATOM      2  C   UNL     1      35.227 -23.626 -15.712  0.00  0.00    +0.139 C 
ATOM      3  C   UNL     1      36.242 -22.114 -17.288  0.00  0.00    +0.003 C 
ATOM      4  C   UNL     1      33.958 -22.836 -17.599  0.00  0.00    +0.003 C 
ATOM      5  C   UNL     1      36.328 -22.885 -16.128  0.00  0.00    +0.037 C 
ATOM      6  C   UNL     1      34.043 -23.607 -16.440  0.00  0.00    +0.037 C 
ENDROOT
BRANCH   1   7
ATOM      7  C   UNL     1      34.969 -21.290 -19.225  0.00  0.00    +0.000 C 
ATOM      8  C   UNL     1      33.722 -20.985 -19.770  0.00  0.00    +0.001 C 
ATOM      9  C   UNL     1      36.132 -20.824 -19.840  0.00  0.00    +0.001 C 
ATOM     10  C   UNL     1      33.636 -20.213 -20.928  0.00  0.00    +0.010 C 
ATOM     11  C   UNL     1      36.046 -20.052 -20.999  0.00  0.00    +0.010 C 
ATOM     12  C   UNL     1      34.798 -19.747 -21.544  0.00  0.00    +0.068 C 
BRANCH  12  14
ATOM     13  N   UNL     1      34.640 -18.312 -23.695  0.00  0.00    -0.191 NA
ATOM     14  C   UNL     1      34.711 -18.957 -22.730  0.00  0.00    +0.100 C 
ENDBRANCH  12  14
ENDBRANCH   1   7
BRANCH   2  15
ATOM     15  O   UNL     1      35.311 -24.383 -14.573  0.00  0.00    -0.475 OA
BRANCH  15  16
ATOM     16  C   UNL     1      36.561 -24.387 -13.897  0.00  0.00    +0.215 C 
BRANCH  16  17
ATOM     17  C   UNL     1      36.922 -25.813 -13.509  0.00  0.00    +0.134 C 
BRANCH  17  20
ATOM     18  O   UNL     1      38.615 -26.992 -14.777  0.00  0.00    -0.273 OA
ATOM     19  N   UNL     1      36.452 -26.915 -15.583  0.00  0.00    -0.197 N 
ATOM     20  C   UNL     1      37.446 -26.632 -14.677  0.00  0.00    +0.248 C 
ATOM     21  H   UNL     1      35.527 -26.602 -15.458  0.00  0.00    +0.182 HD
BRANCH  19  22
ATOM     22  O   UNL     1      36.835 -27.674 -16.695  0.00  0.00    -0.295 OA
ATOM     23  H   UNL     1      37.779 -27.888 -16.631  0.00  0.00    +0.241 HD
ENDBRANCH  19  22
ENDBRANCH  17  20
ENDBRANCH  16  17
ENDBRANCH  15  16
ENDBRANCH   2  15
TORSDOF 7
ENDMDL
MODEL 5
REMARK VINA RESULT:      -9.4      2.000      2.612
REMARK  Name = 10039403
REMARK  7 active torsions:
REMARK  status: ('A' for Active; 'I' for Inactive)
REMARK    1  A    between atoms: C_1  and  C_7
REMARK    2  A    between atoms: C_2  and  O_15
REMARK    3  A    between atoms: C_12  and  C_14
REMARK    4  A    between atoms: O_15  and  C_16
REMARK    5  A    between atoms: C_16  and  C_17
REMARK    6  A    between atoms: C_17  and  C_20
REMARK    7  A    between atoms: N_19  and  O_22
REMARK                            x       y       z     vdW  Elec       q    Type
REMARK                         _______ _______ _______ _____ _____    ______ ____
ROOT
ATOM      1  C   UNL     1      34.814 -20.173 -20.810  0.00  0.00    +0.000 C 
ATOM      2  C   UNL     1      35.021 -21.984 -18.710  0.00  0.00    +0.139 C 
ATOM      3  C   UNL     1      33.664 -20.740 -20.263  0.00  0.00    +0.003 C 
ATOM      4  C   UNL     1      36.069 -20.514 -20.304  0.00  0.00    +0.003 C 
ATOM      5  C   UNL     1      33.767 -21.648 -19.210  0.00  0.00    +0.037 C 
ATOM      6  C   UNL     1      36.172 -21.422 -19.250  0.00  0.00    +0.037 C 
ENDROOT
BRANCH   1   7
ATOM      7  C   UNL     1      34.707 -19.232 -21.903  0.00  0.00    +0.000 C 
ATOM      8  C   UNL     1      34.756 -19.685 -23.221  0.00  0.00    +0.001 C 
ATOM      9  C   UNL     1      34.555 -17.870 -21.639  0.00  0.00    +0.001 C 
ATOM     10  C   UNL     1      34.651 -18.777 -24.275  0.00  0.00    +0.010 C 
ATOM     11  C   UNL     1      34.451 -16.963 -22.693  0.00  0.00    +0.010 C 
ATOM     12  C   UNL     1      34.500 -17.416 -24.012  0.00  0.00    +0.068 C 
BRANCH  12  14
ATOM     13  N   UNL     1      34.305 -15.729 -25.968  0.00  0.00    -0.191 NA
ATOM     14  C   UNL     1      34.393 -16.486 -25.091  0.00  0.00    +0.100 C 
ENDBRANCH  12  14
ENDBRANCH   1   7
BRANCH   2  15
ATOM     15  O   UNL     1      35.122 -22.876 -17.675  0.00  0.00    -0.475 OA
BRANCH  15  16
ATOM     16  C   UNL     1      33.932 -23.156 -16.951  0.00  0.00    +0.215 C 
BRANCH  16  17
ATOM     17  C   UNL     1      34.235 -23.157 -15.461  0.00  0.00    +0.134 C 
BRANCH  17  20
ATOM     18  O   UNL     1      32.017 -22.923 -14.516  0.00  0.00    -0.273 OA
ATOM     19  N   UNL     1      33.276 -24.787 -13.990  0.00  0.00    -0.197 N 
ATOM     20  C   UNL     1      33.047 -23.583 -14.614  0.00  0.00    +0.248 C 
ATOM     21  H   UNL     1      34.121 -25.279 -14.100  0.00  0.00    +0.182 HD
BRANCH  19  22
ATOM     22  O   UNL     1      32.233 -25.269 -13.189  0.00  0.00    -0.295 OA
ATOM     23  H   UNL     1      31.576 -24.568 -13.056  0.00  0.00    +0.241 HD
ENDBRANCH  19  22
ENDBRANCH  17  20
ENDBRANCH  16  17
ENDBRANCH  15  16
ENDBRANCH   2  15
TORSDOF 7
ENDMDL
MODEL 6
REMARK VINA RESULT:      -9.4      2.597      3.309
REMARK  Name = 10039403
REMARK  7 active torsions:
REMARK  status: ('A' for Active; 'I' for Inactive)
REMARK    1  A    between atoms: C_1  and  C_7
REMARK    2  A    between atoms: C_2  and  O_15
REMARK    3  A    between atoms: C_12  and  C_14
REMARK    4  A    between atoms: O_15  and  C_16
REMARK    5  A    between atoms: C_16  and  C_17
REMARK    6  A    between atoms: C_17  and  C_20
REMARK    7  A    between atoms: N_19  and  O_22
REMARK                            x       y       z     vdW  Elec       q    Type
REMARK                         _______ _______ _______ _____ _____    ______ ____
ROOT
ATOM      1  C   UNL     1      34.641 -20.162 -20.828  0.00  0.00    +0.000 C 
ATOM      2  C   UNL     1      34.705 -21.981 -18.726  0.00  0.00    +0.139 C 
ATOM      3  C   UNL     1      35.861 -20.541 -20.271  0.00  0.00    +0.003 C 
ATOM      4  C   UNL     1      33.452 -20.696 -20.331  0.00  0.00    +0.003 C 
ATOM      5  C   UNL     1      35.895 -21.453 -19.217  0.00  0.00    +0.037 C 
ATOM      6  C   UNL     1      33.484 -21.608 -19.277  0.00  0.00    +0.037 C 
ENDROOT
BRANCH   1   7
ATOM      7  C   UNL     1      34.608 -19.215 -21.921  0.00  0.00    +0.000 C 
ATOM      8  C   UNL     1      34.505 -17.850 -21.658  0.00  0.00    +0.001 C 
ATOM      9  C   UNL     1      34.678 -19.669 -23.239  0.00  0.00    +0.001 C 
ATOM     10  C   UNL     1      34.474 -16.936 -22.712  0.00  0.00    +0.010 C 
ATOM     11  C   UNL     1      34.646 -18.755 -24.293  0.00  0.00    +0.010 C 
ATOM     12  C   UNL     1      34.544 -17.389 -24.029  0.00  0.00    +0.068 C 
BRANCH  12  14
ATOM     13  N   UNL     1      34.487 -15.694 -25.989  0.00  0.00    -0.191 NA
ATOM     14  C   UNL     1      34.512 -16.454 -25.109  0.00  0.00    +0.100 C 
ENDBRANCH  12  14
ENDBRANCH   1   7
BRANCH   2  15
ATOM     15  O   UNL     1      34.737 -22.878 -17.690  0.00  0.00    -0.475 OA
BRANCH  15  16
ATOM     16  C   UNL     1      33.554 -23.631 -17.459  0.00  0.00    +0.215 C 
BRANCH  16  17
ATOM     17  C   UNL     1      32.952 -23.228 -16.122  0.00  0.00    +0.134 C 
BRANCH  17  20
ATOM     18  O   UNL     1      30.813 -24.050 -15.336  0.00  0.00    -0.273 OA
ATOM     19  N   UNL     1      30.866 -22.485 -17.034  0.00  0.00    -0.197 N 
ATOM     20  C   UNL     1      31.435 -23.319 -16.102  0.00  0.00    +0.248 C 
ATOM     21  H   UNL     1      31.409 -21.918 -17.628  0.00  0.00    +0.182 HD
BRANCH  19  22
ATOM     22  O   UNL     1      29.466 -22.492 -17.089  0.00  0.00    -0.295 OA
ATOM     23  H   UNL     1      29.153 -23.395 -17.259  0.00  0.00    +0.241 HD
ENDBRANCH  19  22
ENDBRANCH  17  20
ENDBRANCH  16  17
ENDBRANCH  15  16
ENDBRANCH   2  15
TORSDOF 7
ENDMDL
MODEL 7
REMARK VINA RESULT:      -9.3      4.819      9.236
REMARK  Name = 10039403
REMARK  7 active torsions:
REMARK  status: ('A' for Active; 'I' for Inactive)
REMARK    1  A    between atoms: C_1  and  C_7
REMARK    2  A    between atoms: C_2  and  O_15
REMARK    3  A    between atoms: C_12  and  C_14
REMARK    4  A    between atoms: O_15  and  C_16
REMARK    5  A    between atoms: C_16  and  C_17
REMARK    6  A    between atoms: C_17  and  C_20
REMARK    7  A    between atoms: N_19  and  O_22
REMARK                            x       y       z     vdW  Elec       q    Type
REMARK                         _______ _______ _______ _____ _____    ______ ____
ROOT
ATOM      1  C   UNL     1      34.541 -18.785 -22.176  0.00  0.00    +0.000 C 
ATOM      2  C   UNL     1      34.605 -16.875 -24.196  0.00  0.00    +0.139 C 
ATOM      3  C   UNL     1      34.525 -17.429 -21.853  0.00  0.00    +0.003 C 
ATOM      4  C   UNL     1      34.589 -19.184 -23.511  0.00  0.00    +0.003 C 
ATOM      5  C   UNL     1      34.557 -16.470 -22.866  0.00  0.00    +0.037 C 
ATOM      6  C   UNL     1      34.621 -18.226 -24.524  0.00  0.00    +0.037 C 
ENDROOT
BRANCH   1   7
ATOM      7  C   UNL     1      34.508 -19.779 -21.124  0.00  0.00    +0.000 C 
ATOM      8  C   UNL     1      35.699 -20.293 -20.614  0.00  0.00    +0.001 C 
ATOM      9  C   UNL     1      33.284 -20.222 -20.621  0.00  0.00    +0.001 C 
ATOM     10  C   UNL     1      35.668 -21.250 -19.600  0.00  0.00    +0.010 C 
ATOM     11  C   UNL     1      33.253 -21.180 -19.608  0.00  0.00    +0.010 C 
ATOM     12  C   UNL     1      34.445 -21.694 -19.097  0.00  0.00    +0.068 C 
BRANCH  12  14
ATOM     13  N   UNL     1      34.386 -23.472 -17.213  0.00  0.00    -0.191 NA
ATOM     14  C   UNL     1      34.412 -22.674 -18.059  0.00  0.00    +0.100 C 
ENDBRANCH  12  14
ENDBRANCH   1   7
BRANCH   2  15
ATOM     15  O   UNL     1      34.636 -15.934 -25.191  0.00  0.00    -0.475 OA
BRANCH  15  16
ATOM     16  C   UNL     1      33.403 -15.639 -25.833  0.00  0.00    +0.215 C 
BRANCH  16  17
ATOM     17  C   UNL     1      33.303 -14.140 -26.070  0.00  0.00    +0.134 C 
BRANCH  17  20
ATOM     18  O   UNL     1      32.653 -13.634 -23.792  0.00  0.00    -0.273 OA
ATOM     19  N   UNL     1      34.150 -12.247 -24.873  0.00  0.00    -0.197 N 
ATOM     20  C   UNL     1      33.313 -13.333 -24.782  0.00  0.00    +0.248 C 
ATOM     21  H   UNL     1      34.660 -12.047 -25.691  0.00  0.00    +0.182 HD
BRANCH  19  22
ATOM     22  O   UNL     1      34.235 -11.442 -23.730  0.00  0.00    -0.295 OA
ATOM     23  H   UNL     1      35.085 -10.974 -23.726  0.00  0.00    +0.241 HD
ENDBRANCH  19  22
ENDBRANCH  17  20
ENDBRANCH  16  17
ENDBRANCH  15  16
ENDBRANCH   2  15
TORSDOF 7
ENDMDL
MODEL 8
REMARK VINA RESULT:      -9.3      5.186      9.650
REMARK  Name = 10039403
REMARK  7 active torsions:
REMARK  status: ('A' for Active; 'I' for Inactive)
REMARK    1  A    between atoms: C_1  and  C_7
REMARK    2  A    between atoms: C_2  and  O_15
REMARK    3  A    between atoms: C_12  and  C_14
REMARK    4  A    between atoms: O_15  and  C_16
REMARK    5  A    between atoms: C_16  and  C_17
REMARK    6  A    between atoms: C_17  and  C_20
REMARK    7  A    between atoms: N_19  and  O_22
REMARK                            x       y       z     vdW  Elec       q    Type
REMARK                         _______ _______ _______ _____ _____    ______ ____
ROOT
ATOM      1  C   UNL     1      34.310 -17.962 -21.802  0.00  0.00    +0.000 C 
ATOM      2  C   UNL     1      34.465 -15.623 -23.297  0.00  0.00    +0.139 C 
ATOM      3  C   UNL     1      34.107 -16.727 -21.187  0.00  0.00    +0.003 C 
ATOM      4  C   UNL     1      34.591 -18.025 -23.166  0.00  0.00    +0.003 C 
ATOM      5  C   UNL     1      34.184 -15.553 -21.937  0.00  0.00    +0.037 C 
ATOM      6  C   UNL     1      34.668 -16.851 -23.917  0.00  0.00    +0.037 C 
ENDROOT
BRANCH   1   7
ATOM      7  C   UNL     1      34.230 -19.179 -21.023  0.00  0.00    +0.000 C 
ATOM      8  C   UNL     1      32.988 -19.669 -20.620  0.00  0.00    +0.001 C 
ATOM      9  C   UNL     1      35.396 -19.862 -20.675  0.00  0.00    +0.001 C 
ATOM     10  C   UNL     1      32.911 -20.843 -19.871  0.00  0.00    +0.010 C 
ATOM     11  C   UNL     1      35.319 -21.036 -19.925  0.00  0.00    +0.010 C 
ATOM     12  C   UNL     1      34.076 -21.526 -19.522  0.00  0.00    +0.068 C 
BRANCH  12  14
ATOM     13  N   UNL     1      33.935 -23.707 -18.130  0.00  0.00    -0.191 NA
ATOM     14  C   UNL     1      33.997 -22.728 -18.755  0.00  0.00    +0.100 C 
ENDBRANCH  12  14
ENDBRANCH   1   7
BRANCH   2  15
ATOM     15  O   UNL     1      34.541 -14.471 -24.034  0.00  0.00    -0.475 OA
BRANCH  15  16
ATOM     16  C   UNL     1      33.337 -14.014 -24.636  0.00  0.00    +0.215 C 
BRANCH  16  17
ATOM     17  C   UNL     1      33.605 -12.718 -25.384  0.00  0.00    +0.134 C 
BRANCH  17  20
ATOM     18  O   UNL     1      33.189 -11.283 -23.478  0.00  0.00    -0.273 OA
ATOM     19  N   UNL     1      34.985 -10.831 -24.858  0.00  0.00    -0.197 N 
ATOM     20  C   UNL     1      33.879 -11.543 -24.459  0.00  0.00    +0.248 C 
ATOM     21  H   UNL     1      35.506 -11.080 -25.655  0.00  0.00    +0.182 HD
BRANCH  19  22
ATOM     22  O   UNL     1      35.324  -9.730 -24.062  0.00  0.00    -0.295 OA
ATOM     23  H   UNL     1      36.264  -9.523 -24.180  0.00  0.00    +0.241 HD
ENDBRANCH  19  22
ENDBRANCH  17  20
ENDBRANCH  16  17
ENDBRANCH  15  16
ENDBRANCH   2  15
TORSDOF 7
ENDMDL
MODEL 9
REMARK VINA RESULT:      -9.1      2.292      4.007
REMARK  Name = 10039403
REMARK  7 active torsions:
REMARK  status: ('A' for Active; 'I' for Inactive)
REMARK    1  A    between atoms: C_1  and  C_7
REMARK    2  A    between atoms: C_2  and  O_15
REMARK    3  A    between atoms: C_12  and  C_14
REMARK    4  A    between atoms: O_15  and  C_16
REMARK    5  A    between atoms: C_16  and  C_17
REMARK    6  A    between atoms: C_17  and  C_20
REMARK    7  A    between atoms: N_19  and  O_22
REMARK                            x       y       z     vdW  Elec       q    Type
REMARK                         _______ _______ _______ _____ _____    ______ ____
ROOT
ATOM      1  C   UNL     1      34.879 -21.965 -18.306  0.00  0.00    +0.000 C 
ATOM      2  C   UNL     1      34.978 -23.555 -16.028  0.00  0.00    +0.139 C 
ATOM      3  C   UNL     1      33.776 -22.739 -17.949  0.00  0.00    +0.003 C 
ATOM      4  C   UNL     1      36.032 -21.987 -17.521  0.00  0.00    +0.003 C 
ATOM      5  C   UNL     1      33.825 -23.537 -16.806  0.00  0.00    +0.037 C 
ATOM      6  C   UNL     1      36.081 -22.785 -16.378  0.00  0.00    +0.037 C 
ENDROOT
BRANCH   1   7
ATOM      7  C   UNL     1      34.828 -21.137 -19.492  0.00  0.00    +0.000 C 
ATOM      8  C   UNL     1      36.010 -20.733 -20.111  0.00  0.00    +0.001 C 
ATOM      9  C   UNL     1      33.596 -20.744 -20.016  0.00  0.00    +0.001 C 
ATOM     10  C   UNL     1      35.961 -19.937 -21.256  0.00  0.00    +0.010 C 
ATOM     11  C   UNL     1      33.547 -19.947 -21.159  0.00  0.00    +0.010 C 
ATOM     12  C   UNL     1      34.730 -19.543 -21.779  0.00  0.00    +0.068 C 
BRANCH  12  14
ATOM     13  N   UNL     1      34.637 -18.062 -23.904  0.00  0.00    -0.191 NA
ATOM     14  C   UNL     1      34.679 -18.727 -22.951  0.00  0.00    +0.100 C 
ENDBRANCH  12  14
ENDBRANCH   1   7
BRANCH   2  15
ATOM     15  O   UNL     1      35.026 -24.339 -14.904  0.00  0.00    -0.475 OA
BRANCH  15  16
ATOM     16  C   UNL     1      35.911 -25.450 -14.936  0.00  0.00    +0.215 C 
BRANCH  16  17
ATOM     17  C   UNL     1      37.042 -25.225 -13.945  0.00  0.00    +0.134 C 
BRANCH  17  20
ATOM     18  O   UNL     1      37.260 -26.470 -11.880  0.00  0.00    -0.273 OA
ATOM     19  N   UNL     1      35.609 -24.866 -12.060  0.00  0.00    -0.197 N 
ATOM     20  C   UNL     1      36.670 -25.607 -12.522  0.00  0.00    +0.248 C 
ATOM     21  H   UNL     1      35.167 -24.184 -12.615  0.00  0.00    +0.182 HD
BRANCH  19  22
ATOM     22  O   UNL     1      35.194 -25.141 -10.751  0.00  0.00    -0.295 OA
ATOM     23  H   UNL     1      34.649 -25.943 -10.745  0.00  0.00    +0.241 HD
ENDBRANCH  19  22
ENDBRANCH  17  20
ENDBRANCH  16  17
ENDBRANCH  15  16
ENDBRANCH   2  15
TORSDOF 7
ENDMDL
