MODEL 1
REMARK VINA RESULT:      -7.0      0.000      0.000
REMARK  Name = 5497045
REMARK  6 active torsions:
REMARK  status: ('A' for Active; 'I' for Inactive)
REMARK    1  A    between atoms: C_1  and  C_5
REMARK    2  A    between atoms: C_1  and  N_15
REMARK    3  A    between atoms: N_4  and  C_7
REMARK    4  A    between atoms: C_7  and  C_11
REMARK    5  A    between atoms: C_16  and  O_18
REMARK    6  A    between atoms: O_18  and  C_19
REMARK                            x       y       z     vdW  Elec       q    Type
REMARK                         _______ _______ _______ _____ _____    ______ ____
ROOT
ATOM      1  C   UNL     1      33.369 -23.681 -14.632  0.00  0.00    +0.151 C 
ATOM      2  C   UNL     1      33.157 -24.624 -13.457  0.00  0.00    +0.031 C 
ENDROOT
BRANCH   1   5
ATOM      3  O   UNL     1      34.695 -23.954 -16.641  0.00  0.00    -0.273 OA
ATOM      4  N   UNL     1      35.607 -24.591 -14.605  0.00  0.00    -0.297 N 
ATOM      5  C   UNL     1      34.613 -24.066 -15.420  0.00  0.00    +0.241 C 
ATOM      6  H   UNL     1      35.445 -24.638 -13.635  0.00  0.00    +0.150 HD
BRANCH   4   7
ATOM      7  C   UNL     1      36.867 -25.070 -15.122  0.00  0.00    +0.148 C 
ATOM      8  C   UNL     1      38.031 -24.543 -14.297  0.00  0.00    +0.031 C 
BRANCH   7  11
ATOM      9  O   UNL     1      36.686 -27.275 -16.122  0.00  0.00    -0.274 OA
ATOM     10  N   UNL     1      37.046 -27.123 -13.859  0.00  0.00    -0.327 N 
ATOM     11  C   UNL     1      36.838 -26.590 -15.114  0.00  0.00    +0.237 C 
ATOM     12  H   UNL     1      37.047 -28.099 -13.732  0.00  0.00    +0.145 HD
ATOM     13  H   UNL     1      37.191 -26.527 -13.089  0.00  0.00    +0.145 HD
ENDBRANCH   7  11
ENDBRANCH   4   7
ENDBRANCH   1   5
BRANCH   1  15
ATOM     14  O   UNL     1      30.901 -22.163 -14.440  0.00  0.00    -0.226 OA
ATOM     15  N   UNL     1      32.247 -23.705 -15.532  0.00  0.00    -0.264 N 
ATOM     16  C   UNL     1      31.105 -22.945 -15.363  0.00  0.00    +0.402 C 
ATOM     17  H   UNL     1      32.295 -24.299 -16.316  0.00  0.00    +0.153 HD
BRANCH  16  18
ATOM     18  O   UNL     1      30.228 -23.190 -16.380  0.00  0.00    -0.442 OA
BRANCH  18  19
ATOM     19  C   UNL     1      28.923 -23.631 -15.988  0.00  0.00    +0.138 C 
ATOM     20  C   UNL     1      28.142 -22.429 -15.461  0.00  0.00    +0.044 C 
ATOM     21  C   UNL     1      29.076 -24.698 -14.904  0.00  0.00    +0.044 C 
ATOM     22  C   UNL     1      28.243 -24.215 -17.224  0.00  0.00    +0.044 C 
ENDBRANCH  18  19
ENDBRANCH  16  18
ENDBRANCH   1  15
TORSDOF 6
ENDMDL
MODEL 2
REMARK VINA RESULT:      -7.0      2.130      3.269
REMARK  Name = 5497045
REMARK  6 active torsions:
REMARK  status: ('A' for Active; 'I' for Inactive)
REMARK    1  A    between atoms: C_1  and  C_5
REMARK    2  A    between atoms: C_1  and  N_15
REMARK    3  A    between atoms: N_4  and  C_7
REMARK    4  A    between atoms: C_7  and  C_11
REMARK    5  A    between atoms: C_16  and  O_18
REMARK    6  A    between atoms: O_18  and  C_19
REMARK                            x       y       z     vdW  Elec       q    Type
REMARK                         _______ _______ _______ _____ _____    ______ ____
ROOT
ATOM      1  C   UNL     1      35.898 -23.382 -15.899  0.00  0.00    +0.151 C 
ATOM      2  C   UNL     1      36.908 -22.258 -15.731  0.00  0.00    +0.031 C 
ENDROOT
BRANCH   1   5
ATOM      3  O   UNL     1      35.845 -25.755 -15.412  0.00  0.00    -0.273 OA
ATOM      4  N   UNL     1      37.555 -24.468 -14.517  0.00  0.00    -0.297 N 
ATOM      5  C   UNL     1      36.412 -24.673 -15.277  0.00  0.00    +0.241 C 
ATOM      6  H   UNL     1      37.935 -23.560 -14.473  0.00  0.00    +0.150 HD
BRANCH   4   7
ATOM      7  C   UNL     1      38.210 -25.530 -13.791  0.00  0.00    +0.148 C 
ATOM      8  C   UNL     1      39.723 -25.396 -13.873  0.00  0.00    +0.031 C 
BRANCH   7  11
ATOM      9  O   UNL     1      37.107 -26.385 -11.803  0.00  0.00    -0.274 OA
ATOM     10  N   UNL     1      38.129 -24.331 -11.694  0.00  0.00    -0.327 N 
ATOM     11  C   UNL     1      37.737 -25.481 -12.347  0.00  0.00    +0.237 C 
ATOM     12  H   UNL     1      37.878 -24.189 -10.752  0.00  0.00    +0.145 HD
ATOM     13  H   UNL     1      38.658 -23.651 -12.169  0.00  0.00    +0.145 HD
ENDBRANCH   7  11
ENDBRANCH   4   7
ENDBRANCH   1   5
BRANCH   1  15
ATOM     14  O   UNL     1      33.232 -23.626 -17.025  0.00  0.00    -0.226 OA
ATOM     15  N   UNL     1      34.644 -23.056 -15.273  0.00  0.00    -0.264 N 
ATOM     16  C   UNL     1      33.414 -23.204 -15.887  0.00  0.00    +0.402 C 
ATOM     17  H   UNL     1      34.663 -22.706 -14.353  0.00  0.00    +0.153 HD
BRANCH  16  18
ATOM     18  O   UNL     1      32.420 -22.811 -15.037  0.00  0.00    -0.442 OA
BRANCH  18  19
ATOM     19  C   UNL     1      31.592 -23.857 -14.517  0.00  0.00    +0.138 C 
ATOM     20  C   UNL     1      32.490 -25.004 -14.055  0.00  0.00    +0.044 C 
ATOM     21  C   UNL     1      30.643 -24.320 -15.622  0.00  0.00    +0.044 C 
ATOM     22  C   UNL     1      30.806 -23.281 -13.341  0.00  0.00    +0.044 C 
ENDBRANCH  18  19
ENDBRANCH  16  18
ENDBRANCH   1  15
TORSDOF 6
ENDMDL
MODEL 3
REMARK VINA RESULT:      -6.9     10.671     12.536
REMARK  Name = 5497045
REMARK  6 active torsions:
REMARK  status: ('A' for Active; 'I' for Inactive)
REMARK    1  A    between atoms: C_1  and  C_5
REMARK    2  A    between atoms: C_1  and  N_15
REMARK    3  A    between atoms: N_4  and  C_7
REMARK    4  A    between atoms: C_7  and  C_11
REMARK    5  A    between atoms: C_16  and  O_18
REMARK    6  A    between atoms: O_18  and  C_19
REMARK                            x       y       z     vdW  Elec       q    Type
REMARK                         _______ _______ _______ _____ _____    ______ ____
ROOT
ATOM      1  C   UNL     1      34.625 -16.505 -24.587  0.00  0.00    +0.151 C 
ATOM      2  C   UNL     1      33.716 -16.209 -25.770  0.00  0.00    +0.031 C 
ENDROOT
BRANCH   1   5
ATOM      3  O   UNL     1      35.297 -15.343 -22.569  0.00  0.00    -0.273 OA
ATOM      4  N   UNL     1      33.787 -14.316 -24.000  0.00  0.00    -0.297 N 
ATOM      5  C   UNL     1      34.636 -15.341 -23.605  0.00  0.00    +0.241 C 
ATOM      6  H   UNL     1      33.300 -14.409 -24.851  0.00  0.00    +0.150 HD
BRANCH   4   7
ATOM      7  C   UNL     1      33.590 -13.120 -23.215  0.00  0.00    +0.148 C 
ATOM      8  C   UNL     1      33.490 -11.892 -24.106  0.00  0.00    +0.031 C 
BRANCH   7  11
ATOM      9  O   UNL     1      32.026 -14.343 -21.816  0.00  0.00    -0.274 OA
ATOM     10  N   UNL     1      31.573 -12.145 -22.308  0.00  0.00    -0.327 N 
ATOM     11  C   UNL     1      32.326 -13.298 -22.388  0.00  0.00    +0.237 C 
ATOM     12  H   UNL     1      30.731 -12.142 -21.797  0.00  0.00    +0.145 HD
ATOM     13  H   UNL     1      31.876 -11.327 -22.762  0.00  0.00    +0.145 HD
ENDBRANCH   7  11
ENDBRANCH   4   7
ENDBRANCH   1   5
BRANCH   1  15
ATOM     14  O   UNL     1      36.281 -18.477 -23.245  0.00  0.00    -0.226 OA
ATOM     15  N   UNL     1      34.195 -17.680 -23.877  0.00  0.00    -0.264 N 
ATOM     16  C   UNL     1      35.058 -18.570 -23.265  0.00  0.00    +0.402 C 
ATOM     17  H   UNL     1      33.229 -17.862 -23.825  0.00  0.00    +0.153 HD
BRANCH  16  18
ATOM     18  O   UNL     1      34.347 -19.578 -22.678  0.00  0.00    -0.442 OA
BRANCH  18  19
ATOM     19  C   UNL     1      34.196 -19.492 -21.257  0.00  0.00    +0.138 C 
ATOM     20  C   UNL     1      35.369 -20.216 -20.599  0.00  0.00    +0.044 C 
ATOM     21  C   UNL     1      32.869 -20.142 -20.869  0.00  0.00    +0.044 C 
ATOM     22  C   UNL     1      34.199 -18.012 -20.881  0.00  0.00    +0.044 C 
ENDBRANCH  18  19
ENDBRANCH  16  18
ENDBRANCH   1  15
TORSDOF 6
ENDMDL
MODEL 4
REMARK VINA RESULT:      -6.9      2.606      3.187
REMARK  Name = 5497045
REMARK  6 active torsions:
REMARK  status: ('A' for Active; 'I' for Inactive)
REMARK    1  A    between atoms: C_1  and  C_5
REMARK    2  A    between atoms: C_1  and  N_15
REMARK    3  A    between atoms: N_4  and  C_7
REMARK    4  A    between atoms: C_7  and  C_11
REMARK    5  A    between atoms: C_16  and  O_18
REMARK    6  A    between atoms: O_18  and  C_19
REMARK                            x       y       z     vdW  Elec       q    Type
REMARK                         _______ _______ _______ _____ _____    ______ ____
ROOT
ATOM      1  C   UNL     1      34.308 -23.877 -14.675  0.00  0.00    +0.151 C 
ATOM      2  C   UNL     1      35.145 -22.863 -15.440  0.00  0.00    +0.031 C 
ENDROOT
BRANCH   1   5
ATOM      3  O   UNL     1      34.306 -24.141 -12.266  0.00  0.00    -0.273 OA
ATOM      4  N   UNL     1      36.285 -24.484 -13.427  0.00  0.00    -0.297 N 
ATOM      5  C   UNL     1      34.933 -24.189 -13.322  0.00  0.00    +0.241 C 
ATOM      6  H   UNL     1      36.697 -24.498 -14.322  0.00  0.00    +0.150 HD
BRANCH   4   7
ATOM      7  C   UNL     1      37.112 -24.773 -12.279  0.00  0.00    +0.148 C 
ATOM      8  C   UNL     1      38.399 -25.468 -12.694  0.00  0.00    +0.031 C 
BRANCH   7  11
ATOM      9  O   UNL     1      38.152 -22.596 -12.007  0.00  0.00    -0.274 OA
ATOM     10  N   UNL     1      36.707 -23.333 -10.381  0.00  0.00    -0.327 N 
ATOM     11  C   UNL     1      37.405 -23.464 -11.563  0.00  0.00    +0.237 C 
ATOM     12  H   UNL     1      36.819 -22.524  -9.831  0.00  0.00    +0.145 HD
ATOM     13  H   UNL     1      36.099 -24.048 -10.087  0.00  0.00    +0.145 HD
ENDBRANCH   7  11
ENDBRANCH   4   7
ENDBRANCH   1   5
BRANCH   1  15
ATOM     14  O   UNL     1      31.889 -25.431 -14.265  0.00  0.00    -0.226 OA
ATOM     15  N   UNL     1      32.974 -23.387 -14.446  0.00  0.00    -0.264 N 
ATOM     16  C   UNL     1      31.874 -24.204 -14.260  0.00  0.00    +0.402 C 
ATOM     17  H   UNL     1      32.836 -22.413 -14.421  0.00  0.00    +0.153 HD
BRANCH  16  18
ATOM     18  O   UNL     1      30.757 -23.443 -14.068  0.00  0.00    -0.442 OA
BRANCH  18  19
ATOM     19  C   UNL     1      29.873 -23.334 -15.188  0.00  0.00    +0.138 C 
ATOM     20  C   UNL     1      30.706 -23.078 -16.443  0.00  0.00    +0.044 C 
ATOM     21  C   UNL     1      28.905 -22.178 -14.933  0.00  0.00    +0.044 C 
ATOM     22  C   UNL     1      29.113 -24.653 -15.306  0.00  0.00    +0.044 C 
ENDBRANCH  18  19
ENDBRANCH  16  18
ENDBRANCH   1  15
TORSDOF 6
ENDMDL
MODEL 5
REMARK VINA RESULT:      -6.9      3.722      6.666
REMARK  Name = 5497045
REMARK  6 active torsions:
REMARK  status: ('A' for Active; 'I' for Inactive)
REMARK    1  A    between atoms: C_1  and  C_5
REMARK    2  A    between atoms: C_1  and  N_15
REMARK    3  A    between atoms: N_4  and  C_7
REMARK    4  A    between atoms: C_7  and  C_11
REMARK    5  A    between atoms: C_16  and  O_18
REMARK    6  A    between atoms: O_18  and  C_19
REMARK                            x       y       z     vdW  Elec       q    Type
REMARK                         _______ _______ _______ _____ _____    ______ ____
ROOT
ATOM      1  C   UNL     1      33.194 -23.468 -17.236  0.00  0.00    +0.151 C 
ATOM      2  C   UNL     1      31.869 -22.821 -16.863  0.00  0.00    +0.031 C 
ENDROOT
BRANCH   1   5
ATOM      3  O   UNL     1      33.992 -23.900 -19.484  0.00  0.00    -0.273 OA
ATOM      4  N   UNL     1      33.541 -21.711 -18.858  0.00  0.00    -0.297 N 
ATOM      5  C   UNL     1      33.608 -23.082 -18.650  0.00  0.00    +0.241 C 
ATOM      6  H   UNL     1      33.218 -21.139 -18.125  0.00  0.00    +0.150 HD
BRANCH   4   7
ATOM      7  C   UNL     1      33.923 -21.092 -20.105  0.00  0.00    +0.148 C 
ATOM      8  C   UNL     1      32.910 -20.040 -20.526  0.00  0.00    +0.031 C 
BRANCH   7  11
ATOM      9  O   UNL     1      36.166 -20.942 -19.185  0.00  0.00    -0.274 OA
ATOM     10  N   UNL     1      35.504 -19.374 -20.726  0.00  0.00    -0.327 N 
ATOM     11  C   UNL     1      35.304 -20.480 -19.928  0.00  0.00    +0.237 C 
ATOM     12  H   UNL     1      36.364 -18.893 -20.695  0.00  0.00    +0.145 HD
ATOM     13  H   UNL     1      34.789 -19.062 -21.326  0.00  0.00    +0.145 HD
ENDBRANCH   7  11
ENDBRANCH   4   7
ENDBRANCH   1   5
BRANCH   1  15
ATOM     14  O   UNL     1      33.760 -24.499 -14.581  0.00  0.00    -0.226 OA
ATOM     15  N   UNL     1      34.245 -23.065 -16.340  0.00  0.00    -0.264 N 
ATOM     16  C   UNL     1      34.441 -23.613 -15.086  0.00  0.00    +0.402 C 
ATOM     17  H   UNL     1      34.860 -22.356 -16.637  0.00  0.00    +0.153 HD
BRANCH  16  18
ATOM     18  O   UNL     1      35.515 -23.022 -14.483  0.00  0.00    -0.442 OA
BRANCH  18  19
ATOM     19  C   UNL     1      36.760 -23.719 -14.599  0.00  0.00    +0.138 C 
ATOM     20  C   UNL     1      36.476 -25.149 -15.056  0.00  0.00    +0.044 C 
ATOM     21  C   UNL     1      37.449 -23.711 -13.234  0.00  0.00    +0.044 C 
ATOM     22  C   UNL     1      37.608 -22.982 -15.632  0.00  0.00    +0.044 C 
ENDBRANCH  18  19
ENDBRANCH  16  18
ENDBRANCH   1  15
TORSDOF 6
ENDMDL
MODEL 6
REMARK VINA RESULT:      -6.9     13.847     15.618
REMARK  Name = 5497045
REMARK  6 active torsions:
REMARK  status: ('A' for Active; 'I' for Inactive)
REMARK    1  A    between atoms: C_1  and  C_5
REMARK    2  A    between atoms: C_1  and  N_15
REMARK    3  A    between atoms: N_4  and  C_7
REMARK    4  A    between atoms: C_7  and  C_11
REMARK    5  A    between atoms: C_16  and  O_18
REMARK    6  A    between atoms: O_18  and  C_19
REMARK                            x       y       z     vdW  Elec       q    Type
REMARK                         _______ _______ _______ _____ _____    ______ ____
ROOT
ATOM      1  C   UNL     1      34.153 -11.727 -24.380  0.00  0.00    +0.151 C 
ATOM      2  C   UNL     1      33.774 -11.810 -25.851  0.00  0.00    +0.031 C 
ENDROOT
BRANCH   1   5
ATOM      3  O   UNL     1      34.968  -9.488 -23.941  0.00  0.00    -0.273 OA
ATOM      4  N   UNL     1      32.812 -10.041 -23.287  0.00  0.00    -0.297 N 
ATOM      5  C   UNL     1      34.045 -10.297 -23.870  0.00  0.00    +0.241 C 
ATOM      6  H   UNL     1      32.136 -10.758 -23.280  0.00  0.00    +0.150 HD
BRANCH   4   7
ATOM      7  C   UNL     1      32.479  -8.770 -22.690  0.00  0.00    +0.148 C 
ATOM      8  C   UNL     1      31.264  -8.151 -23.362  0.00  0.00    +0.031 C 
BRANCH   7  11
ATOM      9  O   UNL     1      31.521  -9.890 -20.761  0.00  0.00    -0.274 OA
ATOM     10  N   UNL     1      32.918  -8.102 -20.409  0.00  0.00    -0.327 N 
ATOM     11  C   UNL     1      32.229  -8.991 -21.207  0.00  0.00    +0.237 C 
ATOM     12  H   UNL     1      32.832  -8.150 -19.429  0.00  0.00    +0.145 HD
ATOM     13  H   UNL     1      33.495  -7.418 -20.819  0.00  0.00    +0.145 HD
ENDBRANCH   7  11
ENDBRANCH   4   7
ENDBRANCH   1   5
BRANCH   1  15
ATOM     14  O   UNL     1      34.429 -14.562 -23.814  0.00  0.00    -0.226 OA
ATOM     15  N   UNL     1      33.295 -12.553 -23.572  0.00  0.00    -0.264 N 
ATOM     16  C   UNL     1      33.503 -13.902 -23.355  0.00  0.00    +0.402 C 
ATOM     17  H   UNL     1      32.512 -12.131 -23.148  0.00  0.00    +0.153 HD
BRANCH  16  18
ATOM     18  O   UNL     1      32.520 -14.400 -22.548  0.00  0.00    -0.442 OA
BRANCH  18  19
ATOM     19  C   UNL     1      32.853 -14.526 -21.161  0.00  0.00    +0.138 C 
ATOM     20  C   UNL     1      32.331 -13.294 -20.423  0.00  0.00    +0.044 C 
ATOM     21  C   UNL     1      34.372 -14.632 -21.034  0.00  0.00    +0.044 C 
ATOM     22  C   UNL     1      32.180 -15.792 -20.638  0.00  0.00    +0.044 C 
ENDBRANCH  18  19
ENDBRANCH  16  18
ENDBRANCH   1  15
TORSDOF 6
ENDMDL
MODEL 7
REMARK VINA RESULT:      -6.8      2.515      3.526
REMARK  Name = 5497045
REMARK  6 active torsions:
REMARK  status: ('A' for Active; 'I' for Inactive)
REMARK    1  A    between atoms: C_1  and  C_5
REMARK    2  A    between atoms: C_1  and  N_15
REMARK    3  A    between atoms: N_4  and  C_7
REMARK    4  A    between atoms: C_7  and  C_11
REMARK    5  A    between atoms: C_16  and  O_18
REMARK    6  A    between atoms: O_18  and  C_19
REMARK                            x       y       z     vdW  Elec       q    Type
REMARK                         _______ _______ _______ _____ _____    ______ ____
ROOT
ATOM      1  C   UNL     1      36.303 -23.016 -15.683  0.00  0.00    +0.151 C 
ATOM      2  C   UNL     1      36.789 -21.852 -16.533  0.00  0.00    +0.031 C 
ENDROOT
BRANCH   1   5
ATOM      3  O   UNL     1      37.530 -22.432 -13.677  0.00  0.00    -0.273 OA
ATOM      4  N   UNL     1      37.798 -24.556 -14.573  0.00  0.00    -0.297 N 
ATOM      5  C   UNL     1      37.255 -23.279 -14.525  0.00  0.00    +0.241 C 
ATOM      6  H   UNL     1      37.512 -25.162 -15.294  0.00  0.00    +0.150 HD
BRANCH   4   7
ATOM      7  C   UNL     1      38.762 -25.031 -13.609  0.00  0.00    +0.148 C 
ATOM      8  C   UNL     1      38.135 -26.042 -12.662  0.00  0.00    +0.031 C 
BRANCH   7  11
ATOM      9  O   UNL     1      40.741 -26.414 -13.861  0.00  0.00    -0.274 OA
ATOM     10  N   UNL     1      39.956 -25.278 -15.695  0.00  0.00    -0.327 N 
ATOM     11  C   UNL     1      39.929 -25.643 -14.366  0.00  0.00    +0.237 C 
ATOM     12  H   UNL     1      40.669 -25.615 -16.284  0.00  0.00    +0.145 HD
ATOM     13  H   UNL     1      39.263 -24.679 -16.055  0.00  0.00    +0.145 HD
ENDBRANCH   7  11
ENDBRANCH   4   7
ENDBRANCH   1   5
BRANCH   1  15
ATOM     14  O   UNL     1      34.443 -24.927 -14.533  0.00  0.00    -0.226 OA
ATOM     15  N   UNL     1      34.998 -22.756 -15.135  0.00  0.00    -0.264 N 
ATOM     16  C   UNL     1      34.175 -23.732 -14.606  0.00  0.00    +0.402 C 
ATOM     17  H   UNL     1      34.671 -21.827 -15.139  0.00  0.00    +0.153 HD
BRANCH  16  18
ATOM     18  O   UNL     1      33.009 -23.171 -14.169  0.00  0.00    -0.442 OA
BRANCH  18  19
ATOM     19  C   UNL     1      31.828 -23.546 -14.886  0.00  0.00    +0.138 C 
ATOM     20  C   UNL     1      30.714 -22.561 -14.535  0.00  0.00    +0.044 C 
ATOM     21  C   UNL     1      31.444 -24.968 -14.479  0.00  0.00    +0.044 C 
ATOM     22  C   UNL     1      32.153 -23.482 -16.376  0.00  0.00    +0.044 C 
ENDBRANCH  18  19
ENDBRANCH  16  18
ENDBRANCH   1  15
TORSDOF 6
ENDMDL
MODEL 8
REMARK VINA RESULT:      -6.8      1.935      6.837
REMARK  Name = 5497045
REMARK  6 active torsions:
REMARK  status: ('A' for Active; 'I' for Inactive)
REMARK    1  A    between atoms: C_1  and  C_5
REMARK    2  A    between atoms: C_1  and  N_15
REMARK    3  A    between atoms: N_4  and  C_7
REMARK    4  A    between atoms: C_7  and  C_11
REMARK    5  A    between atoms: C_16  and  O_18
REMARK    6  A    between atoms: O_18  and  C_19
REMARK                            x       y       z     vdW  Elec       q    Type
REMARK                         _______ _______ _______ _____ _____    ______ ____
ROOT
ATOM      1  C   UNL     1      34.220 -23.203 -15.640  0.00  0.00    +0.151 C 
ATOM      2  C   UNL     1      33.800 -23.344 -17.094  0.00  0.00    +0.031 C 
ENDROOT
BRANCH   1   5
ATOM      3  O   UNL     1      33.122 -23.617 -13.519  0.00  0.00    -0.273 OA
ATOM      4  N   UNL     1      31.818 -23.154 -15.381  0.00  0.00    -0.297 N 
ATOM      5  C   UNL     1      33.020 -23.338 -14.711  0.00  0.00    +0.241 C 
ATOM      6  H   UNL     1      31.842 -22.933 -16.341  0.00  0.00    +0.150 HD
BRANCH   4   7
ATOM      7  C   UNL     1      30.536 -23.274 -14.729  0.00  0.00    +0.148 C 
ATOM      8  C   UNL     1      29.425 -22.706 -15.599  0.00  0.00    +0.031 C 
BRANCH   7  11
ATOM      9  O   UNL     1      30.063 -25.590 -15.285  0.00  0.00    -0.274 OA
ATOM     10  N   UNL     1      30.402 -25.037 -13.082  0.00  0.00    -0.327 N 
ATOM     11  C   UNL     1      30.292 -24.744 -14.425  0.00  0.00    +0.237 C 
ATOM     12  H   UNL     1      30.264 -25.960 -12.766  0.00  0.00    +0.145 HD
ATOM     13  H   UNL     1      30.616 -24.325 -12.438  0.00  0.00    +0.145 HD
ENDBRANCH   7  11
ENDBRANCH   4   7
ENDBRANCH   1   5
BRANCH   1  15
ATOM     14  O   UNL     1      37.116 -23.020 -15.751  0.00  0.00    -0.226 OA
ATOM     15  N   UNL     1      35.181 -24.208 -15.272  0.00  0.00    -0.264 N 
ATOM     16  C   UNL     1      36.550 -24.035 -15.358  0.00  0.00    +0.402 C 
ATOM     17  H   UNL     1      34.844 -25.072 -14.940  0.00  0.00    +0.153 HD
BRANCH  16  18
ATOM     18  O   UNL     1      37.189 -25.166 -14.938  0.00  0.00    -0.442 OA
BRANCH  18  19
ATOM     19  C   UNL     1      37.781 -25.104 -13.636  0.00  0.00    +0.138 C 
ATOM     20  C   UNL     1      37.409 -23.768 -12.996  0.00  0.00    +0.044 C 
ATOM     21  C   UNL     1      39.297 -25.232 -13.785  0.00  0.00    +0.044 C 
ATOM     22  C   UNL     1      37.222 -26.266 -12.819  0.00  0.00    +0.044 C 
ENDBRANCH  18  19
ENDBRANCH  16  18
ENDBRANCH   1  15
TORSDOF 6
ENDMDL
MODEL 9
REMARK VINA RESULT:      -6.7      2.411      6.990
REMARK  Name = 5497045
REMARK  6 active torsions:
REMARK  status: ('A' for Active; 'I' for Inactive)
REMARK    1  A    between atoms: C_1  and  C_5
REMARK    2  A    between atoms: C_1  and  N_15
REMARK    3  A    between atoms: N_4  and  C_7
REMARK    4  A    between atoms: C_7  and  C_11
REMARK    5  A    between atoms: C_16  and  O_18
REMARK    6  A    between atoms: O_18  and  C_19
REMARK                            x       y       z     vdW  Elec       q    Type
REMARK                         _______ _______ _______ _____ _____    ______ ____
ROOT
ATOM      1  C   UNL     1      35.978 -22.369 -15.955  0.00  0.00    +0.151 C 
ATOM      2  C   UNL     1      36.265 -22.009 -17.404  0.00  0.00    +0.031 C 
ENDROOT
BRANCH   1   5
ATOM      3  O   UNL     1      34.871 -24.494 -16.317  0.00  0.00    -0.273 OA
ATOM      4  N   UNL     1      33.711 -22.799 -15.238  0.00  0.00    -0.297 N 
ATOM      5  C   UNL     1      34.822 -23.355 -15.858  0.00  0.00    +0.241 C 
ATOM      6  H   UNL     1      33.772 -21.875 -14.902  0.00  0.00    +0.150 HD
BRANCH   4   7
ATOM      7  C   UNL     1      32.472 -23.520 -15.064  0.00  0.00    +0.148 C 
ATOM      8  C   UNL     1      31.880 -23.264 -13.687  0.00  0.00    +0.031 C 
BRANCH   7  11
ATOM      9  O   UNL     1      31.870 -22.725 -17.278  0.00  0.00    -0.274 OA
ATOM     10  N   UNL     1      30.189 -23.185 -15.781  0.00  0.00    -0.327 N 
ATOM     11  C   UNL     1      31.512 -23.086 -16.160  0.00  0.00    +0.237 C 
ATOM     12  H   UNL     1      29.477 -22.929 -16.411  0.00  0.00    +0.145 HD
ATOM     13  H   UNL     1      29.957 -23.508 -14.882  0.00  0.00    +0.145 HD
ENDBRANCH   7  11
ENDBRANCH   4   7
ENDBRANCH   1   5
BRANCH   1  15
ATOM     14  O   UNL     1      36.245 -23.243 -13.198  0.00  0.00    -0.226 OA
ATOM     15  N   UNL     1      37.126 -22.968 -15.328  0.00  0.00    -0.264 N 
ATOM     16  C   UNL     1      37.166 -23.356 -14.002  0.00  0.00    +0.402 C 
ATOM     17  H   UNL     1      37.932 -23.110 -15.875  0.00  0.00    +0.153 HD
BRANCH  16  18
ATOM     18  O   UNL     1      38.389 -23.888 -13.709  0.00  0.00    -0.442 OA
BRANCH  18  19
ATOM     19  C   UNL     1      38.466 -25.318 -13.711  0.00  0.00    +0.138 C 
ATOM     20  C   UNL     1      39.926 -25.726 -13.898  0.00  0.00    +0.044 C 
ATOM     21  C   UNL     1      37.601 -25.849 -14.854  0.00  0.00    +0.044 C 
ATOM     22  C   UNL     1      37.938 -25.810 -12.366  0.00  0.00    +0.044 C 
ENDBRANCH  18  19
ENDBRANCH  16  18
ENDBRANCH   1  15
TORSDOF 6
ENDMDL
