MODEL 1
REMARK VINA RESULT:      -7.4      0.000      0.000
REMARK  Name = 34474
REMARK  1 active torsions:
REMARK  status: ('A' for Active; 'I' for Inactive)
REMARK    1  A    between atoms: C_5  and  C_12
REMARK                            x       y       z     vdW  Elec       q    Type
REMARK                         _______ _______ _______ _____ _____    ______ ____
ROOT
ATOM      1 BR   UNL     1      35.286 -19.138 -24.277  0.00  0.00    -0.046 Br
ATOM      2 BR   UNL     1      32.694 -13.338 -22.351  0.00  0.00    -0.046 Br
ATOM      3  O   UNL     1      33.666 -15.669 -20.735  0.00  0.00    -0.286 OA
ATOM      4  O   UNL     1      34.310 -16.808 -25.894  0.00  0.00    -0.286 OA
ATOM      5  C   UNL     1      34.399 -17.238 -22.343  0.00  0.00    +0.026 C 
ATOM      6  C   UNL     1      34.559 -17.522 -23.646  0.00  0.00    +0.072 C 
ATOM      7  C   UNL     1      33.814 -15.929 -21.928  0.00  0.00    +0.198 C 
ATOM      8  C   UNL     1      33.580 -15.238 -24.285  0.00  0.00    +0.027 C 
ATOM      9  C   UNL     1      33.418 -14.955 -22.983  0.00  0.00    +0.072 C 
ATOM     10  C   UNL     1      34.163 -16.548 -24.701  0.00  0.00    +0.198 C 
ATOM     11  C   UNL     1      33.218 -14.335 -25.437  0.00  0.00    +0.035 C 
ENDROOT
BRANCH   5  12
ATOM     12  C   UNL     1      34.763 -18.141 -21.192  0.00  0.00    +0.026 C 
ATOM     13  C   UNL     1      33.821 -19.337 -21.153  0.00  0.00    +0.005 C 
ATOM     14  C   UNL     1      36.215 -18.586 -21.302  0.00  0.00    +0.005 C 
ENDBRANCH   5  12
TORSDOF 1
ENDMDL
MODEL 2
REMARK VINA RESULT:      -7.4      1.781      4.116
REMARK  Name = 34474
REMARK  1 active torsions:
REMARK  status: ('A' for Active; 'I' for Inactive)
REMARK    1  A    between atoms: C_5  and  C_12
REMARK                            x       y       z     vdW  Elec       q    Type
REMARK                         _______ _______ _______ _____ _____    ______ ____
ROOT
ATOM      1 BR   UNL     1      33.038 -14.587 -25.691  0.00  0.00    -0.046 Br
ATOM      2 BR   UNL     1      35.858 -18.512 -21.141  0.00  0.00    -0.046 Br
ATOM      3  O   UNL     1      34.937 -15.664 -20.954  0.00  0.00    -0.286 OA
ATOM      4  O   UNL     1      33.963 -17.434 -25.879  0.00  0.00    -0.286 OA
ATOM      5  C   UNL     1      34.077 -15.180 -23.102  0.00  0.00    +0.026 C 
ATOM      6  C   UNL     1      33.834 -15.631 -24.343  0.00  0.00    +0.072 C 
ATOM      7  C   UNL     1      34.712 -16.077 -22.091  0.00  0.00    +0.198 C 
ATOM      8  C   UNL     1      34.820 -17.919 -23.730  0.00  0.00    +0.027 C 
ATOM      9  C   UNL     1      35.064 -17.468 -22.489  0.00  0.00    +0.072 C 
ATOM     10  C   UNL     1      34.187 -17.022 -24.742  0.00  0.00    +0.198 C 
ATOM     11  C   UNL     1      35.130 -19.301 -24.245  0.00  0.00    +0.035 C 
ENDROOT
BRANCH   5  12
ATOM     12  C   UNL     1      33.765 -13.799 -22.587  0.00  0.00    +0.026 C 
ATOM     13  C   UNL     1      33.983 -12.772 -23.691  0.00  0.00    +0.005 C 
ATOM     14  C   UNL     1      32.340 -13.739 -22.051  0.00  0.00    +0.005 C 
ENDBRANCH   5  12
TORSDOF 1
ENDMDL
MODEL 3
REMARK VINA RESULT:      -6.8      2.002      3.298
REMARK  Name = 34474
REMARK  1 active torsions:
REMARK  status: ('A' for Active; 'I' for Inactive)
REMARK    1  A    between atoms: C_5  and  C_12
REMARK                            x       y       z     vdW  Elec       q    Type
REMARK                         _______ _______ _______ _____ _____    ______ ____
ROOT
ATOM      1 BR   UNL     1      34.852 -16.872 -20.715  0.00  0.00    -0.046 Br
ATOM      2 BR   UNL     1      33.051 -14.244 -26.538  0.00  0.00    -0.046 Br
ATOM      3  O   UNL     1      34.492 -16.800 -25.917  0.00  0.00    -0.286 OA
ATOM      4  O   UNL     1      33.414 -14.315 -21.336  0.00  0.00    -0.286 OA
ATOM      5  C   UNL     1      34.653 -16.829 -23.560  0.00  0.00    +0.026 C 
ATOM      6  C   UNL     1      34.379 -16.199 -22.406  0.00  0.00    +0.072 C 
ATOM      7  C   UNL     1      34.241 -16.223 -24.860  0.00  0.00    +0.198 C 
ATOM      8  C   UNL     1      33.251 -14.287 -23.693  0.00  0.00    +0.027 C 
ATOM      9  C   UNL     1      33.525 -14.917 -24.847  0.00  0.00    +0.072 C 
ATOM     10  C   UNL     1      33.665 -14.892 -22.392  0.00  0.00    +0.198 C 
ATOM     11  C   UNL     1      32.535 -12.969 -23.556  0.00  0.00    +0.035 C 
ENDROOT
BRANCH   5  12
ATOM     12  C   UNL     1      35.367 -18.149 -23.696  0.00  0.00    +0.026 C 
ATOM     13  C   UNL     1      36.531 -18.213 -22.716  0.00  0.00    +0.005 C 
ATOM     14  C   UNL     1      34.399 -19.304 -23.479  0.00  0.00    +0.005 C 
ENDBRANCH   5  12
TORSDOF 1
ENDMDL
MODEL 4
REMARK VINA RESULT:      -6.7      9.646     11.373
REMARK  Name = 34474
REMARK  1 active torsions:
REMARK  status: ('A' for Active; 'I' for Inactive)
REMARK    1  A    between atoms: C_5  and  C_12
REMARK                            x       y       z     vdW  Elec       q    Type
REMARK                         _______ _______ _______ _____ _____    ______ ____
ROOT
ATOM      1 BR   UNL     1      37.671 -23.002 -15.727  0.00  0.00    -0.046 Br
ATOM      2 BR   UNL     1      31.462 -24.396 -13.836  0.00  0.00    -0.046 Br
ATOM      3  O   UNL     1      34.054 -24.648 -12.349  0.00  0.00    -0.286 OA
ATOM      4  O   UNL     1      35.079 -22.753 -17.216  0.00  0.00    -0.286 OA
ATOM      5  C   UNL     1      35.690 -23.901 -13.882  0.00  0.00    +0.026 C 
ATOM      6  C   UNL     1      35.944 -23.424 -15.111  0.00  0.00    +0.072 C 
ATOM      7  C   UNL     1      34.287 -24.210 -13.474  0.00  0.00    +0.198 C 
ATOM      8  C   UNL     1      33.443 -23.497 -15.681  0.00  0.00    +0.027 C 
ATOM      9  C   UNL     1      33.189 -23.976 -14.453  0.00  0.00    +0.072 C 
ATOM     10  C   UNL     1      34.846 -23.191 -16.090  0.00  0.00    +0.198 C 
ATOM     11  C   UNL     1      32.418 -23.221 -16.751  0.00  0.00    +0.035 C 
ENDROOT
BRANCH   5  12
ATOM     12  C   UNL     1      36.715 -24.176 -12.813  0.00  0.00    +0.026 C 
ATOM     13  C   UNL     1      37.790 -25.110 -13.351  0.00  0.00    +0.005 C 
ATOM     14  C   UNL     1      37.320 -22.872 -12.307  0.00  0.00    +0.005 C 
ENDBRANCH   5  12
TORSDOF 1
ENDMDL
MODEL 5
REMARK VINA RESULT:      -6.7      9.639     11.323
REMARK  Name = 34474
REMARK  1 active torsions:
REMARK  status: ('A' for Active; 'I' for Inactive)
REMARK    1  A    between atoms: C_5  and  C_12
REMARK                            x       y       z     vdW  Elec       q    Type
REMARK                         _______ _______ _______ _____ _____    ______ ____
ROOT
ATOM      1 BR   UNL     1      32.363 -23.160 -16.943  0.00  0.00    -0.046 Br
ATOM      2 BR   UNL     1      37.323 -23.661 -12.560  0.00  0.00    -0.046 Br
ATOM      3  O   UNL     1      34.363 -23.981 -12.197  0.00  0.00    -0.286 OA
ATOM      4  O   UNL     1      35.322 -22.836 -17.305  0.00  0.00    -0.286 OA
ATOM      5  C   UNL     1      33.461 -23.608 -14.349  0.00  0.00    +0.026 C 
ATOM      6  C   UNL     1      33.707 -23.319 -15.637  0.00  0.00    +0.072 C 
ATOM      7  C   UNL     1      34.589 -23.717 -13.376  0.00  0.00    +0.198 C 
ATOM      8  C   UNL     1      36.225 -23.212 -15.154  0.00  0.00    +0.027 C 
ATOM      9  C   UNL     1      35.979 -23.500 -13.866  0.00  0.00    +0.072 C 
ATOM     10  C   UNL     1      35.097 -23.101 -16.125  0.00  0.00    +0.198 C 
ATOM     11  C   UNL     1      37.583 -22.974 -15.761  0.00  0.00    +0.035 C 
ENDROOT
BRANCH   5  12
ATOM     12  C   UNL     1      32.102 -23.848 -13.743  0.00  0.00    +0.026 C 
ATOM     13  C   UNL     1      31.146 -22.736 -14.153  0.00  0.00    +0.005 C 
ATOM     14  C   UNL     1      31.569 -25.215 -14.154  0.00  0.00    +0.005 C 
ENDBRANCH   5  12
TORSDOF 1
ENDMDL
MODEL 6
REMARK VINA RESULT:      -6.7      6.353      9.065
REMARK  Name = 34474
REMARK  1 active torsions:
REMARK  status: ('A' for Active; 'I' for Inactive)
REMARK    1  A    between atoms: C_5  and  C_12
REMARK                            x       y       z     vdW  Elec       q    Type
REMARK                         _______ _______ _______ _____ _____    ______ ____
ROOT
ATOM      1 BR   UNL     1      32.401  -6.388 -20.973  0.00  0.00    -0.046 Br
ATOM      2 BR   UNL     1      32.210 -12.849 -22.482  0.00  0.00    -0.046 Br
ATOM      3  O   UNL     1      33.006 -10.484 -24.145  0.00  0.00    -0.286 OA
ATOM      4  O   UNL     1      31.601  -8.753 -19.312  0.00  0.00    -0.286 OA
ATOM      5  C   UNL     1      32.731  -8.630 -22.705  0.00  0.00    +0.026 C 
ATOM      6  C   UNL     1      32.375  -8.198 -21.484  0.00  0.00    +0.072 C 
ATOM      7  C   UNL     1      32.682 -10.087 -23.027  0.00  0.00    +0.198 C 
ATOM      8  C   UNL     1      31.879 -10.606 -20.751  0.00  0.00    +0.027 C 
ATOM      9  C   UNL     1      32.234 -11.039 -21.972  0.00  0.00    +0.072 C 
ATOM     10  C   UNL     1      31.927  -9.149 -20.430  0.00  0.00    +0.198 C 
ATOM     11  C   UNL     1      31.413 -11.472 -19.609  0.00  0.00    +0.035 C 
ENDROOT
BRANCH   5  12
ATOM     12  C   UNL     1      33.199  -7.764 -23.846  0.00  0.00    +0.026 C 
ATOM     13  C   UNL     1      32.259  -6.579 -24.018  0.00  0.00    +0.005 C 
ATOM     14  C   UNL     1      34.632  -7.303 -23.612  0.00  0.00    +0.005 C 
ENDBRANCH   5  12
TORSDOF 1
ENDMDL
MODEL 7
REMARK VINA RESULT:      -6.5      8.937     10.968
REMARK  Name = 34474
REMARK  1 active torsions:
REMARK  status: ('A' for Active; 'I' for Inactive)
REMARK    1  A    between atoms: C_5  and  C_12
REMARK                            x       y       z     vdW  Elec       q    Type
REMARK                         _______ _______ _______ _____ _____    ______ ____
ROOT
ATOM      1 BR   UNL     1      31.080 -24.673 -13.332  0.00  0.00    -0.046 Br
ATOM      2 BR   UNL     1      34.963 -22.386 -18.206  0.00  0.00    -0.046 Br
ATOM      3  O   UNL     1      31.975 -22.495 -17.986  0.00  0.00    -0.286 OA
ATOM      4  O   UNL     1      34.069 -24.567 -13.553  0.00  0.00    -0.286 OA
ATOM      5  C   UNL     1      31.574 -23.482 -15.877  0.00  0.00    +0.026 C 
ATOM      6  C   UNL     1      32.106 -24.004 -14.760  0.00  0.00    +0.072 C 
ATOM      7  C   UNL     1      32.462 -22.973 -16.963  0.00  0.00    +0.198 C 
ATOM      8  C   UNL     1      34.470 -23.577 -15.661  0.00  0.00    +0.027 C 
ATOM      9  C   UNL     1      33.938 -23.056 -16.779  0.00  0.00    +0.072 C 
ATOM     10  C   UNL     1      33.582 -24.088 -14.576  0.00  0.00    +0.198 C 
ATOM     11  C   UNL     1      35.941 -23.712 -15.364  0.00  0.00    +0.035 C 
ENDROOT
BRANCH   5  12
ATOM     12  C   UNL     1      30.102 -23.346 -16.172  0.00  0.00    +0.026 C 
ATOM     13  C   UNL     1      29.435 -24.714 -16.133  0.00  0.00    +0.005 C 
ATOM     14  C   UNL     1      29.448 -22.384 -15.188  0.00  0.00    +0.005 C 
ENDBRANCH   5  12
TORSDOF 1
ENDMDL
MODEL 8
REMARK VINA RESULT:      -6.4      5.353      7.715
REMARK  Name = 34474
REMARK  1 active torsions:
REMARK  status: ('A' for Active; 'I' for Inactive)
REMARK    1  A    between atoms: C_5  and  C_12
REMARK                            x       y       z     vdW  Elec       q    Type
REMARK                         _______ _______ _______ _____ _____    ______ ____
ROOT
ATOM      1 BR   UNL     1      30.963 -10.757 -20.788  0.00  0.00    -0.046 Br
ATOM      2 BR   UNL     1      35.355 -10.394 -25.752  0.00  0.00    -0.046 Br
ATOM      3  O   UNL     1      34.326  -8.269 -23.903  0.00  0.00    -0.286 OA
ATOM      4  O   UNL     1      31.988 -12.880 -22.640  0.00  0.00    -0.286 OA
ATOM      5  C   UNL     1      32.803  -9.400 -22.493  0.00  0.00    +0.026 C 
ATOM      6  C   UNL     1      32.215 -10.565 -22.178  0.00  0.00    +0.072 C 
ATOM      7  C   UNL     1      33.789  -9.336 -23.613  0.00  0.00    +0.198 C 
ATOM      8  C   UNL     1      33.514 -11.750 -24.047  0.00  0.00    +0.027 C 
ATOM      9  C   UNL     1      34.101 -10.585 -24.363  0.00  0.00    +0.072 C 
ATOM     10  C   UNL     1      32.527 -11.813 -22.929  0.00  0.00    +0.198 C 
ATOM     11  C   UNL     1      33.750 -13.072 -24.732  0.00  0.00    +0.035 C 
ENDROOT
BRANCH   5  12
ATOM     12  C   UNL     1      32.567  -8.079 -21.807  0.00  0.00    +0.026 C 
ATOM     13  C   UNL     1      31.314  -7.419 -22.367  0.00  0.00    +0.005 C 
ATOM     14  C   UNL     1      32.464  -8.272 -20.300  0.00  0.00    +0.005 C 
ENDBRANCH   5  12
TORSDOF 1
ENDMDL
MODEL 9
REMARK VINA RESULT:      -6.3      4.312      6.113
REMARK  Name = 34474
REMARK  1 active torsions:
REMARK  status: ('A' for Active; 'I' for Inactive)
REMARK    1  A    between atoms: C_5  and  C_12
REMARK                            x       y       z     vdW  Elec       q    Type
REMARK                         _______ _______ _______ _____ _____    ______ ____
ROOT
ATOM      1 BR   UNL     1      35.114 -10.610 -25.606  0.00  0.00    -0.046 Br
ATOM      2 BR   UNL     1      30.704 -11.228 -20.684  0.00  0.00    -0.046 Br
ATOM      3  O   UNL     1      32.090 -13.316 -22.329  0.00  0.00    -0.286 OA
ATOM      4  O   UNL     1      33.724  -8.521 -23.963  0.00  0.00    -0.286 OA
ATOM      5  C   UNL     1      33.459 -12.086 -23.812  0.00  0.00    +0.026 C 
ATOM      6  C   UNL     1      33.868 -10.875 -24.221  0.00  0.00    +0.072 C 
ATOM      7  C   UNL     1      32.466 -12.207 -22.704  0.00  0.00    +0.198 C 
ATOM      8  C   UNL     1      32.358  -9.752 -22.478  0.00  0.00    +0.027 C 
ATOM      9  C   UNL     1      31.947 -10.963 -22.069  0.00  0.00    +0.072 C 
ATOM     10  C   UNL     1      33.349  -9.631 -23.588  0.00  0.00    +0.198 C 
ATOM     11  C   UNL     1      31.905  -8.430 -21.913  0.00  0.00    +0.035 C 
ENDROOT
BRANCH   5  12
ATOM     12  C   UNL     1      33.914 -13.408 -24.376  0.00  0.00    +0.026 C 
ATOM     13  C   UNL     1      34.311 -14.346 -23.245  0.00  0.00    +0.005 C 
ATOM     14  C   UNL     1      32.822 -14.021 -25.244  0.00  0.00    +0.005 C 
ENDBRANCH   5  12
TORSDOF 1
ENDMDL
