MODEL 1
REMARK VINA RESULT:      -5.6      0.000      0.000
REMARK  Name = 4635864
REMARK  6 active torsions:
REMARK  status: ('A' for Active; 'I' for Inactive)
REMARK    1  A    between atoms: C_1  and  N_2
REMARK    2  A    between atoms: C_1  and  N_6
REMARK    3  A    between atoms: C_1  and  N_10
REMARK    4  A    between atoms: N_10  and  C_13
REMARK    5  A    between atoms: C_13  and  C_15
REMARK    6  A    between atoms: C_15  and  O_16
REMARK                            x       y       z     vdW  Elec       q    Type
REMARK                         _______ _______ _______ _____ _____    ______ ____
ROOT
ATOM      1  C   UNL     1      37.345 -26.676 -14.561  0.00  0.00    -0.211 C 
ENDROOT
BRANCH   1   2
ATOM      2  N   UNL     1      36.990 -26.599 -13.143  0.00  0.00    +0.359 N 
ATOM      3  H   UNL     1      37.657 -27.141 -12.594  0.00  0.00    -0.095 HD
ATOM      4  H   UNL     1      36.052 -26.976 -13.006  0.00  0.00    -0.095 HD
ATOM      5  H   UNL     1      37.012 -25.625 -12.840  0.00  0.00    -0.095 HD
ENDBRANCH   1   2
BRANCH   1   6
ATOM      6  N   UNL     1      36.143 -26.954 -15.347  0.00  0.00    +0.359 N 
ATOM      7  H   UNL     1      35.318 -26.686 -14.811  0.00  0.00    -0.095 HD
ATOM      8  H   UNL     1      36.101 -27.950 -15.562  0.00  0.00    -0.095 HD
ATOM      9  H   UNL     1      36.174 -26.418 -16.215  0.00  0.00    -0.095 HD
ENDBRANCH   1   6
BRANCH   1  10
ATOM     10  N   UNL     1      38.072 -25.462 -14.982  0.00  0.00    +0.371 N 
ATOM     11  C   UNL     1      37.207 -24.284 -15.023  0.00  0.00    -0.106 C 
ATOM     12  H   UNL     1      38.381 -25.671 -15.932  0.00  0.00    -0.085 HD
BRANCH  10  13
ATOM     13  C   UNL     1      39.283 -25.186 -14.206  0.00  0.00    +0.029 C 
BRANCH  13  15
ATOM     14  O   UNL     1      41.204 -26.636 -14.072  0.00  0.00    -0.253 OA
ATOM     15  C   UNL     1      40.410 -26.011 -14.764  0.00  0.00    +0.292 C 
BRANCH  15  16
ATOM     16  O   UNL     1      40.484 -25.959 -16.117  0.00  0.00    -0.482 OA
ATOM     17  H   UNL     1      39.701 -25.886 -16.627  0.00  0.00    +0.295 HD
ENDBRANCH  15  16
ENDBRANCH  13  15
ENDBRANCH  10  13
ENDBRANCH   1  10
TORSDOF 6
ENDMDL
MODEL 2
REMARK VINA RESULT:      -5.2      1.470      1.922
REMARK  Name = 4635864
REMARK  6 active torsions:
REMARK  status: ('A' for Active; 'I' for Inactive)
REMARK    1  A    between atoms: C_1  and  N_2
REMARK    2  A    between atoms: C_1  and  N_6
REMARK    3  A    between atoms: C_1  and  N_10
REMARK    4  A    between atoms: N_10  and  C_13
REMARK    5  A    between atoms: C_13  and  C_15
REMARK    6  A    between atoms: C_15  and  O_16
REMARK                            x       y       z     vdW  Elec       q    Type
REMARK                         _______ _______ _______ _____ _____    ______ ____
ROOT
ATOM      1  C   UNL     1      37.527 -25.650 -12.339  0.00  0.00    -0.211 C 
ENDROOT
BRANCH   1   2
ATOM      2  N   UNL     1      38.172 -24.448 -11.807  0.00  0.00    +0.359 N 
ATOM      3  H   UNL     1      39.184 -24.577 -11.803  0.00  0.00    -0.095 HD
ATOM      4  H   UNL     1      37.847 -24.280 -10.854  0.00  0.00    -0.095 HD
ATOM      5  H   UNL     1      37.934 -23.647 -12.392  0.00  0.00    -0.095 HD
ENDBRANCH   1   2
BRANCH   1   6
ATOM      6  N   UNL     1      36.130 -25.351 -12.653  0.00  0.00    +0.359 N 
ATOM      7  H   UNL     1      35.697 -24.880 -11.858  0.00  0.00    -0.095 HD
ATOM      8  H   UNL     1      35.632 -26.219 -12.847  0.00  0.00    -0.095 HD
ATOM      9  H   UNL     1      36.089 -24.743 -13.472  0.00  0.00    -0.095 HD
ENDBRANCH   1   6
BRANCH   1  10
ATOM     10  N   UNL     1      38.297 -26.192 -13.476  0.00  0.00    +0.371 N 
ATOM     11  C   UNL     1      37.436 -26.801 -14.489  0.00  0.00    -0.106 C 
ATOM     12  H   UNL     1      38.876 -26.922 -13.061  0.00  0.00    -0.085 HD
BRANCH  10  13
ATOM     13  C   UNL     1      39.218 -25.234 -14.090  0.00  0.00    +0.029 C 
BRANCH  13  15
ATOM     14  O   UNL     1      41.182 -26.633 -14.062  0.00  0.00    -0.253 OA
ATOM     15  C   UNL     1      40.360 -25.994 -14.708  0.00  0.00    +0.292 C 
BRANCH  15  16
ATOM     16  O   UNL     1      40.411 -25.867 -16.058  0.00  0.00    -0.482 OA
ATOM     17  H   UNL     1      41.065 -25.324 -16.452  0.00  0.00    +0.295 HD
ENDBRANCH  15  16
ENDBRANCH  13  15
ENDBRANCH  10  13
ENDBRANCH   1  10
TORSDOF 6
ENDMDL
MODEL 3
REMARK VINA RESULT:      -5.0      1.322      1.488
REMARK  Name = 4635864
REMARK  6 active torsions:
REMARK  status: ('A' for Active; 'I' for Inactive)
REMARK    1  A    between atoms: C_1  and  N_2
REMARK    2  A    between atoms: C_1  and  N_6
REMARK    3  A    between atoms: C_1  and  N_10
REMARK    4  A    between atoms: N_10  and  C_13
REMARK    5  A    between atoms: C_13  and  C_15
REMARK    6  A    between atoms: C_15  and  O_16
REMARK                            x       y       z     vdW  Elec       q    Type
REMARK                         _______ _______ _______ _____ _____    ______ ____
ROOT
ATOM      1  C   UNL     1      36.429 -25.559 -15.087  0.00  0.00    -0.211 C 
ENDROOT
BRANCH   1   2
ATOM      2  N   UNL     1      36.480 -27.022 -15.096  0.00  0.00    +0.359 N 
ATOM      3  H   UNL     1      35.631 -27.389 -15.526  0.00  0.00    -0.095 HD
ATOM      4  H   UNL     1      36.552 -27.367 -14.139  0.00  0.00    -0.095 HD
ATOM      5  H   UNL     1      37.292 -27.331 -15.630  0.00  0.00    -0.095 HD
ENDBRANCH   1   2
BRANCH   1   6
ATOM      6  N   UNL     1      35.261 -25.120 -14.324  0.00  0.00    +0.359 N 
ATOM      7  H   UNL     1      34.722 -24.456 -14.881  0.00  0.00    -0.095 HD
ATOM      8  H   UNL     1      35.566 -24.672 -13.461  0.00  0.00    -0.095 HD
ATOM      9  H   UNL     1      34.678 -25.928 -14.101  0.00  0.00    -0.095 HD
ENDBRANCH   1   6
BRANCH   1  10
ATOM     10  N   UNL     1      37.707 -24.998 -14.605  0.00  0.00    +0.371 N 
ATOM     11  C   UNL     1      37.526 -24.107 -13.460  0.00  0.00    -0.106 C 
ATOM     12  H   UNL     1      38.052 -24.448 -15.392  0.00  0.00    -0.085 HD
BRANCH  10  13
ATOM     13  C   UNL     1      38.736 -26.000 -14.321  0.00  0.00    +0.029 C 
BRANCH  13  15
ATOM     14  O   UNL     1      40.807 -24.772 -14.205  0.00  0.00    -0.253 OA
ATOM     15  C   UNL     1      40.054 -25.498 -14.843  0.00  0.00    +0.292 C 
BRANCH  15  16
ATOM     16  O   UNL     1      40.307 -25.899 -16.114  0.00  0.00    -0.482 OA
ATOM     17  H   UNL     1      41.178 -25.850 -16.455  0.00  0.00    +0.295 HD
ENDBRANCH  15  16
ENDBRANCH  13  15
ENDBRANCH  10  13
ENDBRANCH   1  10
TORSDOF 6
ENDMDL
MODEL 4
REMARK VINA RESULT:      -4.7      9.134      9.880
REMARK  Name = 4635864
REMARK  6 active torsions:
REMARK  status: ('A' for Active; 'I' for Inactive)
REMARK    1  A    between atoms: C_1  and  N_2
REMARK    2  A    between atoms: C_1  and  N_6
REMARK    3  A    between atoms: C_1  and  N_10
REMARK    4  A    between atoms: N_10  and  C_13
REMARK    5  A    between atoms: C_13  and  C_15
REMARK    6  A    between atoms: C_15  and  O_16
REMARK                            x       y       z     vdW  Elec       q    Type
REMARK                         _______ _______ _______ _____ _____    ______ ____
ROOT
ATOM      1  C   UNL     1      30.085 -24.897 -14.633  0.00  0.00    -0.211 C 
ENDROOT
BRANCH   1   2
ATOM      2  N   UNL     1      30.852 -25.069 -13.398  0.00  0.00    +0.359 N 
ATOM      3  H   UNL     1      31.500 -25.849 -13.505  0.00  0.00    -0.095 HD
ATOM      4  H   UNL     1      30.214 -25.260 -12.625  0.00  0.00    -0.095 HD
ATOM      5  H   UNL     1      31.376 -24.216 -13.202  0.00  0.00    -0.095 HD
ENDBRANCH   1   2
BRANCH   1   6
ATOM      6  N   UNL     1      28.760 -25.493 -14.467  0.00  0.00    +0.359 N 
ATOM      7  H   UNL     1      28.757 -26.088 -13.638  0.00  0.00    -0.095 HD
ATOM      8  H   UNL     1      28.534 -26.053 -15.288  0.00  0.00    -0.095 HD
ATOM      9  H   UNL     1      28.066 -24.753 -14.357  0.00  0.00    -0.095 HD
ENDBRANCH   1   6
BRANCH   1  10
ATOM     10  N   UNL     1      30.060 -23.477 -15.036  0.00  0.00    +0.371 N 
ATOM     11  C   UNL     1      31.176 -22.719 -14.470  0.00  0.00    -0.106 C 
ATOM     12  H   UNL     1      29.190 -23.119 -14.638  0.00  0.00    -0.085 HD
BRANCH  10  13
ATOM     13  C   UNL     1      29.971 -23.262 -16.481  0.00  0.00    +0.029 C 
BRANCH  13  15
ATOM     14  O   UNL     1      28.038 -21.840 -16.709  0.00  0.00    -0.253 OA
ATOM     15  C   UNL     1      28.543 -22.949 -16.834  0.00  0.00    +0.292 C 
BRANCH  15  16
ATOM     16  O   UNL     1      27.855 -24.034 -17.269  0.00  0.00    -0.482 OA
ATOM     17  H   UNL     1      27.640 -24.723 -16.672  0.00  0.00    +0.295 HD
ENDBRANCH  15  16
ENDBRANCH  13  15
ENDBRANCH  10  13
ENDBRANCH   1  10
TORSDOF 6
ENDMDL
MODEL 5
REMARK VINA RESULT:      -4.7      9.247     10.164
REMARK  Name = 4635864
REMARK  6 active torsions:
REMARK  status: ('A' for Active; 'I' for Inactive)
REMARK    1  A    between atoms: C_1  and  N_2
REMARK    2  A    between atoms: C_1  and  N_6
REMARK    3  A    between atoms: C_1  and  N_10
REMARK    4  A    between atoms: N_10  and  C_13
REMARK    5  A    between atoms: C_13  and  C_15
REMARK    6  A    between atoms: C_15  and  O_16
REMARK                            x       y       z     vdW  Elec       q    Type
REMARK                         _______ _______ _______ _____ _____    ______ ____
ROOT
ATOM      1  C   UNL     1      31.164 -23.485 -15.762  0.00  0.00    -0.211 C 
ENDROOT
BRANCH   1   2
ATOM      2  N   UNL     1      31.301 -22.699 -16.990  0.00  0.00    +0.359 N 
ATOM      3  H   UNL     1      30.881 -21.779 -16.854  0.00  0.00    -0.095 HD
ATOM      4  H   UNL     1      30.828 -23.179 -17.756  0.00  0.00    -0.095 HD
ATOM      5  H   UNL     1      32.290 -22.591 -17.215  0.00  0.00    -0.095 HD
ENDBRANCH   1   2
BRANCH   1   6
ATOM      6  N   UNL     1      31.212 -22.589 -14.607  0.00  0.00    +0.359 N 
ATOM      7  H   UNL     1      30.666 -21.750 -14.805  0.00  0.00    -0.095 HD
ATOM      8  H   UNL     1      32.179 -22.330 -14.418  0.00  0.00    -0.095 HD
ATOM      9  H   UNL     1      30.820 -23.064 -13.792  0.00  0.00    -0.095 HD
ENDBRANCH   1   6
BRANCH   1  10
ATOM     10  N   UNL     1      29.955 -24.331 -15.819  0.00  0.00    +0.371 N 
ATOM     11  C   UNL     1      30.061 -25.508 -14.958  0.00  0.00    -0.106 C 
ATOM     12  H   UNL     1      29.912 -24.642 -16.790  0.00  0.00    -0.085 HD
BRANCH  10  13
ATOM     13  C   UNL     1      28.706 -23.614 -15.560  0.00  0.00    +0.029 C 
BRANCH  13  15
ATOM     14  O   UNL     1      27.560 -23.996 -17.647  0.00  0.00    -0.253 OA
ATOM     15  C   UNL     1      28.101 -23.211 -16.877  0.00  0.00    +0.292 C 
BRANCH  15  16
ATOM     16  O   UNL     1      28.251 -21.890 -17.146  0.00  0.00    -0.482 OA
ATOM     17  H   UNL     1      28.339 -21.599 -18.032  0.00  0.00    +0.295 HD
ENDBRANCH  15  16
ENDBRANCH  13  15
ENDBRANCH  10  13
ENDBRANCH   1  10
TORSDOF 6
ENDMDL
MODEL 6
REMARK VINA RESULT:      -4.7      3.905      4.465
REMARK  Name = 4635864
REMARK  6 active torsions:
REMARK  status: ('A' for Active; 'I' for Inactive)
REMARK    1  A    between atoms: C_1  and  N_2
REMARK    2  A    between atoms: C_1  and  N_6
REMARK    3  A    between atoms: C_1  and  N_10
REMARK    4  A    between atoms: N_10  and  C_13
REMARK    5  A    between atoms: C_13  and  C_15
REMARK    6  A    between atoms: C_15  and  O_16
REMARK                            x       y       z     vdW  Elec       q    Type
REMARK                         _______ _______ _______ _____ _____    ______ ____
ROOT
ATOM      1  C   UNL     1      36.466 -25.354 -14.446  0.00  0.00    -0.211 C 
ENDROOT
BRANCH   1   2
ATOM      2  N   UNL     1      37.425 -24.716 -15.349  0.00  0.00    +0.359 N 
ATOM      3  H   UNL     1      37.405 -23.706 -15.209  0.00  0.00    -0.095 HD
ATOM      4  H   UNL     1      37.178 -24.930 -16.315  0.00  0.00    -0.095 HD
ATOM      5  H   UNL     1      38.363 -25.068 -15.153  0.00  0.00    -0.095 HD
ENDBRANCH   1   2
BRANCH   1   6
ATOM      6  N   UNL     1      36.075 -26.653 -14.995  0.00  0.00    +0.359 N 
ATOM      7  H   UNL     1      35.124 -26.874 -14.700  0.00  0.00    -0.095 HD
ATOM      8  H   UNL     1      36.713 -27.372 -14.654  0.00  0.00    -0.095 HD
ATOM      9  H   UNL     1      36.115 -26.616 -16.014  0.00  0.00    -0.095 HD
ENDBRANCH   1   6
BRANCH   1  10
ATOM     10  N   UNL     1      37.007 -25.419 -13.074  0.00  0.00    +0.371 N 
ATOM     11  C   UNL     1      38.424 -25.782 -13.053  0.00  0.00    -0.106 C 
ATOM     12  H   UNL     1      36.474 -26.167 -12.629  0.00  0.00    -0.085 HD
BRANCH  10  13
ATOM     13  C   UNL     1      36.772 -24.214 -12.277  0.00  0.00    +0.029 C 
BRANCH  13  15
ATOM     14  O   UNL     1      35.302 -25.132 -10.600  0.00  0.00    -0.253 OA
ATOM     15  C   UNL     1      35.467 -24.370 -11.545  0.00  0.00    +0.292 C 
BRANCH  15  16
ATOM     16  O   UNL     1      34.474 -23.606 -12.066  0.00  0.00    -0.482 OA
ATOM     17  H   UNL     1      34.472 -23.399 -12.979  0.00  0.00    +0.295 HD
ENDBRANCH  15  16
ENDBRANCH  13  15
ENDBRANCH  10  13
ENDBRANCH   1  10
TORSDOF 6
ENDMDL
MODEL 7
REMARK VINA RESULT:      -4.7      3.351      3.968
REMARK  Name = 4635864
REMARK  6 active torsions:
REMARK  status: ('A' for Active; 'I' for Inactive)
REMARK    1  A    between atoms: C_1  and  N_2
REMARK    2  A    between atoms: C_1  and  N_6
REMARK    3  A    between atoms: C_1  and  N_10
REMARK    4  A    between atoms: N_10  and  C_13
REMARK    5  A    between atoms: C_13  and  C_15
REMARK    6  A    between atoms: C_15  and  O_16
REMARK                            x       y       z     vdW  Elec       q    Type
REMARK                         _______ _______ _______ _____ _____    ______ ____
ROOT
ATOM      1  C   UNL     1      38.040 -25.751 -13.143  0.00  0.00    -0.211 C 
ENDROOT
BRANCH   1   2
ATOM      2  N   UNL     1      37.132 -26.858 -13.450  0.00  0.00    +0.359 N 
ATOM      3  H   UNL     1      37.057 -26.967 -14.461  0.00  0.00    -0.095 HD
ATOM      4  H   UNL     1      36.211 -26.662 -13.060  0.00  0.00    -0.095 HD
ATOM      5  H   UNL     1      37.497 -27.719 -13.042  0.00  0.00    -0.095 HD
ENDBRANCH   1   2
BRANCH   1   6
ATOM      6  N   UNL     1      39.384 -26.083 -13.612  0.00  0.00    +0.359 N 
ATOM      7  H   UNL     1      39.985 -25.263 -13.531  0.00  0.00    -0.095 HD
ATOM      8  H   UNL     1      39.341 -26.378 -14.587  0.00  0.00    -0.095 HD
ATOM      9  H   UNL     1      39.765 -26.841 -13.044  0.00  0.00    -0.095 HD
ENDBRANCH   1   6
BRANCH   1  10
ATOM     10  N   UNL     1      37.511 -24.482 -13.681  0.00  0.00    +0.371 N 
ATOM     11  C   UNL     1      36.970 -24.634 -15.031  0.00  0.00    -0.106 C 
ATOM     12  H   UNL     1      38.326 -23.869 -13.725  0.00  0.00    -0.085 HD
BRANCH  10  13
ATOM     13  C   UNL     1      36.542 -23.816 -12.809  0.00  0.00    +0.029 C 
BRANCH  13  15
ATOM     14  O   UNL     1      38.240 -22.612 -11.592  0.00  0.00    -0.253 OA
ATOM     15  C   UNL     1      37.255 -23.340 -11.573  0.00  0.00    +0.292 C 
BRANCH  15  16
ATOM     16  O   UNL     1      36.717 -23.834 -10.429  0.00  0.00    -0.482 OA
ATOM     17  H   UNL     1      36.000 -24.435 -10.470  0.00  0.00    +0.295 HD
ENDBRANCH  15  16
ENDBRANCH  13  15
ENDBRANCH  10  13
ENDBRANCH   1  10
TORSDOF 6
ENDMDL
MODEL 8
REMARK VINA RESULT:      -4.7      2.924      3.458
REMARK  Name = 4635864
REMARK  6 active torsions:
REMARK  status: ('A' for Active; 'I' for Inactive)
REMARK    1  A    between atoms: C_1  and  N_2
REMARK    2  A    between atoms: C_1  and  N_6
REMARK    3  A    between atoms: C_1  and  N_10
REMARK    4  A    between atoms: N_10  and  C_13
REMARK    5  A    between atoms: C_13  and  C_15
REMARK    6  A    between atoms: C_15  and  O_16
REMARK                            x       y       z     vdW  Elec       q    Type
REMARK                         _______ _______ _______ _____ _____    ______ ____
ROOT
ATOM      1  C   UNL     1      36.173 -25.425 -14.830  0.00  0.00    -0.211 C 
ENDROOT
BRANCH   1   2
ATOM      2  N   UNL     1      36.218 -26.873 -15.040  0.00  0.00    +0.359 N 
ATOM      3  H   UNL     1      36.496 -27.068 -16.002  0.00  0.00    -0.095 HD
ATOM      4  H   UNL     1      35.296 -27.272 -14.865  0.00  0.00    -0.095 HD
ATOM      5  H   UNL     1      36.895 -27.288 -14.400  0.00  0.00    -0.095 HD
ENDBRANCH   1   2
BRANCH   1   6
ATOM      6  N   UNL     1      34.849 -25.049 -14.333  0.00  0.00    +0.359 N 
ATOM      7  H   UNL     1      34.145 -25.661 -14.747  0.00  0.00    -0.095 HD
ATOM      8  H   UNL     1      34.652 -24.082 -14.588  0.00  0.00    -0.095 HD
ATOM      9  H   UNL     1      34.828 -25.146 -13.317  0.00  0.00    -0.095 HD
ENDBRANCH   1   6
BRANCH   1  10
ATOM     10  N   UNL     1      37.286 -24.990 -13.963  0.00  0.00    +0.371 N 
ATOM     11  C   UNL     1      38.577 -25.044 -14.648  0.00  0.00    -0.106 C 
ATOM     12  H   UNL     1      37.294 -25.673 -13.204  0.00  0.00    -0.085 HD
BRANCH  10  13
ATOM     13  C   UNL     1      37.088 -23.681 -13.339  0.00  0.00    +0.029 C 
BRANCH  13  15
ATOM     14  O   UNL     1      38.552 -22.797 -11.639  0.00  0.00    -0.253 OA
ATOM     15  C   UNL     1      37.779 -23.676 -12.003  0.00  0.00    +0.292 C 
BRANCH  15  16
ATOM     16  O   UNL     1      37.491 -24.769 -11.253  0.00  0.00    -0.482 OA
ATOM     17  H   UNL     1      37.937 -25.577 -11.412  0.00  0.00    +0.295 HD
ENDBRANCH  15  16
ENDBRANCH  13  15
ENDBRANCH  10  13
ENDBRANCH   1  10
TORSDOF 6
ENDMDL
MODEL 9
REMARK VINA RESULT:      -4.6      2.705      3.210
REMARK  Name = 4635864
REMARK  6 active torsions:
REMARK  status: ('A' for Active; 'I' for Inactive)
REMARK    1  A    between atoms: C_1  and  N_2
REMARK    2  A    between atoms: C_1  and  N_6
REMARK    3  A    between atoms: C_1  and  N_10
REMARK    4  A    between atoms: N_10  and  C_13
REMARK    5  A    between atoms: C_13  and  C_15
REMARK    6  A    between atoms: C_15  and  O_16
REMARK                            x       y       z     vdW  Elec       q    Type
REMARK                         _______ _______ _______ _____ _____    ______ ____
ROOT
ATOM      1  C   UNL     1      34.786 -24.114 -15.106  0.00  0.00    -0.211 C 
ENDROOT
BRANCH   1   2
ATOM      2  N   UNL     1      34.099 -24.864 -14.053  0.00  0.00    +0.359 N 
ATOM      3  H   UNL     1      33.108 -24.622 -14.053  0.00  0.00    -0.095 HD
ATOM      4  H   UNL     1      34.506 -24.629 -13.147  0.00  0.00    -0.095 HD
ATOM      5  H   UNL     1      34.205 -25.864 -14.223  0.00  0.00    -0.095 HD
ENDBRANCH   1   2
BRANCH   1   6
ATOM      6  N   UNL     1      34.709 -22.684 -14.810  0.00  0.00    +0.359 N 
ATOM      7  H   UNL     1      35.650 -22.291 -14.780  0.00  0.00    -0.095 HD
ATOM      8  H   UNL     1      34.254 -22.547 -13.908  0.00  0.00    -0.095 HD
ATOM      9  H   UNL     1      34.169 -22.215 -15.539  0.00  0.00    -0.095 HD
ENDBRANCH   1   6
BRANCH   1  10
ATOM     10  N   UNL     1      36.161 -24.617 -15.290  0.00  0.00    +0.371 N 
ATOM     11  C   UNL     1      37.142 -23.536 -15.374  0.00  0.00    -0.106 C 
ATOM     12  H   UNL     1      36.134 -25.100 -16.189  0.00  0.00    -0.085 HD
BRANCH  10  13
ATOM     13  C   UNL     1      36.575 -25.614 -14.300  0.00  0.00    +0.029 C 
BRANCH  13  15
ATOM     14  O   UNL     1      38.388 -27.174 -14.604  0.00  0.00    -0.253 OA
ATOM     15  C   UNL     1      37.329 -26.708 -15.006  0.00  0.00    +0.292 C 
BRANCH  15  16
ATOM     16  O   UNL     1      36.734 -27.101 -16.160  0.00  0.00    -0.482 OA
ATOM     17  H   UNL     1      36.628 -26.491 -16.863  0.00  0.00    +0.295 HD
ENDBRANCH  15  16
ENDBRANCH  13  15
ENDBRANCH  10  13
ENDBRANCH   1  10
TORSDOF 6
ENDMDL
