MODEL 1
REMARK VINA RESULT:      -9.0      0.000      0.000
REMARK  Name = 15657209
REMARK  2 active torsions:
REMARK  status: ('A' for Active; 'I' for Inactive)
REMARK    1  A    between atoms: C_1  and  C_11
REMARK    2  A    between atoms: C_2  and  N_17
REMARK                            x       y       z     vdW  Elec       q    Type
REMARK                         _______ _______ _______ _____ _____    ______ ____
ROOT
ATOM      1  C   UNL     1      34.989 -16.873 -21.620  0.00  0.00    +0.042 C 
ATOM      2  C   UNL     1      33.113 -15.288 -20.938  0.00  0.00    -0.057 C 
ATOM      3  C   UNL     1      34.538 -15.764 -20.646  0.00  0.00    -0.012 C 
ATOM      4  C   UNL     1      33.031 -14.710 -22.355  0.00  0.00    +0.005 C 
ATOM      5  C   UNL     1      34.617 -16.578 -23.064  0.00  0.00    -0.023 C 
ATOM      6  C   UNL     1      33.672 -15.590 -23.400  0.00  0.00    -0.028 C 
ATOM      7  C   UNL     1      35.222 -17.324 -24.093  0.00  0.00    -0.004 C 
ATOM      8  C   UNL     1      33.360 -15.364 -24.751  0.00  0.00    -0.005 C 
ATOM      9  C   UNL     1      34.894 -17.097 -25.429  0.00  0.00    -0.000 C 
ATOM     10  C   UNL     1      33.964 -16.117 -25.758  0.00  0.00    -0.000 C 
ENDROOT
BRANCH   1  11
ATOM     11  C   UNL     1      34.538 -18.247 -21.132  0.00  0.00    -0.019 C 
ATOM     12  C   UNL     1      33.182 -18.520 -21.003  0.00  0.00    -0.004 C 
ATOM     13  C   UNL     1      35.490 -19.213 -20.821  0.00  0.00    -0.004 C 
ATOM     14  C   UNL     1      32.770 -19.776 -20.556  0.00  0.00    -0.000 C 
ATOM     15  C   UNL     1      35.078 -20.468 -20.375  0.00  0.00    -0.000 C 
ATOM     16  C   UNL     1      33.718 -20.751 -20.243  0.00  0.00    -0.000 C 
ENDBRANCH   1  11
BRANCH   2  17
ATOM     17  N   UNL     1      32.718 -14.266 -19.969  0.00  0.00    +0.384 N 
ATOM     18  C   UNL     1      32.209 -13.083 -20.647  0.00  0.00    -0.106 C 
ATOM     19  H   UNL     1      33.528 -14.007 -19.407  0.00  0.00    -0.085 HD
ATOM     20  H   UNL     1      31.981 -14.645 -19.375  0.00  0.00    -0.085 HD
ENDBRANCH   2  17
TORSDOF 2
ENDMDL
MODEL 2
REMARK VINA RESULT:      -8.9      6.849      9.611
REMARK  Name = 15657209
REMARK  2 active torsions:
REMARK  status: ('A' for Active; 'I' for Inactive)
REMARK    1  A    between atoms: C_1  and  C_11
REMARK    2  A    between atoms: C_2  and  N_17
REMARK                            x       y       z     vdW  Elec       q    Type
REMARK                         _______ _______ _______ _____ _____    ______ ____
ROOT
ATOM      1  C   UNL     1      34.122  -7.602 -23.113  0.00  0.00    +0.042 C 
ATOM      2  C   UNL     1      32.351  -7.865 -21.299  0.00  0.00    -0.057 C 
ATOM      3  C   UNL     1      33.849  -7.776 -21.604  0.00  0.00    -0.012 C 
ATOM      4  C   UNL     1      31.647  -6.578 -21.741  0.00  0.00    +0.005 C 
ATOM      5  C   UNL     1      33.199  -6.585 -23.767  0.00  0.00    -0.023 C 
ATOM      6  C   UNL     1      32.022  -6.138 -23.136  0.00  0.00    -0.028 C 
ATOM      7  C   UNL     1      33.521  -6.090 -25.043  0.00  0.00    -0.004 C 
ATOM      8  C   UNL     1      31.201  -5.203 -23.789  0.00  0.00    -0.005 C 
ATOM      9  C   UNL     1      32.691  -5.170 -25.685  0.00  0.00    -0.000 C 
ATOM     10  C   UNL     1      31.532  -4.727 -25.057  0.00  0.00    -0.000 C 
ENDROOT
BRANCH   1  11
ATOM     11  C   UNL     1      34.159  -8.952 -23.823  0.00  0.00    -0.019 C 
ATOM     12  C   UNL     1      33.187  -9.904 -23.542  0.00  0.00    -0.004 C 
ATOM     13  C   UNL     1      35.166  -9.217 -24.747  0.00  0.00    -0.004 C 
ATOM     14  C   UNL     1      33.221 -11.139 -24.191  0.00  0.00    -0.000 C 
ATOM     15  C   UNL     1      35.200 -10.450 -25.396  0.00  0.00    -0.000 C 
ATOM     16  C   UNL     1      34.227 -11.411 -25.119  0.00  0.00    -0.000 C 
ENDBRANCH   1  11
BRANCH   2  17
ATOM     17  N   UNL     1      32.145  -8.067 -19.864  0.00  0.00    +0.384 N 
ATOM     18  C   UNL     1      31.978  -9.481 -19.562  0.00  0.00    -0.106 C 
ATOM     19  H   UNL     1      31.309  -7.562 -19.573  0.00  0.00    -0.085 HD
ATOM     20  H   UNL     1      32.961  -7.720 -19.363  0.00  0.00    -0.085 HD
ENDBRANCH   2  17
TORSDOF 2
ENDMDL
MODEL 3
REMARK VINA RESULT:      -8.8      6.948      9.209
REMARK  Name = 15657209
REMARK  2 active torsions:
REMARK  status: ('A' for Active; 'I' for Inactive)
REMARK    1  A    between atoms: C_1  and  C_11
REMARK    2  A    between atoms: C_2  and  N_17
REMARK                            x       y       z     vdW  Elec       q    Type
REMARK                         _______ _______ _______ _____ _____    ______ ____
ROOT
ATOM      1  C   UNL     1      31.962  -9.389 -23.411  0.00  0.00    +0.042 C 
ATOM      2  C   UNL     1      34.473  -9.361 -23.843  0.00  0.00    -0.057 C 
ATOM      3  C   UNL     1      33.161 -10.121 -24.049  0.00  0.00    -0.012 C 
ATOM      4  C   UNL     1      34.387  -7.977 -24.495  0.00  0.00    +0.005 C 
ATOM      5  C   UNL     1      31.970  -7.893 -23.683  0.00  0.00    -0.023 C 
ATOM      6  C   UNL     1      33.120  -7.231 -24.154  0.00  0.00    -0.028 C 
ATOM      7  C   UNL     1      30.801  -7.148 -23.441  0.00  0.00    -0.004 C 
ATOM      8  C   UNL     1      33.073  -5.845 -24.381  0.00  0.00    -0.005 C 
ATOM      9  C   UNL     1      30.773  -5.771 -23.661  0.00  0.00    -0.000 C 
ATOM     10  C   UNL     1      31.909  -5.120 -24.130  0.00  0.00    -0.000 C 
ENDROOT
BRANCH   1  11
ATOM     11  C   UNL     1      31.822  -9.751 -21.935  0.00  0.00    -0.019 C 
ATOM     12  C   UNL     1      31.265 -10.972 -21.575  0.00  0.00    -0.004 C 
ATOM     13  C   UNL     1      32.255  -8.854 -20.963  0.00  0.00    -0.004 C 
ATOM     14  C   UNL     1      31.137 -11.302 -20.226  0.00  0.00    -0.000 C 
ATOM     15  C   UNL     1      32.128  -9.184 -19.614  0.00  0.00    -0.000 C 
ATOM     16  C   UNL     1      31.570 -10.408 -19.245  0.00  0.00    -0.000 C 
ENDBRANCH   1  11
BRANCH   2  17
ATOM     17  N   UNL     1      35.584 -10.110 -24.432  0.00  0.00    +0.384 N 
ATOM     18  C   UNL     1      35.301 -10.445 -25.820  0.00  0.00    -0.106 C 
ATOM     19  H   UNL     1      35.726 -10.969 -23.902  0.00  0.00    -0.085 HD
ATOM     20  H   UNL     1      36.423  -9.532 -24.400  0.00  0.00    -0.085 HD
ENDBRANCH   2  17
TORSDOF 2
ENDMDL
MODEL 4
REMARK VINA RESULT:      -8.7      7.502      9.709
REMARK  Name = 15657209
REMARK  2 active torsions:
REMARK  status: ('A' for Active; 'I' for Inactive)
REMARK    1  A    between atoms: C_1  and  C_11
REMARK    2  A    between atoms: C_2  and  N_17
REMARK                            x       y       z     vdW  Elec       q    Type
REMARK                         _______ _______ _______ _____ _____    ______ ____
ROOT
ATOM      1  C   UNL     1      32.787  -7.393 -21.343  0.00  0.00    +0.042 C 
ATOM      2  C   UNL     1      30.898  -5.839 -22.057  0.00  0.00    -0.057 C 
ATOM      3  C   UNL     1      31.847  -6.242 -20.926  0.00  0.00    -0.012 C 
ATOM      4  C   UNL     1      31.700  -5.354 -23.269  0.00  0.00    +0.005 C 
ATOM      5  C   UNL     1      33.373  -7.203 -22.733  0.00  0.00    -0.023 C 
ATOM      6  C   UNL     1      32.836  -6.274 -23.644  0.00  0.00    -0.028 C 
ATOM      7  C   UNL     1      34.472  -7.990 -23.125  0.00  0.00    -0.004 C 
ATOM      8  C   UNL     1      33.413  -6.145 -24.919  0.00  0.00    -0.005 C 
ATOM      9  C   UNL     1      35.027  -7.860 -24.398  0.00  0.00    -0.000 C 
ATOM     10  C   UNL     1      34.497  -6.937 -25.294  0.00  0.00    -0.000 C 
ENDROOT
BRANCH   1  11
ATOM     11  C   UNL     1      32.120  -8.749 -21.131  0.00  0.00    -0.019 C 
ATOM     12  C   UNL     1      31.968  -9.247 -19.842  0.00  0.00    -0.004 C 
ATOM     13  C   UNL     1      31.669  -9.474 -22.229  0.00  0.00    -0.004 C 
ATOM     14  C   UNL     1      31.359 -10.487 -19.648  0.00  0.00    -0.000 C 
ATOM     15  C   UNL     1      31.059 -10.713 -22.036  0.00  0.00    -0.000 C 
ATOM     16  C   UNL     1      30.903 -11.219 -20.745  0.00  0.00    -0.000 C 
ENDBRANCH   1  11
BRANCH   2  17
ATOM     17  N   UNL     1      30.004  -4.772 -21.604  0.00  0.00    +0.384 N 
ATOM     18  C   UNL     1      30.316  -3.519 -22.275  0.00  0.00    -0.106 C 
ATOM     19  H   UNL     1      30.113  -4.650 -20.598  0.00  0.00    -0.085 HD
ATOM     20  H   UNL     1      29.044  -5.033 -21.827  0.00  0.00    -0.085 HD
ENDBRANCH   2  17
TORSDOF 2
ENDMDL
MODEL 5
REMARK VINA RESULT:      -8.6      6.384      8.950
REMARK  Name = 15657209
REMARK  2 active torsions:
REMARK  status: ('A' for Active; 'I' for Inactive)
REMARK    1  A    between atoms: C_1  and  C_11
REMARK    2  A    between atoms: C_2  and  N_17
REMARK                            x       y       z     vdW  Elec       q    Type
REMARK                         _______ _______ _______ _____ _____    ______ ____
ROOT
ATOM      1  C   UNL     1      31.764  -9.273 -22.910  0.00  0.00    +0.042 C 
ATOM      2  C   UNL     1      32.325  -7.109 -21.687  0.00  0.00    -0.057 C 
ATOM      3  C   UNL     1      31.540  -7.748 -22.835  0.00  0.00    -0.012 C 
ATOM      4  C   UNL     1      31.874  -7.701 -20.347  0.00  0.00    +0.005 C 
ATOM      5  C   UNL     1      31.711  -9.946 -21.548  0.00  0.00    -0.023 C 
ATOM      6  C   UNL     1      31.801  -9.208 -20.352  0.00  0.00    -0.028 C 
ATOM      7  C   UNL     1      31.585 -11.345 -21.480  0.00  0.00    -0.004 C 
ATOM      8  C   UNL     1      31.754  -9.882 -19.120  0.00  0.00    -0.005 C 
ATOM      9  C   UNL     1      31.551 -12.003 -20.251  0.00  0.00    -0.000 C 
ATOM     10  C   UNL     1      31.636 -11.271 -19.071  0.00  0.00    -0.000 C 
ENDROOT
BRANCH   1  11
ATOM     11  C   UNL     1      33.017  -9.603 -23.717  0.00  0.00    -0.019 C 
ATOM     12  C   UNL     1      34.035  -8.663 -23.823  0.00  0.00    -0.004 C 
ATOM     13  C   UNL     1      33.129 -10.843 -24.338  0.00  0.00    -0.004 C 
ATOM     14  C   UNL     1      35.180  -8.964 -24.560  0.00  0.00    -0.000 C 
ATOM     15  C   UNL     1      34.274 -11.145 -25.074  0.00  0.00    -0.000 C 
ATOM     16  C   UNL     1      35.300 -10.206 -25.185  0.00  0.00    -0.000 C 
ENDBRANCH   1  11
BRANCH   2  17
ATOM     17  N   UNL     1      32.110  -5.661 -21.678  0.00  0.00    +0.384 N 
ATOM     18  C   UNL     1      30.745  -5.341 -22.069  0.00  0.00    -0.106 C 
ATOM     19  H   UNL     1      32.757  -5.223 -22.334  0.00  0.00    -0.085 HD
ATOM     20  H   UNL     1      32.271  -5.311 -20.735  0.00  0.00    -0.085 HD
ENDBRANCH   2  17
TORSDOF 2
ENDMDL
MODEL 6
REMARK VINA RESULT:      -8.6      1.369      2.177
REMARK  Name = 15657209
REMARK  2 active torsions:
REMARK  status: ('A' for Active; 'I' for Inactive)
REMARK    1  A    between atoms: C_1  and  C_11
REMARK    2  A    between atoms: C_2  and  N_17
REMARK                            x       y       z     vdW  Elec       q    Type
REMARK                         _______ _______ _______ _____ _____    ______ ____
ROOT
ATOM      1  C   UNL     1      35.576 -18.711 -21.561  0.00  0.00    +0.042 C 
ATOM      2  C   UNL     1      34.399 -16.507 -21.059  0.00  0.00    -0.057 C 
ATOM      3  C   UNL     1      35.636 -17.370 -20.799  0.00  0.00    -0.012 C 
ATOM      4  C   UNL     1      34.291 -16.177 -22.551  0.00  0.00    +0.005 C 
ATOM      5  C   UNL     1      35.104 -18.554 -22.997  0.00  0.00    -0.023 C 
ATOM      6  C   UNL     1      34.469 -17.380 -23.446  0.00  0.00    -0.028 C 
ATOM      7  C   UNL     1      35.293 -19.617 -23.899  0.00  0.00    -0.004 C 
ATOM      8  C   UNL     1      34.047 -17.291 -24.783  0.00  0.00    -0.005 C 
ATOM      9  C   UNL     1      34.858 -19.520 -25.221  0.00  0.00    -0.000 C 
ATOM     10  C   UNL     1      34.235 -18.357 -25.662  0.00  0.00    -0.000 C 
ENDROOT
BRANCH   1  11
ATOM     11  C   UNL     1      34.803 -19.758 -20.765  0.00  0.00    -0.019 C 
ATOM     12  C   UNL     1      35.494 -20.744 -20.071  0.00  0.00    -0.004 C 
ATOM     13  C   UNL     1      33.412 -19.716 -20.741  0.00  0.00    -0.004 C 
ATOM     14  C   UNL     1      34.787 -21.702 -19.344  0.00  0.00    -0.000 C 
ATOM     15  C   UNL     1      32.705 -20.673 -20.014  0.00  0.00    -0.000 C 
ATOM     16  C   UNL     1      33.392 -21.666 -19.314  0.00  0.00    -0.000 C 
ENDBRANCH   1  11
BRANCH   2  17
ATOM     17  N   UNL     1      34.484 -15.265 -20.289  0.00  0.00    +0.384 N 
ATOM     18  C   UNL     1      33.398 -14.364 -20.644  0.00  0.00    -0.106 C 
ATOM     19  H   UNL     1      35.374 -14.810 -20.486  0.00  0.00    -0.085 HD
ATOM     20  H   UNL     1      34.412 -15.489 -19.297  0.00  0.00    -0.085 HD
ENDBRANCH   2  17
TORSDOF 2
ENDMDL
MODEL 7
REMARK VINA RESULT:      -8.5      6.516     10.643
REMARK  Name = 15657209
REMARK  2 active torsions:
REMARK  status: ('A' for Active; 'I' for Inactive)
REMARK    1  A    between atoms: C_1  and  C_11
REMARK    2  A    between atoms: C_2  and  N_17
REMARK                            x       y       z     vdW  Elec       q    Type
REMARK                         _______ _______ _______ _____ _____    ______ ____
ROOT
ATOM      1  C   UNL     1      34.344  -7.916 -23.412  0.00  0.00    +0.042 C 
ATOM      2  C   UNL     1      33.486 -10.113 -24.376  0.00  0.00    -0.057 C 
ATOM      3  C   UNL     1      34.707  -9.216 -24.160  0.00  0.00    -0.012 C 
ATOM      4  C   UNL     1      32.886 -10.519 -23.026  0.00  0.00    +0.005 C 
ATOM      5  C   UNL     1      33.415  -8.153 -22.232  0.00  0.00    -0.023 C 
ATOM      6  C   UNL     1      32.705  -9.359 -22.077  0.00  0.00    -0.028 C 
ATOM      7  C   UNL     1      33.246  -7.132 -21.278  0.00  0.00    -0.004 C 
ATOM      8  C   UNL     1      31.854  -9.522 -20.971  0.00  0.00    -0.005 C 
ATOM      9  C   UNL     1      32.389  -7.303 -20.191  0.00  0.00    -0.000 C 
ATOM     10  C   UNL     1      31.693  -8.498 -20.038  0.00  0.00    -0.000 C 
ENDROOT
BRANCH   1  11
ATOM     11  C   UNL     1      33.853  -6.844 -24.382  0.00  0.00    -0.019 C 
ATOM     12  C   UNL     1      34.698  -6.387 -25.387  0.00  0.00    -0.004 C 
ATOM     13  C   UNL     1      32.565  -6.336 -24.252  0.00  0.00    -0.004 C 
ATOM     14  C   UNL     1      34.250  -5.408 -26.273  0.00  0.00    -0.000 C 
ATOM     15  C   UNL     1      32.117  -5.357 -25.138  0.00  0.00    -0.000 C 
ATOM     16  C   UNL     1      32.958  -4.894 -26.150  0.00  0.00    -0.000 C 
ENDBRANCH   1  11
BRANCH   2  17
ATOM     17  N   UNL     1      33.872 -11.313 -25.119  0.00  0.00    +0.384 N 
ATOM     18  C   UNL     1      33.699 -12.504 -24.300  0.00  0.00    -0.106 C 
ATOM     19  H   UNL     1      34.851 -11.236 -25.394  0.00  0.00    -0.085 HD
ATOM     20  H   UNL     1      33.278 -11.394 -25.943  0.00  0.00    -0.085 HD
ENDBRANCH   2  17
TORSDOF 2
ENDMDL
MODEL 8
REMARK VINA RESULT:      -8.5      6.528     10.612
REMARK  Name = 15657209
REMARK  2 active torsions:
REMARK  status: ('A' for Active; 'I' for Inactive)
REMARK    1  A    between atoms: C_1  and  C_11
REMARK    2  A    between atoms: C_2  and  N_17
REMARK                            x       y       z     vdW  Elec       q    Type
REMARK                         _______ _______ _______ _____ _____    ______ ____
ROOT
ATOM      1  C   UNL     1      34.329  -7.890 -23.409  0.00  0.00    +0.042 C 
ATOM      2  C   UNL     1      33.477 -10.090 -24.373  0.00  0.00    -0.057 C 
ATOM      3  C   UNL     1      34.695  -9.187 -24.160  0.00  0.00    -0.012 C 
ATOM      4  C   UNL     1      32.884 -10.500 -23.021  0.00  0.00    +0.005 C 
ATOM      5  C   UNL     1      33.405  -8.133 -22.226  0.00  0.00    -0.023 C 
ATOM      6  C   UNL     1      32.702  -9.343 -22.070  0.00  0.00    -0.028 C 
ATOM      7  C   UNL     1      33.236  -7.115 -21.270  0.00  0.00    -0.004 C 
ATOM      8  C   UNL     1      31.856  -9.511 -20.961  0.00  0.00    -0.005 C 
ATOM      9  C   UNL     1      32.383  -7.291 -20.180  0.00  0.00    -0.000 C 
ATOM     10  C   UNL     1      31.694  -8.489 -20.026  0.00  0.00    -0.000 C 
ENDROOT
BRANCH   1  11
ATOM     11  C   UNL     1      33.830  -6.819 -24.375  0.00  0.00    -0.019 C 
ATOM     12  C   UNL     1      32.553  -6.294 -24.221  0.00  0.00    -0.004 C 
ATOM     13  C   UNL     1      34.659  -6.378 -25.402  0.00  0.00    -0.004 C 
ATOM     14  C   UNL     1      32.097  -5.316 -25.105  0.00  0.00    -0.000 C 
ATOM     15  C   UNL     1      34.204  -5.400 -26.285  0.00  0.00    -0.000 C 
ATOM     16  C   UNL     1      32.923  -4.868 -26.136  0.00  0.00    -0.000 C 
ENDBRANCH   1  11
BRANCH   2  17
ATOM     17  N   UNL     1      33.866 -11.287 -25.120  0.00  0.00    +0.384 N 
ATOM     18  C   UNL     1      33.729 -12.477 -24.293  0.00  0.00    -0.106 C 
ATOM     19  H   UNL     1      34.838 -11.196 -25.415  0.00  0.00    -0.085 HD
ATOM     20  H   UNL     1      33.256 -11.380 -25.931  0.00  0.00    -0.085 HD
ENDBRANCH   2  17
TORSDOF 2
ENDMDL
MODEL 9
REMARK VINA RESULT:      -8.4      6.645      9.462
REMARK  Name = 15657209
REMARK  2 active torsions:
REMARK  status: ('A' for Active; 'I' for Inactive)
REMARK    1  A    between atoms: C_1  and  C_11
REMARK    2  A    between atoms: C_2  and  N_17
REMARK                            x       y       z     vdW  Elec       q    Type
REMARK                         _______ _______ _______ _____ _____    ______ ____
ROOT
ATOM      1  C   UNL     1      35.382 -22.960 -15.310  0.00  0.00    +0.042 C 
ATOM      2  C   UNL     1      33.060 -23.962 -15.629  0.00  0.00    -0.057 C 
ATOM      3  C   UNL     1      33.982 -23.172 -14.697  0.00  0.00    -0.012 C 
ATOM      4  C   UNL     1      32.868 -23.201 -16.945  0.00  0.00    +0.005 C 
ATOM      5  C   UNL     1      35.329 -22.552 -16.774  0.00  0.00    -0.023 C 
ATOM      6  C   UNL     1      34.160 -22.703 -17.545  0.00  0.00    -0.028 C 
ATOM      7  C   UNL     1      36.484 -22.025 -17.380  0.00  0.00    -0.004 C 
ATOM      8  C   UNL     1      34.170 -22.316 -18.896  0.00  0.00    -0.005 C 
ATOM      9  C   UNL     1      36.483 -21.656 -18.725  0.00  0.00    -0.000 C 
ATOM     10  C   UNL     1      35.325 -21.802 -19.482  0.00  0.00    -0.000 C 
ENDROOT
BRANCH   1  11
ATOM     11  C   UNL     1      36.289 -24.155 -15.032  0.00  0.00    -0.019 C 
ATOM     12  C   UNL     1      35.843 -25.439 -15.319  0.00  0.00    -0.004 C 
ATOM     13  C   UNL     1      37.555 -23.947 -14.494  0.00  0.00    -0.004 C 
ATOM     14  C   UNL     1      36.672 -26.532 -15.064  0.00  0.00    -0.000 C 
ATOM     15  C   UNL     1      38.385 -25.039 -14.240  0.00  0.00    -0.000 C 
ATOM     16  C   UNL     1      37.944 -26.331 -14.525  0.00  0.00    -0.000 C 
ENDBRANCH   1  11
BRANCH   2  17
ATOM     17  N   UNL     1      31.760 -24.169 -14.990  0.00  0.00    +0.384 N 
ATOM     18  C   UNL     1      31.893 -25.021 -13.817  0.00  0.00    -0.106 C 
ATOM     19  H   UNL     1      31.127 -24.612 -15.656  0.00  0.00    -0.085 HD
ATOM     20  H   UNL     1      31.391 -23.265 -14.698  0.00  0.00    -0.085 HD
ENDBRANCH   2  17
TORSDOF 2
ENDMDL
