MODEL 1
REMARK VINA RESULT:      -7.2      0.000      0.000
REMARK  Name = 5429
REMARK  0 active torsions:
REMARK  status: ('A' for Active; 'I' for Inactive)
REMARK                            x       y       z     vdW  Elec       q    Type
REMARK                         _______ _______ _______ _____ _____    ______ ____
ROOT
ATOM      1  O   UNL     1      34.750 -17.143 -25.937  0.00  0.00    -0.273 OA
ATOM      2  O   UNL     1      35.896 -17.908 -21.527  0.00  0.00    -0.252 OA
ATOM      3  N   UNL     1      33.307 -14.673 -24.940  0.00  0.00    -0.239 NA
ATOM      4  N   UNL     1      34.605 -16.007 -21.966  0.00  0.00    -0.228 N 
ATOM      5  N   UNL     1      35.305 -17.494 -23.714  0.00  0.00    -0.238 N 
ATOM      6  N   UNL     1      33.262 -14.108 -22.781  0.00  0.00    -0.240 NA
ATOM      7  C   UNL     1      34.021 -15.630 -24.279  0.00  0.00    +0.191 C 
ATOM      8  C   UNL     1      33.978 -15.260 -22.959  0.00  0.00    +0.135 C 
ATOM      9  C   UNL     1      34.698 -16.789 -24.763  0.00  0.00    +0.251 C 
ATOM     10  C   UNL     1      35.308 -17.180 -22.331  0.00  0.00    +0.314 C 
ATOM     11  C   UNL     1      32.870 -13.779 -23.996  0.00  0.00    +0.203 C 
ATOM     12  C   UNL     1      34.541 -15.587 -20.574  0.00  0.00    +0.123 C 
ATOM     13  C   UNL     1      33.047 -14.595 -26.357  0.00  0.00    +0.092 C 
ATOM     14  H   UNL     1      35.793 -18.309 -23.970  0.00  0.00    +0.159 HD
ENDROOT
TORSDOF 0
ENDMDL
MODEL 2
REMARK VINA RESULT:      -7.1      1.469      3.715
REMARK  Name = 5429
REMARK  0 active torsions:
REMARK  status: ('A' for Active; 'I' for Inactive)
REMARK                            x       y       z     vdW  Elec       q    Type
REMARK                         _______ _______ _______ _____ _____    ______ ____
ROOT
ATOM      1  O   UNL     1      35.309 -18.932 -24.037  0.00  0.00    -0.273 OA
ATOM      2  O   UNL     1      33.484 -15.509 -26.548  0.00  0.00    -0.252 OA
ATOM      3  N   UNL     1      35.065 -17.069 -21.659  0.00  0.00    -0.239 NA
ATOM      4  N   UNL     1      33.783 -15.098 -24.264  0.00  0.00    -0.228 N 
ATOM      5  N   UNL     1      34.391 -17.192 -25.263  0.00  0.00    -0.238 N 
ATOM      6  N   UNL     1      34.232 -15.006 -21.842  0.00  0.00    -0.240 NA
ATOM      7  C   UNL     1      34.737 -16.903 -22.974  0.00  0.00    +0.191 C 
ATOM      8  C   UNL     1      34.230 -15.632 -23.059  0.00  0.00    +0.135 C 
ATOM      9  C   UNL     1      34.857 -17.792 -24.084  0.00  0.00    +0.251 C 
ATOM     10  C   UNL     1      33.854 -15.891 -25.434  0.00  0.00    +0.314 C 
ATOM     11  C   UNL     1      34.742 -15.900 -21.018  0.00  0.00    +0.203 C 
ATOM     12  C   UNL     1      33.249 -13.745 -24.320  0.00  0.00    +0.123 C 
ATOM     13  C   UNL     1      35.640 -18.238 -21.040  0.00  0.00    +0.092 C 
ATOM     14  H   UNL     1      34.442 -17.746 -26.076  0.00  0.00    +0.159 HD
ENDROOT
TORSDOF 0
ENDMDL
MODEL 3
REMARK VINA RESULT:      -7.1      1.595      2.066
REMARK  Name = 5429
REMARK  0 active torsions:
REMARK  status: ('A' for Active; 'I' for Inactive)
REMARK                            x       y       z     vdW  Elec       q    Type
REMARK                         _______ _______ _______ _____ _____    ______ ____
ROOT
ATOM      1  O   UNL     1      33.750 -15.716 -26.277  0.00  0.00    -0.273 OA
ATOM      2  O   UNL     1      35.034 -19.609 -24.147  0.00  0.00    -0.252 OA
ATOM      3  N   UNL     1      34.031 -14.366 -23.579  0.00  0.00    -0.239 NA
ATOM      4  N   UNL     1      34.899 -17.682 -22.829  0.00  0.00    -0.228 N 
ATOM      5  N   UNL     1      34.398 -17.649 -25.174  0.00  0.00    -0.238 N 
ATOM      6  N   UNL     1      34.655 -15.480 -21.749  0.00  0.00    -0.240 NA
ATOM      7  C   UNL     1      34.226 -15.661 -23.966  0.00  0.00    +0.191 C 
ATOM      8  C   UNL     1      34.608 -16.321 -22.826  0.00  0.00    +0.135 C 
ATOM      9  C   UNL     1      34.091 -16.282 -25.244  0.00  0.00    +0.251 C 
ATOM     10  C   UNL     1      34.798 -18.403 -24.042  0.00  0.00    +0.314 C 
ATOM     11  C   UNL     1      34.301 -14.307 -22.236  0.00  0.00    +0.203 C 
ATOM     12  C   UNL     1      35.301 -18.353 -21.602  0.00  0.00    +0.123 C 
ATOM     13  C   UNL     1      33.619 -13.257 -24.405  0.00  0.00    +0.092 C 
ATOM     14  H   UNL     1      34.326 -18.148 -26.020  0.00  0.00    +0.159 HD
ENDROOT
TORSDOF 0
ENDMDL
MODEL 4
REMARK VINA RESULT:      -7.0      1.896      4.272
REMARK  Name = 5429
REMARK  0 active torsions:
REMARK  status: ('A' for Active; 'I' for Inactive)
REMARK                            x       y       z     vdW  Elec       q    Type
REMARK                         _______ _______ _______ _____ _____    ______ ____
ROOT
ATOM      1  O   UNL     1      34.992 -16.056 -21.241  0.00  0.00    -0.273 OA
ATOM      2  O   UNL     1      33.284 -12.593 -23.778  0.00  0.00    -0.252 OA
ATOM      3  N   UNL     1      34.766 -17.753 -23.741  0.00  0.00    -0.239 NA
ATOM      4  N   UNL     1      33.565 -14.650 -24.855  0.00  0.00    -0.228 N 
ATOM      5  N   UNL     1      34.134 -14.343 -22.545  0.00  0.00    -0.238 N 
ATOM      6  N   UNL     1      33.987 -16.939 -25.667  0.00  0.00    -0.240 NA
ATOM      7  C   UNL     1      34.459 -16.443 -23.507  0.00  0.00    +0.191 C 
ATOM      8  C   UNL     1      33.984 -15.969 -24.703  0.00  0.00    +0.135 C 
ATOM      9  C   UNL     1      34.573 -15.656 -22.322  0.00  0.00    +0.251 C 
ATOM     10  C   UNL     1      33.631 -13.776 -23.744  0.00  0.00    +0.314 C 
ATOM     11  C   UNL     1      34.465 -18.004 -25.055  0.00  0.00    +0.203 C 
ATOM     12  C   UNL     1      33.065 -14.177 -26.138  0.00  0.00    +0.123 C 
ATOM     13  C   UNL     1      35.306 -18.707 -22.803  0.00  0.00    +0.092 C 
ATOM     14  H   UNL     1      34.181 -13.737 -21.770  0.00  0.00    +0.159 HD
ENDROOT
TORSDOF 0
ENDMDL
MODEL 5
REMARK VINA RESULT:      -6.9      1.784      2.829
REMARK  Name = 5429
REMARK  0 active torsions:
REMARK  status: ('A' for Active; 'I' for Inactive)
REMARK                            x       y       z     vdW  Elec       q    Type
REMARK                         _______ _______ _______ _____ _____    ______ ____
ROOT
ATOM      1  O   UNL     1      33.075 -13.391 -23.681  0.00  0.00    -0.273 OA
ATOM      2  O   UNL     1      34.893 -15.480 -19.984  0.00  0.00    -0.252 OA
ATOM      3  N   UNL     1      33.792 -15.900 -25.221  0.00  0.00    -0.239 NA
ATOM      4  N   UNL     1      34.924 -16.678 -21.993  0.00  0.00    -0.228 N 
ATOM      5  N   UNL     1      33.995 -14.471 -21.849  0.00  0.00    -0.238 N 
ATOM      6  N   UNL     1      34.792 -17.646 -24.256  0.00  0.00    -0.240 NA
ATOM      7  C   UNL     1      33.967 -15.564 -23.910  0.00  0.00    +0.191 C 
ATOM      8  C   UNL     1      34.581 -16.651 -23.341  0.00  0.00    +0.135 C 
ATOM      9  C   UNL     1      33.622 -14.376 -23.198  0.00  0.00    +0.251 C 
ATOM     10  C   UNL     1      34.630 -15.552 -21.187  0.00  0.00    +0.314 C 
ATOM     11  C   UNL     1      34.304 -17.162 -25.381  0.00  0.00    +0.203 C 
ATOM     12  C   UNL     1      35.575 -17.847 -21.419  0.00  0.00    +0.123 C 
ATOM     13  C   UNL     1      33.188 -15.099 -26.258  0.00  0.00    +0.092 C 
ATOM     14  H   UNL     1      33.789 -13.686 -21.291  0.00  0.00    +0.159 HD
ENDROOT
TORSDOF 0
ENDMDL
MODEL 6
REMARK VINA RESULT:      -6.8      2.023      3.116
REMARK  Name = 5429
REMARK  0 active torsions:
REMARK  status: ('A' for Active; 'I' for Inactive)
REMARK                            x       y       z     vdW  Elec       q    Type
REMARK                         _______ _______ _______ _____ _____    ______ ____
ROOT
ATOM      1  O   UNL     1      34.604 -14.565 -20.599  0.00  0.00    -0.273 OA
ATOM      2  O   UNL     1      35.537 -19.089 -20.674  0.00  0.00    -0.252 OA
ATOM      3  N   UNL     1      34.047 -14.819 -23.567  0.00  0.00    -0.239 NA
ATOM      4  N   UNL     1      34.915 -18.107 -22.704  0.00  0.00    -0.228 N 
ATOM      5  N   UNL     1      35.064 -16.835 -20.676  0.00  0.00    -0.238 N 
ATOM      6  N   UNL     1      34.232 -16.760 -24.652  0.00  0.00    -0.240 NA
ATOM      7  C   UNL     1      34.432 -15.742 -22.637  0.00  0.00    +0.191 C 
ATOM      8  C   UNL     1      34.537 -16.922 -23.329  0.00  0.00    +0.135 C 
ATOM      9  C   UNL     1      34.689 -15.607 -21.240  0.00  0.00    +0.251 C 
ATOM     10  C   UNL     1      35.196 -18.093 -21.317  0.00  0.00    +0.314 C 
ATOM     11  C   UNL     1      33.940 -15.480 -24.764  0.00  0.00    +0.203 C 
ATOM     12  C   UNL     1      35.018 -19.343 -23.466  0.00  0.00    +0.123 C 
ATOM     13  C   UNL     1      33.795 -13.414 -23.354  0.00  0.00    +0.092 C 
ATOM     14  H   UNL     1      35.259 -16.822 -19.711  0.00  0.00    +0.159 HD
ENDROOT
TORSDOF 0
ENDMDL
MODEL 7
REMARK VINA RESULT:      -6.8      4.989      6.506
REMARK  Name = 5429
REMARK  0 active torsions:
REMARK  status: ('A' for Active; 'I' for Inactive)
REMARK                            x       y       z     vdW  Elec       q    Type
REMARK                         _______ _______ _______ _____ _____    ______ ____
ROOT
ATOM      1  O   UNL     1      32.298 -20.438 -21.041  0.00  0.00    -0.273 OA
ATOM      2  O   UNL     1      34.115 -23.167 -17.786  0.00  0.00    -0.252 OA
ATOM      3  N   UNL     1      35.058 -19.215 -21.295  0.00  0.00    -0.239 NA
ATOM      4  N   UNL     1      35.556 -21.624 -18.793  0.00  0.00    -0.228 N 
ATOM      5  N   UNL     1      33.245 -21.790 -19.413  0.00  0.00    -0.238 N 
ATOM      6  N   UNL     1      36.783 -19.896 -20.053  0.00  0.00    -0.240 NA
ATOM      7  C   UNL     1      34.582 -20.211 -20.492  0.00  0.00    +0.191 C 
ATOM      8  C   UNL     1      35.658 -20.610 -19.741  0.00  0.00    +0.135 C 
ATOM      9  C   UNL     1      33.277 -20.778 -20.384  0.00  0.00    +0.251 C 
ATOM     10  C   UNL     1      34.306 -22.260 -18.599  0.00  0.00    +0.314 C 
ATOM     11  C   UNL     1      36.388 -19.063 -20.994  0.00  0.00    +0.203 C 
ATOM     12  C   UNL     1      36.718 -22.025 -18.013  0.00  0.00    +0.123 C 
ATOM     13  C   UNL     1      34.324 -18.456 -22.278  0.00  0.00    +0.092 C 
ATOM     14  H   UNL     1      32.374 -22.230 -19.281  0.00  0.00    +0.159 HD
ENDROOT
TORSDOF 0
ENDMDL
MODEL 8
REMARK VINA RESULT:      -6.7      5.160      6.619
REMARK  Name = 5429
REMARK  0 active torsions:
REMARK  status: ('A' for Active; 'I' for Inactive)
REMARK                            x       y       z     vdW  Elec       q    Type
REMARK                         _______ _______ _______ _____ _____    ______ ____
ROOT
ATOM      1  O   UNL     1      37.039 -19.570 -20.576  0.00  0.00    -0.273 OA
ATOM      2  O   UNL     1      36.154 -22.723 -17.317  0.00  0.00    -0.252 OA
ATOM      3  N   UNL     1      34.085 -19.698 -21.240  0.00  0.00    -0.239 NA
ATOM      4  N   UNL     1      34.341 -22.005 -18.610  0.00  0.00    -0.228 N 
ATOM      5  N   UNL     1      36.557 -21.151 -18.951  0.00  0.00    -0.238 N 
ATOM      6  N   UNL     1      32.674 -21.034 -20.143  0.00  0.00    -0.240 NA
ATOM      7  C   UNL     1      34.830 -20.357 -20.305  0.00  0.00    +0.191 C 
ATOM      8  C   UNL     1      33.942 -21.169 -19.647  0.00  0.00    +0.135 C 
ATOM      9  C   UNL     1      36.223 -20.284 -20.003  0.00  0.00    +0.251 C 
ATOM     10  C   UNL     1      35.703 -22.018 -18.223  0.00  0.00    +0.314 C 
ATOM     11  C   UNL     1      32.794 -20.139 -21.104  0.00  0.00    +0.203 C 
ATOM     12  C   UNL     1      33.373 -22.855 -17.931  0.00  0.00    +0.123 C 
ATOM     13  C   UNL     1      34.545 -18.721 -22.198  0.00  0.00    +0.092 C 
ATOM     14  H   UNL     1      37.504 -21.158 -18.685  0.00  0.00    +0.159 HD
ENDROOT
TORSDOF 0
ENDMDL
MODEL 9
REMARK VINA RESULT:      -6.6      2.081      3.462
REMARK  Name = 5429
REMARK  0 active torsions:
REMARK  status: ('A' for Active; 'I' for Inactive)
REMARK                            x       y       z     vdW  Elec       q    Type
REMARK                         _______ _______ _______ _____ _____    ______ ____
ROOT
ATOM      1  O   UNL     1      35.394 -19.257 -21.382  0.00  0.00    -0.273 OA
ATOM      2  O   UNL     1      34.783 -14.848 -20.145  0.00  0.00    -0.252 OA
ATOM      3  N   UNL     1      34.759 -18.360 -24.205  0.00  0.00    -0.239 NA
ATOM      4  N   UNL     1      34.500 -15.356 -22.411  0.00  0.00    -0.228 N 
ATOM      5  N   UNL     1      35.080 -17.036 -20.799  0.00  0.00    -0.238 N 
ATOM      6  N   UNL     1      34.282 -16.237 -24.702  0.00  0.00    -0.240 NA
ATOM      7  C   UNL     1      34.826 -17.667 -23.031  0.00  0.00    +0.191 C 
ATOM      8  C   UNL     1      34.529 -16.370 -23.364  0.00  0.00    +0.135 C 
ATOM      9  C   UNL     1      35.128 -18.105 -21.707  0.00  0.00    +0.251 C 
ATOM     10  C   UNL     1      34.784 -15.674 -21.061  0.00  0.00    +0.314 C 
ATOM     11  C   UNL     1      34.428 -17.456 -25.182  0.00  0.00    +0.203 C 
ATOM     12  C   UNL     1      34.182 -13.989 -22.796  0.00  0.00    +0.123 C 
ATOM     13  C   UNL     1      34.987 -19.771 -24.405  0.00  0.00    +0.092 C 
ATOM     14  H   UNL     1      35.278 -17.261 -19.861  0.00  0.00    +0.159 HD
ENDROOT
TORSDOF 0
ENDMDL
