MODEL 1
REMARK VINA RESULT:     -11.4      0.000      0.000
REMARK  Name = 16040323
REMARK  5 active torsions:
REMARK  status: ('A' for Active; 'I' for Inactive)
REMARK    1  A    between atoms: C_1  and  C_2
REMARK    2  A    between atoms: C_1  and  C_16
REMARK    3  A    between atoms: C_5  and  C_8
REMARK    4  A    between atoms: C_11  and  O_14
REMARK    5  A    between atoms: C_16  and  C_21
REMARK                            x       y       z     vdW  Elec       q    Type
REMARK                         _______ _______ _______ _____ _____    ______ ____
ROOT
ATOM      1  C   UNL     1      34.341 -15.330 -21.750  0.00  0.00    +0.028 C 
ENDROOT
BRANCH   1   2
ATOM      2  C   UNL     1      34.543 -16.759 -22.182  0.00  0.00    -0.022 C 
ATOM      3  C   UNL     1      34.613 -17.758 -21.222  0.00  0.00    -0.004 C 
ATOM      4  C   UNL     1      34.657 -17.054 -23.533  0.00  0.00    -0.004 C 
ATOM      5  C   UNL     1      34.801 -19.082 -21.622  0.00  0.00    -0.000 C 
ATOM      6  C   UNL     1      34.845 -18.377 -23.933  0.00  0.00    -0.000 C 
ATOM      7  C   UNL     1      34.917 -19.391 -22.977  0.00  0.00    -0.000 C 
BRANCH   5   8
ATOM      8  C   UNL     1      34.875 -20.134 -20.631  0.00  0.00    +0.003 C 
ATOM      9  C   UNL     1      33.706 -20.706 -20.133  0.00  0.00    +0.037 C 
ATOM     10  C   UNL     1      36.117 -20.575 -20.176  0.00  0.00    +0.000 C 
ATOM     11  C   UNL     1      33.778 -21.721 -19.179  0.00  0.00    +0.139 C 
ATOM     12  C   UNL     1      36.189 -21.589 -19.221  0.00  0.00    +0.003 C 
ATOM     13  C   UNL     1      35.020 -22.163 -18.723  0.00  0.00    +0.037 C 
BRANCH  11  14
ATOM     14  O   UNL     1      32.636 -22.281 -18.692  0.00  0.00    -0.471 OA
ATOM     15  C   UNL     1      32.748 -23.043 -17.491  0.00  0.00    +0.252 C 
ENDBRANCH  11  14
ENDBRANCH   5   8
ENDBRANCH   1   2
BRANCH   1  16
ATOM     16  C   UNL     1      34.527 -14.370 -22.919  0.00  0.00    +0.028 C 
BRANCH  16  21
ATOM     17  O   UNL     1      32.682 -15.154 -26.292  0.00  0.00    -0.274 OA
ATOM     18  N   UNL     1      33.647 -12.209 -23.631  0.00  0.00    -0.247 NA
ATOM     19  N   UNL     1      33.551 -13.021 -25.858  0.00  0.00    -0.231 N 
ATOM     20  N   UNL     1      34.255 -10.786 -25.337  0.00  0.00    -0.331 N 
ATOM     21  C   UNL     1      33.258 -13.538 -23.152  0.00  0.00    +0.096 C 
ATOM     22  C   UNL     1      32.308 -14.205 -24.138  0.00  0.00    +0.108 C 
ATOM     23  C   UNL     1      32.539 -13.338 -21.810  0.00  0.00    +0.025 C 
ATOM     24  C   UNL     1      32.879 -14.208 -25.533  0.00  0.00    +0.233 C 
ATOM     25  C   UNL     1      33.812 -12.014 -24.904  0.00  0.00    +0.183 C 
ATOM     26  C   UNL     1      33.987 -12.845 -27.242  0.00  0.00    +0.123 C 
ATOM     27  H   UNL     1      34.442 -10.072 -24.685  0.00  0.00    +0.145 HD
ATOM     28  H   UNL     1      34.386 -10.621 -26.299  0.00  0.00    +0.145 HD
ENDBRANCH  16  21
ENDBRANCH   1  16
TORSDOF 5
ENDMDL
MODEL 2
REMARK VINA RESULT:     -10.7      1.975      2.954
REMARK  Name = 16040323
REMARK  5 active torsions:
REMARK  status: ('A' for Active; 'I' for Inactive)
REMARK    1  A    between atoms: C_1  and  C_2
REMARK    2  A    between atoms: C_1  and  C_16
REMARK    3  A    between atoms: C_5  and  C_8
REMARK    4  A    between atoms: C_11  and  O_14
REMARK    5  A    between atoms: C_16  and  C_21
REMARK                            x       y       z     vdW  Elec       q    Type
REMARK                         _______ _______ _______ _____ _____    ______ ____
ROOT
ATOM      1  C   UNL     1      33.817 -14.825 -22.053  0.00  0.00    +0.028 C 
ENDROOT
BRANCH   1   2
ATOM      2  C   UNL     1      34.302 -16.203 -22.423  0.00  0.00    -0.022 C 
ATOM      3  C   UNL     1      34.149 -17.246 -21.521  0.00  0.00    -0.004 C 
ATOM      4  C   UNL     1      34.895 -16.408 -23.661  0.00  0.00    -0.004 C 
ATOM      5  C   UNL     1      34.598 -18.522 -21.864  0.00  0.00    -0.000 C 
ATOM      6  C   UNL     1      35.344 -17.683 -24.004  0.00  0.00    -0.000 C 
ATOM      7  C   UNL     1      35.195 -18.740 -23.105  0.00  0.00    -0.000 C 
BRANCH   5   8
ATOM      8  C   UNL     1      34.443 -19.618 -20.933  0.00  0.00    +0.003 C 
ATOM      9  C   UNL     1      35.569 -20.241 -20.396  0.00  0.00    +0.037 C 
ATOM     10  C   UNL     1      33.168 -20.051 -20.571  0.00  0.00    +0.000 C 
ATOM     11  C   UNL     1      35.421 -21.297 -19.497  0.00  0.00    +0.139 C 
ATOM     12  C   UNL     1      33.019 -21.108 -19.673  0.00  0.00    +0.003 C 
ATOM     13  C   UNL     1      34.145 -21.730 -19.136  0.00  0.00    +0.037 C 
BRANCH  11  14
ATOM     14  O   UNL     1      36.520 -21.906 -18.973  0.00  0.00    -0.471 OA
ATOM     15  C   UNL     1      36.778 -21.698 -17.586  0.00  0.00    +0.252 C 
ENDBRANCH  11  14
ENDBRANCH   5   8
ENDBRANCH   1   2
BRANCH   1  16
ATOM     16  C   UNL     1      34.335 -13.779 -23.032  0.00  0.00    +0.028 C 
BRANCH  16  21
ATOM     17  O   UNL     1      34.562  -9.989 -24.024  0.00  0.00    -0.274 OA
ATOM     18  N   UNL     1      32.008 -13.061 -23.173  0.00  0.00    -0.247 NA
ATOM     19  N   UNL     1      32.715 -10.821 -22.844  0.00  0.00    -0.231 N 
ATOM     20  N   UNL     1      30.732 -11.702 -21.820  0.00  0.00    -0.331 N 
ATOM     21  C   UNL     1      33.214 -13.303 -23.968  0.00  0.00    +0.096 C 
ATOM     22  C   UNL     1      33.606 -12.050 -24.741  0.00  0.00    +0.108 C 
ATOM     23  C   UNL     1      32.880 -14.428 -24.958  0.00  0.00    +0.025 C 
ATOM     24  C   UNL     1      33.711 -10.855 -23.830  0.00  0.00    +0.233 C 
ATOM     25  C   UNL     1      31.826 -11.895 -22.630  0.00  0.00    +0.183 C 
ATOM     26  C   UNL     1      32.615  -9.616 -22.022  0.00  0.00    +0.123 C 
ATOM     27  H   UNL     1      30.101 -12.442 -21.659  0.00  0.00    +0.145 HD
ATOM     28  H   UNL     1      30.579 -10.825 -21.399  0.00  0.00    +0.145 HD
ENDBRANCH  16  21
ENDBRANCH   1  16
TORSDOF 5
ENDMDL
MODEL 3
REMARK VINA RESULT:     -10.4      1.809      2.438
REMARK  Name = 16040323
REMARK  5 active torsions:
REMARK  status: ('A' for Active; 'I' for Inactive)
REMARK    1  A    between atoms: C_1  and  C_2
REMARK    2  A    between atoms: C_1  and  C_16
REMARK    3  A    between atoms: C_5  and  C_8
REMARK    4  A    between atoms: C_11  and  O_14
REMARK    5  A    between atoms: C_16  and  C_21
REMARK                            x       y       z     vdW  Elec       q    Type
REMARK                         _______ _______ _______ _____ _____    ______ ____
ROOT
ATOM      1  C   UNL     1      34.912 -14.986 -22.315  0.00  0.00    +0.028 C 
ENDROOT
BRANCH   1   2
ATOM      2  C   UNL     1      34.890 -16.448 -22.682  0.00  0.00    -0.022 C 
ATOM      3  C   UNL     1      34.998 -17.404 -21.682  0.00  0.00    -0.004 C 
ATOM      4  C   UNL     1      34.764 -16.815 -24.014  0.00  0.00    -0.004 C 
ATOM      5  C   UNL     1      34.978 -18.757 -22.022  0.00  0.00    -0.000 C 
ATOM      6  C   UNL     1      34.744 -18.167 -24.354  0.00  0.00    -0.000 C 
ATOM      7  C   UNL     1      34.851 -19.139 -23.357  0.00  0.00    -0.000 C 
BRANCH   5   8
ATOM      8  C   UNL     1      35.088 -19.764 -20.989  0.00  0.00    +0.003 C 
ATOM      9  C   UNL     1      33.942 -20.389 -20.499  0.00  0.00    +0.037 C 
ATOM     10  C   UNL     1      36.342 -20.111 -20.486  0.00  0.00    +0.000 C 
ATOM     11  C   UNL     1      34.049 -21.361 -19.504  0.00  0.00    +0.139 C 
ATOM     12  C   UNL     1      36.448 -21.082 -19.490  0.00  0.00    +0.003 C 
ATOM     13  C   UNL     1      35.302 -21.707 -19.000  0.00  0.00    +0.037 C 
BRANCH  11  14
ATOM     14  O   UNL     1      32.930 -21.971 -19.024  0.00  0.00    -0.471 OA
ATOM     15  C   UNL     1      33.103 -22.887 -17.944  0.00  0.00    +0.252 C 
ENDBRANCH  11  14
ENDBRANCH   5   8
ENDBRANCH   1   2
BRANCH   1  16
ATOM     16  C   UNL     1      34.198 -14.741 -20.991  0.00  0.00    +0.028 C 
BRANCH  16  21
ATOM     17  O   UNL     1      33.032 -12.986 -24.302  0.00  0.00    -0.274 OA
ATOM     18  N   UNL     1      32.115 -13.632 -20.374  0.00  0.00    -0.247 NA
ATOM     19  N   UNL     1      32.402 -12.150 -22.204  0.00  0.00    -0.231 N 
ATOM     20  N   UNL     1      31.585 -11.410 -20.072  0.00  0.00    -0.331 N 
ATOM     21  C   UNL     1      32.675 -14.713 -21.188  0.00  0.00    +0.096 C 
ATOM     22  C   UNL     1      32.289 -14.536 -22.651  0.00  0.00    +0.108 C 
ATOM     23  C   UNL     1      32.080 -16.026 -20.660  0.00  0.00    +0.025 C 
ATOM     24  C   UNL     1      32.644 -13.158 -23.148  0.00  0.00    +0.233 C 
ATOM     25  C   UNL     1      32.038 -12.434 -20.871  0.00  0.00    +0.183 C 
ATOM     26  C   UNL     1      32.540 -10.762 -22.642  0.00  0.00    +0.123 C 
ATOM     27  H   UNL     1      31.327 -11.590 -19.138  0.00  0.00    +0.145 HD
ATOM     28  H   UNL     1      31.521 -10.496 -20.432  0.00  0.00    +0.145 HD
ENDBRANCH  16  21
ENDBRANCH   1  16
TORSDOF 5
ENDMDL
MODEL 4
REMARK VINA RESULT:     -10.4      4.291      6.668
REMARK  Name = 16040323
REMARK  5 active torsions:
REMARK  status: ('A' for Active; 'I' for Inactive)
REMARK    1  A    between atoms: C_1  and  C_2
REMARK    2  A    between atoms: C_1  and  C_16
REMARK    3  A    between atoms: C_5  and  C_8
REMARK    4  A    between atoms: C_11  and  O_14
REMARK    5  A    between atoms: C_16  and  C_21
REMARK                            x       y       z     vdW  Elec       q    Type
REMARK                         _______ _______ _______ _____ _____    ______ ____
ROOT
ATOM      1  C   UNL     1      33.133 -10.359 -24.095  0.00  0.00    +0.028 C 
ENDROOT
BRANCH   1   2
ATOM      2  C   UNL     1      32.859 -11.521 -23.175  0.00  0.00    -0.022 C 
ATOM      3  C   UNL     1      33.514 -12.726 -23.384  0.00  0.00    -0.004 C 
ATOM      4  C   UNL     1      31.955 -11.368 -22.133  0.00  0.00    -0.004 C 
ATOM      5  C   UNL     1      33.260 -13.801 -22.532  0.00  0.00    -0.000 C 
ATOM      6  C   UNL     1      31.701 -12.443 -21.282  0.00  0.00    -0.000 C 
ATOM      7  C   UNL     1      32.354 -13.660 -21.481  0.00  0.00    -0.000 C 
BRANCH   5   8
ATOM      8  C   UNL     1      33.936 -15.063 -22.738  0.00  0.00    +0.003 C 
ATOM      9  C   UNL     1      34.403 -15.791 -21.644  0.00  0.00    +0.037 C 
ATOM     10  C   UNL     1      34.121 -15.552 -24.031  0.00  0.00    +0.000 C 
ATOM     11  C   UNL     1      35.055 -17.009 -21.843  0.00  0.00    +0.139 C 
ATOM     12  C   UNL     1      34.773 -16.769 -24.230  0.00  0.00    +0.003 C 
ATOM     13  C   UNL     1      35.239 -17.498 -23.136  0.00  0.00    +0.037 C 
BRANCH  11  14
ATOM     14  O   UNL     1      35.511 -17.720 -20.775  0.00  0.00    -0.471 OA
ATOM     15  C   UNL     1      36.243 -18.912 -21.054  0.00  0.00    +0.252 C 
ENDBRANCH  11  14
ENDBRANCH   5   8
ENDBRANCH   1   2
BRANCH   1  16
ATOM     16  C   UNL     1      32.400  -9.106 -23.632  0.00  0.00    +0.028 C 
BRANCH  16  21
ATOM     17  O   UNL     1      31.856  -7.152 -20.272  0.00  0.00    -0.274 OA
ATOM     18  N   UNL     1      32.938  -6.794 -24.195  0.00  0.00    -0.247 NA
ATOM     19  N   UNL     1      31.639  -6.077 -22.344  0.00  0.00    -0.231 N 
ATOM     20  N   UNL     1      31.617  -4.925 -24.449  0.00  0.00    -0.331 N 
ATOM     21  C   UNL     1      33.384  -7.947 -23.409  0.00  0.00    +0.096 C 
ATOM     22  C   UNL     1      33.508  -7.576 -21.937  0.00  0.00    +0.108 C 
ATOM     23  C   UNL     1      34.762  -8.353 -23.950  0.00  0.00    +0.025 C 
ATOM     24  C   UNL     1      32.239  -6.946 -21.422  0.00  0.00    +0.233 C 
ATOM     25  C   UNL     1      32.090  -5.959 -23.676  0.00  0.00    +0.183 C 
ATOM     26  C   UNL     1      30.506  -5.277 -21.884  0.00  0.00    +0.123 C 
ATOM     27  H   UNL     1      31.920  -4.827 -25.381  0.00  0.00    +0.145 HD
ATOM     28  H   UNL     1      30.973  -4.282 -24.072  0.00  0.00    +0.145 HD
ENDBRANCH  16  21
ENDBRANCH   1  16
TORSDOF 5
ENDMDL
MODEL 5
REMARK VINA RESULT:     -10.1      6.745     11.511
REMARK  Name = 16040323
REMARK  5 active torsions:
REMARK  status: ('A' for Active; 'I' for Inactive)
REMARK    1  A    between atoms: C_1  and  C_2
REMARK    2  A    between atoms: C_1  and  C_16
REMARK    3  A    between atoms: C_5  and  C_8
REMARK    4  A    between atoms: C_11  and  O_14
REMARK    5  A    between atoms: C_16  and  C_21
REMARK                            x       y       z     vdW  Elec       q    Type
REMARK                         _______ _______ _______ _____ _____    ______ ____
ROOT
ATOM      1  C   UNL     1      36.382 -23.029 -16.168  0.00  0.00    +0.028 C 
ENDROOT
BRANCH   1   2
ATOM      2  C   UNL     1      35.443 -22.595 -17.264  0.00  0.00    -0.022 C 
ATOM      3  C   UNL     1      35.893 -21.716 -18.239  0.00  0.00    -0.004 C 
ATOM      4  C   UNL     1      34.143 -23.080 -17.281  0.00  0.00    -0.004 C 
ATOM      5  C   UNL     1      35.023 -21.314 -19.253  0.00  0.00    -0.000 C 
ATOM      6  C   UNL     1      33.274 -22.678 -18.295  0.00  0.00    -0.000 C 
ATOM      7  C   UNL     1      33.714 -21.795 -19.282  0.00  0.00    -0.000 C 
BRANCH   5   8
ATOM      8  C   UNL     1      35.479 -20.398 -20.277  0.00  0.00    +0.003 C 
ATOM      9  C   UNL     1      34.592 -19.946 -21.253  0.00  0.00    +0.037 C 
ATOM     10  C   UNL     1      36.806 -19.968 -20.286  0.00  0.00    +0.000 C 
ATOM     11  C   UNL     1      35.031 -19.062 -22.239  0.00  0.00    +0.139 C 
ATOM     12  C   UNL     1      37.245 -19.085 -21.272  0.00  0.00    +0.003 C 
ATOM     13  C   UNL     1      36.358 -18.632 -22.248  0.00  0.00    +0.037 C 
BRANCH  11  14
ATOM     14  O   UNL     1      34.166 -18.620 -23.192  0.00  0.00    -0.471 OA
ATOM     15  C   UNL     1      34.598 -18.703 -24.549  0.00  0.00    +0.252 C 
ENDBRANCH  11  14
ENDBRANCH   5   8
ENDBRANCH   1   2
BRANCH   1  16
ATOM     16  C   UNL     1      35.860 -22.611 -14.799  0.00  0.00    +0.028 C 
BRANCH  16  21
ATOM     17  O   UNL     1      38.347 -23.224 -11.826  0.00  0.00    -0.274 OA
ATOM     18  N   UNL     1      36.002 -25.041 -14.635  0.00  0.00    -0.247 NA
ATOM     19  N   UNL     1      38.091 -24.809 -13.534  0.00  0.00    -0.231 N 
ATOM     20  N   UNL     1      37.684 -26.523 -15.164  0.00  0.00    -0.331 N 
ATOM     21  C   UNL     1      35.527 -23.841 -13.941  0.00  0.00    +0.096 C 
ATOM     22  C   UNL     1      36.138 -23.751 -12.549  0.00  0.00    +0.108 C 
ATOM     23  C   UNL     1      34.002 -23.968 -13.821  0.00  0.00    +0.025 C 
ATOM     24  C   UNL     1      37.640 -23.866 -12.600  0.00  0.00    +0.233 C 
ATOM     25  C   UNL     1      37.223 -25.444 -14.448  0.00  0.00    +0.183 C 
ATOM     26  C   UNL     1      39.517 -25.131 -13.540  0.00  0.00    +0.123 C 
ATOM     27  H   UNL     1      37.092 -26.978 -15.807  0.00  0.00    +0.145 HD
ATOM     28  H   UNL     1      38.607 -26.842 -15.035  0.00  0.00    +0.145 HD
ENDBRANCH  16  21
ENDBRANCH   1  16
TORSDOF 5
ENDMDL
MODEL 6
REMARK VINA RESULT:     -10.1      9.289     12.346
REMARK  Name = 16040323
REMARK  5 active torsions:
REMARK  status: ('A' for Active; 'I' for Inactive)
REMARK    1  A    between atoms: C_1  and  C_2
REMARK    2  A    between atoms: C_1  and  C_16
REMARK    3  A    between atoms: C_5  and  C_8
REMARK    4  A    between atoms: C_11  and  O_14
REMARK    5  A    between atoms: C_16  and  C_21
REMARK                            x       y       z     vdW  Elec       q    Type
REMARK                         _______ _______ _______ _____ _____    ______ ____
ROOT
ATOM      1  C   UNL     1      36.194 -23.522 -15.511  0.00  0.00    +0.028 C 
ENDROOT
BRANCH   1   2
ATOM      2  C   UNL     1      35.025 -23.175 -16.396  0.00  0.00    -0.022 C 
ATOM      3  C   UNL     1      33.735 -23.413 -15.947  0.00  0.00    -0.004 C 
ATOM      4  C   UNL     1      35.258 -22.623 -17.648  0.00  0.00    -0.004 C 
ATOM      5  C   UNL     1      32.652 -23.091 -16.767  0.00  0.00    -0.000 C 
ATOM      6  C   UNL     1      34.176 -22.301 -18.468  0.00  0.00    -0.000 C 
ATOM      7  C   UNL     1      32.873 -22.535 -18.027  0.00  0.00    -0.000 C 
BRANCH   5   8
ATOM      8  C   UNL     1      31.301 -23.333 -16.310  0.00  0.00    +0.003 C 
ATOM      9  C   UNL     1      30.258 -22.521 -16.754  0.00  0.00    +0.037 C 
ATOM     10  C   UNL     1      31.042 -24.380 -15.425  0.00  0.00    +0.000 C 
ATOM     11  C   UNL     1      28.955 -22.755 -16.315  0.00  0.00    +0.139 C 
ATOM     12  C   UNL     1      29.739 -24.613 -14.985  0.00  0.00    +0.003 C 
ATOM     13  C   UNL     1      28.696 -23.802 -15.430  0.00  0.00    +0.037 C 
BRANCH  11  14
ATOM     14  O   UNL     1      27.937 -21.962 -16.748  0.00  0.00    -0.471 OA
ATOM     15  C   UNL     1      26.691 -22.074 -16.063  0.00  0.00    +0.252 C 
ENDBRANCH  11  14
ENDBRANCH   5   8
ENDBRANCH   1   2
BRANCH   1  16
ATOM     16  C   UNL     1      35.991 -22.991 -14.097  0.00  0.00    +0.028 C 
BRANCH  16  21
ATOM     17  O   UNL     1      39.105 -23.356 -11.738  0.00  0.00    -0.274 OA
ATOM     18  N   UNL     1      36.212 -25.399 -13.774  0.00  0.00    -0.247 NA
ATOM     19  N   UNL     1      38.493 -25.078 -13.207  0.00  0.00    -0.231 N 
ATOM     20  N   UNL     1      37.755 -26.921 -14.555  0.00  0.00    -0.331 N 
ATOM     21  C   UNL     1      35.887 -24.146 -13.089  0.00  0.00    +0.096 C 
ATOM     22  C   UNL     1      36.800 -23.940 -11.887  0.00  0.00    +0.108 C 
ATOM     23  C   UNL     1      34.433 -24.261 -12.610  0.00  0.00    +0.025 C 
ATOM     24  C   UNL     1      38.251 -24.059 -12.274  0.00  0.00    +0.233 C 
ATOM     25  C   UNL     1      37.450 -25.785 -13.842  0.00  0.00    +0.183 C 
ATOM     26  C   UNL     1      39.885 -25.399 -13.515  0.00  0.00    +0.123 C 
ATOM     27  H   UNL     1      37.039 -27.427 -15.005  0.00  0.00    +0.145 HD
ATOM     28  H   UNL     1      38.688 -27.228 -14.617  0.00  0.00    +0.145 HD
ENDBRANCH  16  21
ENDBRANCH   1  16
TORSDOF 5
ENDMDL
MODEL 7
REMARK VINA RESULT:     -10.0      3.566      6.419
REMARK  Name = 16040323
REMARK  5 active torsions:
REMARK  status: ('A' for Active; 'I' for Inactive)
REMARK    1  A    between atoms: C_1  and  C_2
REMARK    2  A    between atoms: C_1  and  C_16
REMARK    3  A    between atoms: C_5  and  C_8
REMARK    4  A    between atoms: C_11  and  O_14
REMARK    5  A    between atoms: C_16  and  C_21
REMARK                            x       y       z     vdW  Elec       q    Type
REMARK                         _______ _______ _______ _____ _____    ______ ____
ROOT
ATOM      1  C   UNL     1      33.968  -9.768 -24.538  0.00  0.00    +0.028 C 
ENDROOT
BRANCH   1   2
ATOM      2  C   UNL     1      33.783 -11.249 -24.749  0.00  0.00    -0.022 C 
ATOM      3  C   UNL     1      33.799 -12.101 -23.655  0.00  0.00    -0.004 C 
ATOM      4  C   UNL     1      33.601 -11.737 -26.035  0.00  0.00    -0.004 C 
ATOM      5  C   UNL     1      33.628 -13.472 -23.850  0.00  0.00    -0.000 C 
ATOM      6  C   UNL     1      33.430 -13.107 -26.231  0.00  0.00    -0.000 C 
ATOM      7  C   UNL     1      33.444 -13.975 -25.138  0.00  0.00    -0.000 C 
BRANCH   5   8
ATOM      8  C   UNL     1      33.642 -14.372 -22.718  0.00  0.00    +0.003 C 
ATOM      9  C   UNL     1      34.547 -15.433 -22.681  0.00  0.00    +0.037 C 
ATOM     10  C   UNL     1      32.751 -14.179 -21.663  0.00  0.00    +0.000 C 
ATOM     11  C   UNL     1      34.561 -16.300 -21.589  0.00  0.00    +0.139 C 
ATOM     12  C   UNL     1      32.765 -15.047 -20.571  0.00  0.00    +0.003 C 
ATOM     13  C   UNL     1      33.670 -16.107 -20.534  0.00  0.00    +0.037 C 
BRANCH  11  14
ATOM     14  O   UNL     1      35.444 -17.336 -21.552  0.00  0.00    -0.471 OA
ATOM     15  C   UNL     1      34.933 -18.611 -21.169  0.00  0.00    +0.252 C 
ENDBRANCH  11  14
ENDBRANCH   5   8
ENDBRANCH   1   2
BRANCH   1  16
ATOM     16  C   UNL     1      33.679  -9.378 -23.093  0.00  0.00    +0.028 C 
BRANCH  16  21
ATOM     17  O   UNL     1      32.861  -7.895 -19.553  0.00  0.00    -0.274 OA
ATOM     18  N   UNL     1      31.348  -9.991 -22.716  0.00  0.00    -0.247 NA
ATOM     19  N   UNL     1      31.700  -9.756 -20.382  0.00  0.00    -0.231 N 
ATOM     20  N   UNL     1      30.369 -11.527 -21.305  0.00  0.00    -0.331 N 
ATOM     21  C   UNL     1      32.242  -8.854 -22.945  0.00  0.00    +0.096 C 
ATOM     22  C   UNL     1      32.116  -7.839 -21.816  0.00  0.00    +0.108 C 
ATOM     23  C   UNL     1      31.810  -8.203 -24.266  0.00  0.00    +0.025 C 
ATOM     24  C   UNL     1      32.298  -8.491 -20.470  0.00  0.00    +0.233 C 
ATOM     25  C   UNL     1      31.147 -10.410 -21.503  0.00  0.00    +0.183 C 
ATOM     26  C   UNL     1      31.659 -10.398 -19.070  0.00  0.00    +0.123 C 
ATOM     27  H   UNL     1      29.976 -11.997 -22.077  0.00  0.00    +0.145 HD
ATOM     28  H   UNL     1      30.207 -11.858 -20.392  0.00  0.00    +0.145 HD
ENDBRANCH  16  21
ENDBRANCH   1  16
TORSDOF 5
ENDMDL
MODEL 8
REMARK VINA RESULT:      -9.9      5.282     10.002
REMARK  Name = 16040323
REMARK  5 active torsions:
REMARK  status: ('A' for Active; 'I' for Inactive)
REMARK    1  A    between atoms: C_1  and  C_2
REMARK    2  A    between atoms: C_1  and  C_16
REMARK    3  A    between atoms: C_5  and  C_8
REMARK    4  A    between atoms: C_11  and  O_14
REMARK    5  A    between atoms: C_16  and  C_21
REMARK                            x       y       z     vdW  Elec       q    Type
REMARK                         _______ _______ _______ _____ _____    ______ ____
ROOT
ATOM      1  C   UNL     1      31.864 -12.983 -21.252  0.00  0.00    +0.028 C 
ENDROOT
BRANCH   1   2
ATOM      2  C   UNL     1      31.887 -11.519 -20.896  0.00  0.00    -0.022 C 
ATOM      3  C   UNL     1      32.184 -10.583 -21.876  0.00  0.00    -0.004 C 
ATOM      4  C   UNL     1      31.611 -11.129 -19.593  0.00  0.00    -0.004 C 
ATOM      5  C   UNL     1      32.205  -9.227 -21.546  0.00  0.00    -0.000 C 
ATOM      6  C   UNL     1      31.632  -9.774 -19.263  0.00  0.00    -0.000 C 
ATOM      7  C   UNL     1      31.930  -8.823 -20.240  0.00  0.00    -0.000 C 
BRANCH   5   8
ATOM      8  C   UNL     1      32.513  -8.240 -22.558  0.00  0.00    +0.003 C 
ATOM      9  C   UNL     1      31.505  -7.417 -23.059  0.00  0.00    +0.037 C 
ATOM     10  C   UNL     1      33.818  -8.113 -23.033  0.00  0.00    +0.000 C 
ATOM     11  C   UNL     1      31.802  -6.465 -24.034  0.00  0.00    +0.139 C 
ATOM     12  C   UNL     1      34.115  -7.161 -24.009  0.00  0.00    +0.003 C 
ATOM     13  C   UNL     1      33.108  -6.337 -24.509  0.00  0.00    +0.037 C 
BRANCH  11  14
ATOM     14  O   UNL     1      30.819  -5.660 -24.523  0.00  0.00    -0.471 OA
ATOM     15  C   UNL     1      31.195  -4.342 -24.919  0.00  0.00    +0.252 C 
ENDBRANCH  11  14
ENDBRANCH   5   8
ENDBRANCH   1   2
BRANCH   1  16
ATOM     16  C   UNL     1      32.004 -13.185 -22.756  0.00  0.00    +0.028 C 
BRANCH  16  21
ATOM     17  O   UNL     1      34.024 -11.089 -25.387  0.00  0.00    -0.274 OA
ATOM     18  N   UNL     1      33.201 -14.864 -24.060  0.00  0.00    -0.247 NA
ATOM     19  N   UNL     1      33.389 -13.301 -25.835  0.00  0.00    -0.231 N 
ATOM     20  N   UNL     1      32.922 -15.624 -26.217  0.00  0.00    -0.331 N 
ATOM     21  C   UNL     1      33.381 -13.769 -23.104  0.00  0.00    +0.096 C 
ATOM     22  C   UNL     1      34.324 -12.714 -23.670  0.00  0.00    +0.108 C 
ATOM     23  C   UNL     1      34.000 -14.376 -21.838  0.00  0.00    +0.025 C 
ATOM     24  C   UNL     1      33.879 -12.258 -25.036  0.00  0.00    +0.233 C 
ATOM     25  C   UNL     1      33.172 -14.601 -25.332  0.00  0.00    +0.183 C 
ATOM     26  C   UNL     1      33.099 -13.003 -27.236  0.00  0.00    +0.123 C 
ATOM     27  H   UNL     1      32.768 -16.538 -25.883  0.00  0.00    +0.145 HD
ATOM     28  H   UNL     1      32.897 -15.442 -27.184  0.00  0.00    +0.145 HD
ENDBRANCH  16  21
ENDBRANCH   1  16
TORSDOF 5
ENDMDL
MODEL 9
REMARK VINA RESULT:      -9.8      3.701      8.354
REMARK  Name = 16040323
REMARK  5 active torsions:
REMARK  status: ('A' for Active; 'I' for Inactive)
REMARK    1  A    between atoms: C_1  and  C_2
REMARK    2  A    between atoms: C_1  and  C_16
REMARK    3  A    between atoms: C_5  and  C_8
REMARK    4  A    between atoms: C_11  and  O_14
REMARK    5  A    between atoms: C_16  and  C_21
REMARK                            x       y       z     vdW  Elec       q    Type
REMARK                         _______ _______ _______ _____ _____    ______ ____
ROOT
ATOM      1  C   UNL     1      35.262 -17.002 -23.525  0.00  0.00    +0.028 C 
ENDROOT
BRANCH   1   2
ATOM      2  C   UNL     1      34.428 -16.004 -24.286  0.00  0.00    -0.022 C 
ATOM      3  C   UNL     1      34.187 -14.755 -23.734  0.00  0.00    -0.004 C 
ATOM      4  C   UNL     1      33.914 -16.351 -25.527  0.00  0.00    -0.004 C 
ATOM      5  C   UNL     1      33.415 -13.830 -24.439  0.00  0.00    -0.000 C 
ATOM      6  C   UNL     1      33.142 -15.427 -26.232  0.00  0.00    -0.000 C 
ATOM      7  C   UNL     1      32.892 -14.167 -25.687  0.00  0.00    -0.000 C 
BRANCH   5   8
ATOM      8  C   UNL     1      33.156 -12.524 -23.875  0.00  0.00    +0.003 C 
ATOM      9  C   UNL     1      32.267 -12.387 -22.809  0.00  0.00    +0.037 C 
ATOM     10  C   UNL     1      33.797 -11.400 -24.397  0.00  0.00    +0.000 C 
ATOM     11  C   UNL     1      32.018 -11.127 -22.265  0.00  0.00    +0.139 C 
ATOM     12  C   UNL     1      33.547 -10.140 -23.853  0.00  0.00    +0.003 C 
ATOM     13  C   UNL     1      32.659 -10.004 -22.787  0.00  0.00    +0.037 C 
BRANCH  11  14
ATOM     14  O   UNL     1      31.150 -10.993 -21.225  0.00  0.00    -0.471 OA
ATOM     15  C   UNL     1      31.552 -11.538 -19.970  0.00  0.00    +0.252 C 
ENDBRANCH  11  14
ENDBRANCH   5   8
ENDBRANCH   1   2
BRANCH   1  16
ATOM     16  C   UNL     1      34.392 -18.097 -22.918  0.00  0.00    +0.028 C 
BRANCH  16  21
ATOM     17  O   UNL     1      37.434 -19.394 -20.806  0.00  0.00    -0.274 OA
ATOM     18  N   UNL     1      33.374 -18.953 -20.874  0.00  0.00    -0.247 NA
ATOM     19  N   UNL     1      35.292 -20.305 -20.525  0.00  0.00    -0.231 N 
ATOM     20  N   UNL     1      33.070 -21.097 -20.087  0.00  0.00    -0.331 N 
ATOM     21  C   UNL     1      34.239 -17.897 -21.403  0.00  0.00    +0.096 C 
ATOM     22  C   UNL     1      35.584 -17.897 -20.686  0.00  0.00    +0.108 C 
ATOM     23  C   UNL     1      33.526 -16.562 -21.145  0.00  0.00    +0.025 C 
ATOM     24  C   UNL     1      36.216 -19.265 -20.708  0.00  0.00    +0.233 C 
ATOM     25  C   UNL     1      33.899 -20.083 -20.507  0.00  0.00    +0.183 C 
ATOM     26  C   UNL     1      35.818 -21.657 -20.350  0.00  0.00    +0.123 C 
ATOM     27  H   UNL     1      32.094 -20.961 -20.069  0.00  0.00    +0.145 HD
ATOM     28  H   UNL     1      33.451 -21.960 -19.806  0.00  0.00    +0.145 HD
ENDBRANCH  16  21
ENDBRANCH   1  16
TORSDOF 5
ENDMDL
