MODEL 1
REMARK VINA RESULT:     -10.0      0.000      0.000
REMARK  Name = 24798741
REMARK  2 active torsions:
REMARK  status: ('A' for Active; 'I' for Inactive)
REMARK    1  A    between atoms: C_1  and  N_7
REMARK    2  A    between atoms: C_2  and  C_22
REMARK                            x       y       z     vdW  Elec       q    Type
REMARK                         _______ _______ _______ _____ _____    ______ ____
ROOT
ATOM      1  C   UNL     1      32.986 -24.368 -14.545  0.00  0.00    +0.060 C 
ATOM      2  C   UNL     1      32.568 -23.537 -15.585  0.00  0.00    +0.089 C 
ATOM      3  C   UNL     1      32.078 -24.765 -13.563  0.00  0.00    +0.015 C 
ATOM      4  C   UNL     1      31.242 -23.106 -15.643  0.00  0.00    +0.012 C 
ATOM      5  C   UNL     1      30.754 -24.333 -13.621  0.00  0.00    +0.001 C 
ATOM      6  C   UNL     1      30.335 -23.503 -14.661  0.00  0.00    +0.001 C 
ENDROOT
BRANCH   1   7
ATOM      7  N   UNL     1      34.319 -24.821 -14.461  0.00  0.00    -0.300 N 
ATOM      8  N   UNL     1      38.617 -25.798 -12.931  0.00  0.00    -0.300 N 
ATOM      9  N   UNL     1      34.966 -24.209 -12.245  0.00  0.00    -0.233 NA
ATOM     10  N   UNL     1      37.183 -24.674 -11.352  0.00  0.00    -0.233 NA
ATOM     11  C   UNL     1      36.552 -25.313 -13.624  0.00  0.00    +0.131 C 
ATOM     12  C   UNL     1      35.279 -24.776 -13.433  0.00  0.00    +0.117 C 
ATOM     13  C   UNL     1      37.432 -25.224 -12.553  0.00  0.00    +0.117 C 
ATOM     14  C   UNL     1      37.244 -25.966 -14.676  0.00  0.00    +0.004 C 
ATOM     15  C   UNL     1      38.513 -26.253 -14.221  0.00  0.00    +0.059 C 
ATOM     16  C   UNL     1      35.924 -24.194 -11.291  0.00  0.00    +0.252 C 
ATOM     17  H   UNL     1      34.641 -25.254 -15.284  0.00  0.00    +0.153 HD
ATOM     18  H   UNL     1      39.418 -25.873 -12.365  0.00  0.00    +0.153 HD
ENDBRANCH   1   7
BRANCH   2  22
ATOM     19  N   UNL     1      34.746 -22.697 -16.322  0.00  0.00    -0.337 NA
ATOM     20  N   UNL     1      33.146 -23.095 -17.908  0.00  0.00    -0.113 NA
ATOM     21  N   UNL     1      34.283 -22.639 -18.457  0.00  0.00    -0.204 N 
ATOM     22  C   UNL     1      33.479 -23.112 -16.615  0.00  0.00    +0.105 C 
ATOM     23  C   UNL     1      35.228 -22.406 -17.508  0.00  0.00    +0.188 C 
ATOM     24  C   UNL     1      36.571 -21.901 -17.840  0.00  0.00    +0.086 C 
ATOM     25  H   UNL     1      34.414 -22.493 -19.422  0.00  0.00    +0.177 HD
ENDBRANCH   2  22
TORSDOF 2
ENDMDL
MODEL 2
REMARK VINA RESULT:      -9.8     11.336     14.357
REMARK  Name = 24798741
REMARK  2 active torsions:
REMARK  status: ('A' for Active; 'I' for Inactive)
REMARK    1  A    between atoms: C_1  and  N_7
REMARK    2  A    between atoms: C_2  and  C_22
REMARK                            x       y       z     vdW  Elec       q    Type
REMARK                         _______ _______ _______ _____ _____    ______ ____
ROOT
ATOM      1  C   UNL     1      32.519 -12.167 -22.650  0.00  0.00    +0.060 C 
ATOM      2  C   UNL     1      32.920 -10.895 -23.059  0.00  0.00    +0.089 C 
ATOM      3  C   UNL     1      31.563 -12.308 -21.643  0.00  0.00    +0.015 C 
ATOM      4  C   UNL     1      32.363  -9.763 -22.460  0.00  0.00    +0.012 C 
ATOM      5  C   UNL     1      31.009 -11.176 -21.046  0.00  0.00    +0.001 C 
ATOM      6  C   UNL     1      31.408  -9.904 -21.454  0.00  0.00    +0.001 C 
ENDROOT
BRANCH   1   7
ATOM      7  N   UNL     1      33.062 -13.329 -23.238  0.00  0.00    -0.300 N 
ATOM      8  N   UNL     1      35.197 -17.427 -23.886  0.00  0.00    -0.300 N 
ATOM      9  N   UNL     1      33.984 -14.503 -21.374  0.00  0.00    -0.233 NA
ATOM     10  N   UNL     1      35.116 -16.647 -21.606  0.00  0.00    -0.233 NA
ATOM     11  C   UNL     1      34.184 -15.469 -23.533  0.00  0.00    +0.131 C 
ATOM     12  C   UNL     1      33.747 -14.437 -22.704  0.00  0.00    +0.117 C 
ATOM     13  C   UNL     1      34.850 -16.523 -22.918  0.00  0.00    +0.117 C 
ATOM     14  C   UNL     1      34.135 -15.765 -24.920  0.00  0.00    +0.004 C 
ATOM     15  C   UNL     1      34.767 -16.975 -25.109  0.00  0.00    +0.059 C 
ATOM     16  C   UNL     1      34.644 -15.590 -20.914  0.00  0.00    +0.252 C 
ATOM     17  H   UNL     1      32.937 -13.374 -24.213  0.00  0.00    +0.153 HD
ATOM     18  H   UNL     1      35.679 -18.269 -23.730  0.00  0.00    +0.153 HD
ENDBRANCH   1   7
BRANCH   2  22
ATOM     19  N   UNL     1      33.834 -11.411 -25.270  0.00  0.00    -0.337 NA
ATOM     20  N   UNL     1      34.927  -9.872 -23.980  0.00  0.00    -0.113 NA
ATOM     21  N   UNL     1      35.540 -10.052 -25.159  0.00  0.00    -0.204 N 
ATOM     22  C   UNL     1      33.900 -10.716 -24.096  0.00  0.00    +0.105 C 
ATOM     23  C   UNL     1      34.884 -10.968 -25.919  0.00  0.00    +0.188 C 
ATOM     24  C   UNL     1      35.346 -11.353 -27.263  0.00  0.00    +0.086 C 
ATOM     25  H   UNL     1      36.359  -9.580 -25.437  0.00  0.00    +0.177 HD
ENDBRANCH   2  22
TORSDOF 2
ENDMDL
MODEL 3
REMARK VINA RESULT:      -9.8      1.326      2.323
REMARK  Name = 24798741
REMARK  2 active torsions:
REMARK  status: ('A' for Active; 'I' for Inactive)
REMARK    1  A    between atoms: C_1  and  N_7
REMARK    2  A    between atoms: C_2  and  C_22
REMARK                            x       y       z     vdW  Elec       q    Type
REMARK                         _______ _______ _______ _____ _____    ______ ____
ROOT
ATOM      1  C   UNL     1      33.710 -23.947 -14.996  0.00  0.00    +0.060 C 
ATOM      2  C   UNL     1      33.565 -23.263 -16.204  0.00  0.00    +0.089 C 
ATOM      3  C   UNL     1      32.588 -24.467 -14.350  0.00  0.00    +0.015 C 
ATOM      4  C   UNL     1      32.297 -23.102 -16.765  0.00  0.00    +0.012 C 
ATOM      5  C   UNL     1      31.322 -24.304 -14.911  0.00  0.00    +0.001 C 
ATOM      6  C   UNL     1      31.176 -23.622 -16.119  0.00  0.00    +0.001 C 
ENDROOT
BRANCH   1   7
ATOM      7  N   UNL     1      34.979 -24.127 -14.406  0.00  0.00    -0.300 N 
ATOM      8  N   UNL     1      39.175 -25.817 -13.263  0.00  0.00    -0.300 N 
ATOM      9  N   UNL     1      35.782 -26.127 -15.435  0.00  0.00    -0.233 NA
ATOM     10  N   UNL     1      37.956 -27.089 -14.909  0.00  0.00    -0.233 NA
ATOM     11  C   UNL     1      37.162 -25.041 -13.838  0.00  0.00    +0.131 C 
ATOM     12  C   UNL     1      35.975 -25.108 -14.566  0.00  0.00    +0.117 C 
ATOM     13  C   UNL     1      38.089 -26.053 -14.062  0.00  0.00    +0.117 C 
ATOM     14  C   UNL     1      37.726 -24.173 -12.868  0.00  0.00    +0.004 C 
ATOM     15  C   UNL     1      38.965 -24.675 -12.532  0.00  0.00    +0.059 C 
ATOM     16  C   UNL     1      36.771 -27.041 -15.552  0.00  0.00    +0.252 C 
ATOM     17  H   UNL     1      35.213 -23.429 -13.753  0.00  0.00    +0.153 HD
ATOM     18  H   UNL     1      39.982 -26.378 -13.221  0.00  0.00    +0.153 HD
ENDBRANCH   1   7
BRANCH   2  22
ATOM     19  N   UNL     1      34.665 -22.457 -18.236  0.00  0.00    -0.337 NA
ATOM     20  N   UNL     1      35.853 -22.439 -16.283  0.00  0.00    -0.113 NA
ATOM     21  N   UNL     1      36.582 -21.971 -17.308  0.00  0.00    -0.204 N 
ATOM     22  C   UNL     1      34.702 -22.718 -16.897  0.00  0.00    +0.105 C 
ATOM     23  C   UNL     1      35.868 -21.985 -18.465  0.00  0.00    +0.188 C 
ATOM     24  C   UNL     1      36.431 -21.524 -19.744  0.00  0.00    +0.086 C 
ATOM     25  H   UNL     1      37.513 -21.658 -17.231  0.00  0.00    +0.177 HD
ENDBRANCH   2  22
TORSDOF 2
ENDMDL
MODEL 4
REMARK VINA RESULT:      -9.6      2.134      5.914
REMARK  Name = 24798741
REMARK  2 active torsions:
REMARK  status: ('A' for Active; 'I' for Inactive)
REMARK    1  A    between atoms: C_1  and  N_7
REMARK    2  A    between atoms: C_2  and  C_22
REMARK                            x       y       z     vdW  Elec       q    Type
REMARK                         _______ _______ _______ _____ _____    ______ ____
ROOT
ATOM      1  C   UNL     1      34.075 -22.581 -17.674  0.00  0.00    +0.060 C 
ATOM      2  C   UNL     1      35.451 -22.364 -17.608  0.00  0.00    +0.089 C 
ATOM      3  C   UNL     1      33.356 -22.163 -18.794  0.00  0.00    +0.015 C 
ATOM      4  C   UNL     1      36.109 -21.731 -18.664  0.00  0.00    +0.012 C 
ATOM      5  C   UNL     1      34.013 -21.530 -19.849  0.00  0.00    +0.001 C 
ATOM      6  C   UNL     1      35.390 -21.314 -19.784  0.00  0.00    +0.001 C 
ENDROOT
BRANCH   1   7
ATOM      7  N   UNL     1      33.384 -23.219 -16.623  0.00  0.00    -0.300 N 
ATOM      8  N   UNL     1      30.033 -24.744 -13.757  0.00  0.00    -0.300 N 
ATOM      9  N   UNL     1      31.108 -22.614 -17.017  0.00  0.00    -0.233 NA
ATOM     10  N   UNL     1      29.286 -23.358 -15.583  0.00  0.00    -0.233 NA
ATOM     11  C   UNL     1      31.606 -23.994 -15.151  0.00  0.00    +0.131 C 
ATOM     12  C   UNL     1      32.023 -23.271 -16.268  0.00  0.00    +0.117 C 
ATOM     13  C   UNL     1      30.243 -23.989 -14.880  0.00  0.00    +0.117 C 
ATOM     14  C   UNL     1      32.224 -24.785 -14.149  0.00  0.00    +0.004 C 
ATOM     15  C   UNL     1      31.232 -25.234 -13.304  0.00  0.00    +0.059 C 
ATOM     16  C   UNL     1      29.814 -22.697 -16.634  0.00  0.00    +0.252 C 
ATOM     17  H   UNL     1      33.969 -23.729 -16.018  0.00  0.00    +0.153 HD
ATOM     18  H   UNL     1      29.157 -24.911 -13.340  0.00  0.00    +0.153 HD
ENDBRANCH   1   7
BRANCH   2  22
ATOM     19  N   UNL     1      36.065 -24.025 -15.918  0.00  0.00    -0.337 NA
ATOM     20  N   UNL     1      37.127 -22.000 -15.881  0.00  0.00    -0.113 NA
ATOM     21  N   UNL     1      37.564 -22.805 -14.900  0.00  0.00    -0.204 N 
ATOM     22  C   UNL     1      36.222 -22.785 -16.468  0.00  0.00    +0.105 C 
ATOM     23  C   UNL     1      36.928 -24.006 -14.930  0.00  0.00    +0.188 C 
ATOM     24  C   UNL     1      37.219 -25.076 -13.962  0.00  0.00    +0.086 C 
ATOM     25  H   UNL     1      38.256 -22.557 -14.244  0.00  0.00    +0.177 HD
ENDBRANCH   2  22
TORSDOF 2
ENDMDL
MODEL 5
REMARK VINA RESULT:      -9.6     12.760     16.197
REMARK  Name = 24798741
REMARK  2 active torsions:
REMARK  status: ('A' for Active; 'I' for Inactive)
REMARK    1  A    between atoms: C_1  and  N_7
REMARK    2  A    between atoms: C_2  and  C_22
REMARK                            x       y       z     vdW  Elec       q    Type
REMARK                         _______ _______ _______ _____ _____    ______ ____
ROOT
ATOM      1  C   UNL     1      34.015 -10.295 -23.879  0.00  0.00    +0.060 C 
ATOM      2  C   UNL     1      33.123  -9.562 -23.098  0.00  0.00    +0.089 C 
ATOM      3  C   UNL     1      34.894  -9.636 -24.740  0.00  0.00    +0.015 C 
ATOM      4  C   UNL     1      33.110  -8.169 -23.175  0.00  0.00    +0.012 C 
ATOM      5  C   UNL     1      34.880  -8.244 -24.817  0.00  0.00    +0.001 C 
ATOM      6  C   UNL     1      33.989  -7.510 -24.035  0.00  0.00    +0.001 C 
ENDROOT
BRANCH   1   7
ATOM      7  N   UNL     1      34.052 -11.704 -23.821  0.00  0.00    -0.300 N 
ATOM      8  N   UNL     1      33.835 -16.229 -24.939  0.00  0.00    -0.300 N 
ATOM      9  N   UNL     1      33.495 -12.359 -26.049  0.00  0.00    -0.233 NA
ATOM     10  N   UNL     1      33.357 -14.692 -26.734  0.00  0.00    -0.233 NA
ATOM     11  C   UNL     1      33.928 -14.054 -24.445  0.00  0.00    +0.131 C 
ATOM     12  C   UNL     1      33.822 -12.706 -24.783  0.00  0.00    +0.117 C 
ATOM     13  C   UNL     1      33.684 -14.972 -25.460  0.00  0.00    +0.117 C 
ATOM     14  C   UNL     1      34.235 -14.801 -23.279  0.00  0.00    +0.004 C 
ATOM     15  C   UNL     1      34.170 -16.137 -23.612  0.00  0.00    +0.059 C 
ATOM     16  C   UNL     1      33.286 -13.359 -26.934  0.00  0.00    +0.252 C 
ATOM     17  H   UNL     1      34.284 -12.057 -22.932  0.00  0.00    +0.153 HD
ATOM     18  H   UNL     1      33.720 -17.069 -25.439  0.00  0.00    +0.153 HD
ENDBRANCH   1   7
BRANCH   2  22
ATOM     19  N   UNL     1      32.102  -9.836 -20.890  0.00  0.00    -0.337 NA
ATOM     20  N   UNL     1      31.411 -11.213 -22.580  0.00  0.00    -0.113 NA
ATOM     21  N   UNL     1      30.767 -11.478 -21.433  0.00  0.00    -0.204 N 
ATOM     22  C   UNL     1      32.206 -10.212 -22.198  0.00  0.00    +0.105 C 
ATOM     23  C   UNL     1      31.184 -10.656 -20.434  0.00  0.00    +0.188 C 
ATOM     24  C   UNL     1      30.638 -10.734 -19.069  0.00  0.00    +0.086 C 
ATOM     25  H   UNL     1      30.081 -12.178 -21.330  0.00  0.00    +0.177 HD
ENDBRANCH   2  22
TORSDOF 2
ENDMDL
MODEL 6
REMARK VINA RESULT:      -9.4      1.711      4.325
REMARK  Name = 24798741
REMARK  2 active torsions:
REMARK  status: ('A' for Active; 'I' for Inactive)
REMARK    1  A    between atoms: C_1  and  N_7
REMARK    2  A    between atoms: C_2  and  C_22
REMARK                            x       y       z     vdW  Elec       q    Type
REMARK                         _______ _______ _______ _____ _____    ______ ____
ROOT
ATOM      1  C   UNL     1      35.659 -22.479 -16.673  0.00  0.00    +0.060 C 
ATOM      2  C   UNL     1      34.395 -22.727 -17.207  0.00  0.00    +0.089 C 
ATOM      3  C   UNL     1      36.664 -21.942 -17.479  0.00  0.00    +0.015 C 
ATOM      4  C   UNL     1      34.134 -22.437 -18.547  0.00  0.00    +0.012 C 
ATOM      5  C   UNL     1      36.402 -21.653 -18.818  0.00  0.00    +0.001 C 
ATOM      6  C   UNL     1      35.138 -21.900 -19.352  0.00  0.00    +0.001 C 
ENDROOT
BRANCH   1   7
ATOM      7  N   UNL     1      35.951 -22.761 -15.322  0.00  0.00    -0.300 N 
ATOM      8  N   UNL     1      37.976 -24.332 -11.423  0.00  0.00    -0.300 N 
ATOM      9  N   UNL     1      37.965 -24.038 -15.453  0.00  0.00    -0.233 NA
ATOM     10  N   UNL     1      39.099 -24.902 -13.479  0.00  0.00    -0.233 NA
ATOM     11  C   UNL     1      37.039 -23.599 -13.312  0.00  0.00    +0.131 C 
ATOM     12  C   UNL     1      36.994 -23.472 -14.700  0.00  0.00    +0.117 C 
ATOM     13  C   UNL     1      38.106 -24.317 -12.786  0.00  0.00    +0.117 C 
ATOM     14  C   UNL     1      36.248 -23.172 -12.214  0.00  0.00    +0.004 C 
ATOM     15  C   UNL     1      36.848 -23.638 -11.064  0.00  0.00    +0.059 C 
ATOM     16  C   UNL     1      38.944 -24.708 -14.805  0.00  0.00    +0.252 C 
ATOM     17  H   UNL     1      35.296 -22.386 -14.690  0.00  0.00    +0.153 HD
ATOM     18  H   UNL     1      38.595 -24.772 -10.798  0.00  0.00    +0.153 HD
ENDBRANCH   1   7
BRANCH   2  22
ATOM     19  N   UNL     1      32.024 -23.126 -16.745  0.00  0.00    -0.337 NA
ATOM     20  N   UNL     1      33.568 -23.960 -15.278  0.00  0.00    -0.113 NA
ATOM     21  N   UNL     1      32.316 -24.255 -14.897  0.00  0.00    -0.204 N 
ATOM     22  C   UNL     1      33.337 -23.277 -16.401  0.00  0.00    +0.105 C 
ATOM     23  C   UNL     1      31.405 -23.756 -15.774  0.00  0.00    +0.188 C 
ATOM     24  C   UNL     1      29.955 -23.937 -15.594  0.00  0.00    +0.086 C 
ATOM     25  H   UNL     1      32.087 -24.767 -14.087  0.00  0.00    +0.177 HD
ENDBRANCH   2  22
TORSDOF 2
ENDMDL
MODEL 7
REMARK VINA RESULT:      -9.2      2.381      5.472
REMARK  Name = 24798741
REMARK  2 active torsions:
REMARK  status: ('A' for Active; 'I' for Inactive)
REMARK    1  A    between atoms: C_1  and  N_7
REMARK    2  A    between atoms: C_2  and  C_22
REMARK                            x       y       z     vdW  Elec       q    Type
REMARK                         _______ _______ _______ _____ _____    ______ ____
ROOT
ATOM      1  C   UNL     1      34.998 -23.093 -15.366  0.00  0.00    +0.060 C 
ATOM      2  C   UNL     1      35.949 -22.759 -16.330  0.00  0.00    +0.089 C 
ATOM      3  C   UNL     1      35.404 -23.495 -14.093  0.00  0.00    +0.015 C 
ATOM      4  C   UNL     1      37.308 -22.825 -16.019  0.00  0.00    +0.012 C 
ATOM      5  C   UNL     1      36.763 -23.562 -13.784  0.00  0.00    +0.001 C 
ATOM      6  C   UNL     1      37.715 -23.227 -14.747  0.00  0.00    +0.001 C 
ENDROOT
BRANCH   1   7
ATOM      7  N   UNL     1      33.617 -23.035 -15.651  0.00  0.00    -0.300 N 
ATOM      8  N   UNL     1      29.008 -23.754 -15.584  0.00  0.00    -0.300 N 
ATOM      9  N   UNL     1      32.671 -24.573 -14.088  0.00  0.00    -0.233 NA
ATOM     10  N   UNL     1      30.280 -25.018 -13.972  0.00  0.00    -0.233 NA
ATOM     11  C   UNL     1      31.217 -23.438 -15.583  0.00  0.00    +0.131 C 
ATOM     12  C   UNL     1      32.500 -23.690 -15.099  0.00  0.00    +0.117 C 
ATOM     13  C   UNL     1      30.176 -24.131 -14.977  0.00  0.00    +0.117 C 
ATOM     14  C   UNL     1      30.640 -22.620 -16.587  0.00  0.00    +0.004 C 
ATOM     15  C   UNL     1      29.278 -22.835 -16.566  0.00  0.00    +0.059 C 
ATOM     16  C   UNL     1      31.565 -25.173 -13.594  0.00  0.00    +0.252 C 
ATOM     17  H   UNL     1      33.390 -22.412 -16.378  0.00  0.00    +0.153 HD
ATOM     18  H   UNL     1      28.113 -24.090 -15.352  0.00  0.00    +0.153 HD
ENDBRANCH   1   7
BRANCH   2  22
ATOM     19  N   UNL     1      36.219 -21.333 -18.300  0.00  0.00    -0.337 NA
ATOM     20  N   UNL     1      34.547 -22.894 -18.314  0.00  0.00    -0.113 NA
ATOM     21  N   UNL     1      34.573 -22.189 -19.456  0.00  0.00    -0.204 N 
ATOM     22  C   UNL     1      35.562 -22.338 -17.650  0.00  0.00    +0.105 C 
ATOM     23  C   UNL     1      35.570 -21.264 -19.439  0.00  0.00    +0.188 C 
ATOM     24  C   UNL     1      35.821 -20.354 -20.570  0.00  0.00    +0.086 C 
ATOM     25  H   UNL     1      33.952 -22.325 -20.208  0.00  0.00    +0.177 HD
ENDBRANCH   2  22
TORSDOF 2
ENDMDL
MODEL 8
REMARK VINA RESULT:      -9.1     13.777     16.964
REMARK  Name = 24798741
REMARK  2 active torsions:
REMARK  status: ('A' for Active; 'I' for Inactive)
REMARK    1  A    between atoms: C_1  and  N_7
REMARK    2  A    between atoms: C_2  and  C_22
REMARK                            x       y       z     vdW  Elec       q    Type
REMARK                         _______ _______ _______ _____ _____    ______ ____
ROOT
ATOM      1  C   UNL     1      32.186 -11.692 -22.234  0.00  0.00    +0.060 C 
ATOM      2  C   UNL     1      32.984 -12.565 -22.973  0.00  0.00    +0.089 C 
ATOM      3  C   UNL     1      31.644 -12.105 -21.016  0.00  0.00    +0.015 C 
ATOM      4  C   UNL     1      33.241 -13.851 -22.493  0.00  0.00    +0.012 C 
ATOM      5  C   UNL     1      31.900 -13.390 -20.538  0.00  0.00    +0.001 C 
ATOM      6  C   UNL     1      32.698 -14.263 -21.277  0.00  0.00    +0.001 C 
ENDROOT
BRANCH   1   7
ATOM      7  N   UNL     1      31.911 -10.387 -22.692  0.00  0.00    -0.300 N 
ATOM      8  N   UNL     1      31.350  -5.761 -22.930  0.00  0.00    -0.300 N 
ATOM      9  N   UNL     1      32.344  -9.031 -20.774  0.00  0.00    -0.233 NA
ATOM     10  N   UNL     1      32.082  -6.610 -20.795  0.00  0.00    -0.233 NA
ATOM     11  C   UNL     1      31.631  -7.970 -22.774  0.00  0.00    +0.131 C 
ATOM     12  C   UNL     1      31.964  -9.126 -22.069  0.00  0.00    +0.117 C 
ATOM     13  C   UNL     1      31.714  -6.770 -22.078  0.00  0.00    +0.117 C 
ATOM     14  C   UNL     1      31.202  -7.656 -24.090  0.00  0.00    +0.004 C 
ATOM     15  C   UNL     1      31.036  -6.289 -24.157  0.00  0.00    +0.059 C 
ATOM     16  C   UNL     1      32.379  -7.796 -20.225  0.00  0.00    +0.252 C 
ATOM     17  H   UNL     1      31.626 -10.351 -23.633  0.00  0.00    +0.153 HD
ATOM     18  H   UNL     1      31.319  -4.805 -22.698  0.00  0.00    +0.153 HD
ENDBRANCH   1   7
BRANCH   2  22
ATOM     19  N   UNL     1      34.438 -11.126 -24.317  0.00  0.00    -0.337 NA
ATOM     20  N   UNL     1      33.278 -12.786 -25.379  0.00  0.00    -0.113 NA
ATOM     21  N   UNL     1      34.029 -12.082 -26.239  0.00  0.00    -0.204 N 
ATOM     22  C   UNL     1      33.561 -12.169 -24.230  0.00  0.00    +0.105 C 
ATOM     23  C   UNL     1      34.715 -11.097 -25.600  0.00  0.00    +0.188 C 
ATOM     24  C   UNL     1      35.617 -10.175 -26.310  0.00  0.00    +0.086 C 
ATOM     25  H   UNL     1      34.077 -12.256 -27.207  0.00  0.00    +0.177 HD
ENDBRANCH   2  22
TORSDOF 2
ENDMDL
MODEL 9
REMARK VINA RESULT:      -8.9     12.125     15.193
REMARK  Name = 24798741
REMARK  2 active torsions:
REMARK  status: ('A' for Active; 'I' for Inactive)
REMARK    1  A    between atoms: C_1  and  N_7
REMARK    2  A    between atoms: C_2  and  C_22
REMARK                            x       y       z     vdW  Elec       q    Type
REMARK                         _______ _______ _______ _____ _____    ______ ____
ROOT
ATOM      1  C   UNL     1      32.064 -11.377 -22.063  0.00  0.00    +0.060 C 
ATOM      2  C   UNL     1      32.606 -10.092 -22.111  0.00  0.00    +0.089 C 
ATOM      3  C   UNL     1      31.228 -11.742 -21.007  0.00  0.00    +0.015 C 
ATOM      4  C   UNL     1      32.308  -9.172 -21.104  0.00  0.00    +0.012 C 
ATOM      5  C   UNL     1      30.932 -10.822 -20.002  0.00  0.00    +0.001 C 
ATOM      6  C   UNL     1      31.472  -9.537 -20.050  0.00  0.00    +0.001 C 
ENDROOT
BRANCH   1   7
ATOM      7  N   UNL     1      32.346 -12.327 -23.067  0.00  0.00    -0.300 N 
ATOM      8  N   UNL     1      33.934 -16.069 -25.357  0.00  0.00    -0.300 N 
ATOM      9  N   UNL     1      33.656 -13.962 -21.920  0.00  0.00    -0.233 NA
ATOM     10  N   UNL     1      34.530 -15.948 -23.024  0.00  0.00    -0.233 NA
ATOM     11  C   UNL     1      33.193 -14.293 -24.225  0.00  0.00    +0.131 C 
ATOM     12  C   UNL     1      33.071 -13.533 -23.063  0.00  0.00    +0.117 C 
ATOM     13  C   UNL     1      33.927 -15.470 -24.125  0.00  0.00    +0.117 C 
ATOM     14  C   UNL     1      32.749 -14.196 -25.568  0.00  0.00    +0.004 C 
ATOM     15  C   UNL     1      33.220 -15.302 -26.242  0.00  0.00    +0.059 C 
ATOM     16  C   UNL     1      34.339 -15.127 -21.971  0.00  0.00    +0.252 C 
ATOM     17  H   UNL     1      31.958 -12.102 -23.943  0.00  0.00    +0.153 HD
ATOM     18  H   UNL     1      34.381 -16.918 -25.572  0.00  0.00    +0.153 HD
ENDBRANCH   1   7
BRANCH   2  22
ATOM     19  N   UNL     1      34.115 -10.595 -23.972  0.00  0.00    -0.337 NA
ATOM     20  N   UNL     1      33.692  -8.401 -23.484  0.00  0.00    -0.113 NA
ATOM     21  N   UNL     1      34.533  -8.523 -24.522  0.00  0.00    -0.204 N 
ATOM     22  C   UNL     1      33.469  -9.683 -23.187  0.00  0.00    +0.105 C 
ATOM     23  C   UNL     1      34.778  -9.830 -24.805  0.00  0.00    +0.188 C 
ATOM     24  C   UNL     1      35.669 -10.246 -25.902  0.00  0.00    +0.086 C 
ATOM     25  H   UNL     1      34.921  -7.764 -25.015  0.00  0.00    +0.177 HD
ENDBRANCH   2  22
TORSDOF 2
ENDMDL
