MODEL 1
REMARK VINA RESULT:      -7.7      0.000      0.000
REMARK  Name = 2966
REMARK  0 active torsions:
REMARK  status: ('A' for Active; 'I' for Inactive)
REMARK                            x       y       z     vdW  Elec       q    Type
REMARK                         _______ _______ _______ _____ _____    ______ ____
ROOT
ATOM      1  N   UNL     1      35.052 -22.575 -17.407  0.00  0.00    -0.278 N 
ATOM      2  N   UNL     1      36.819 -22.978 -16.021  0.00  0.00    -0.331 N 
ATOM      3  N   UNL     1      34.653 -22.808 -15.120  0.00  0.00    -0.273 NA
ATOM      4  C   UNL     1      32.961 -22.007 -18.513  0.00  0.00    +0.048 C 
ATOM      5  C   UNL     1      33.799 -23.129 -17.910  0.00  0.00    +0.098 C 
ATOM      6  C   UNL     1      35.920 -21.929 -18.395  0.00  0.00    +0.120 C 
ATOM      7  C   UNL     1      33.748 -21.210 -19.519  0.00  0.00    -0.023 C 
ATOM      8  C   UNL     1      35.151 -21.158 -19.445  0.00  0.00    -0.006 C 
ATOM      9  C   UNL     1      33.077 -20.471 -20.504  0.00  0.00    -0.004 C 
ATOM     10  C   UNL     1      35.860 -20.391 -20.380  0.00  0.00    -0.003 C 
ATOM     11  C   UNL     1      35.468 -22.788 -16.137  0.00  0.00    +0.174 C 
ATOM     12  C   UNL     1      33.794 -19.709 -21.425  0.00  0.00    -0.000 C 
ATOM     13  C   UNL     1      35.185 -19.670 -21.365  0.00  0.00    -0.000 C 
ATOM     14  H   UNL     1      37.391 -22.953 -16.822  0.00  0.00    +0.145 HD
ATOM     15  H   UNL     1      37.219 -23.141 -15.136  0.00  0.00    +0.145 HD
ATOM     16  H   UNL     1      33.688 -22.665 -15.259  0.00  0.00    +0.189 HD
ENDROOT
TORSDOF 0
ENDMDL
MODEL 2
REMARK VINA RESULT:      -7.6      3.885      5.847
REMARK  Name = 2966
REMARK  0 active torsions:
REMARK  status: ('A' for Active; 'I' for Inactive)
REMARK                            x       y       z     vdW  Elec       q    Type
REMARK                         _______ _______ _______ _____ _____    ______ ____
ROOT
ATOM      1  N   UNL     1      34.357 -17.527 -21.319  0.00  0.00    -0.278 N 
ATOM      2  N   UNL     1      32.732 -15.925 -21.372  0.00  0.00    -0.331 N 
ATOM      3  N   UNL     1      34.965 -15.300 -20.979  0.00  0.00    -0.273 NA
ATOM      4  C   UNL     1      36.325 -18.928 -21.036  0.00  0.00    +0.048 C 
ATOM      5  C   UNL     1      35.574 -17.992 -21.976  0.00  0.00    +0.098 C 
ATOM      6  C   UNL     1      33.387 -18.558 -20.940  0.00  0.00    +0.120 C 
ATOM      7  C   UNL     1      35.430 -20.021 -20.514  0.00  0.00    -0.023 C 
ATOM      8  C   UNL     1      34.038 -19.832 -20.450  0.00  0.00    -0.006 C 
ATOM      9  C   UNL     1      35.991 -21.216 -20.039  0.00  0.00    -0.004 C 
ATOM     10  C   UNL     1      33.228 -20.857 -19.940  0.00  0.00    -0.003 C 
ATOM     11  C   UNL     1      34.062 -16.210 -21.213  0.00  0.00    +0.174 C 
ATOM     12  C   UNL     1      35.174 -22.225 -19.530  0.00  0.00    -0.000 C 
ATOM     13  C   UNL     1      33.794 -22.047 -19.483  0.00  0.00    -0.000 C 
ATOM     14  H   UNL     1      32.090 -16.651 -21.548  0.00  0.00    +0.145 HD
ATOM     15  H   UNL     1      32.417 -14.995 -21.314  0.00  0.00    +0.145 HD
ATOM     16  H   UNL     1      35.909 -15.559 -20.871  0.00  0.00    +0.189 HD
ENDROOT
TORSDOF 0
ENDMDL
MODEL 3
REMARK VINA RESULT:      -7.6      7.740      9.804
REMARK  Name = 2966
REMARK  0 active torsions:
REMARK  status: ('A' for Active; 'I' for Inactive)
REMARK                            x       y       z     vdW  Elec       q    Type
REMARK                         _______ _______ _______ _____ _____    ______ ____
ROOT
ATOM      1  N   UNL     1      33.651 -13.555 -24.581  0.00  0.00    -0.278 N 
ATOM      2  N   UNL     1      33.973 -11.510 -23.620  0.00  0.00    -0.331 N 
ATOM      3  N   UNL     1      33.957 -11.700 -25.964  0.00  0.00    -0.273 NA
ATOM      4  C   UNL     1      33.498 -15.548 -25.967  0.00  0.00    +0.048 C 
ATOM      5  C   UNL     1      32.756 -14.327 -25.437  0.00  0.00    +0.098 C 
ATOM      6  C   UNL     1      34.168 -14.241 -23.394  0.00  0.00    +0.120 C 
ATOM      7  C   UNL     1      34.138 -16.332 -24.851  0.00  0.00    -0.023 C 
ATOM      8  C   UNL     1      34.474 -15.701 -23.640  0.00  0.00    -0.006 C 
ATOM      9  C   UNL     1      34.450 -17.686 -25.038  0.00  0.00    -0.004 C 
ATOM     10  C   UNL     1      35.089 -16.448 -22.624  0.00  0.00    -0.003 C 
ATOM     11  C   UNL     1      33.864 -12.233 -24.778  0.00  0.00    +0.174 C 
ATOM     12  C   UNL     1      35.065 -18.416 -24.021  0.00  0.00    -0.000 C 
ATOM     13  C   UNL     1      35.382 -17.798 -22.815  0.00  0.00    -0.000 C 
ATOM     14  H   UNL     1      33.894 -11.962 -22.748  0.00  0.00    +0.145 HD
ATOM     15  H   UNL     1      34.127 -10.539 -23.658  0.00  0.00    +0.145 HD
ATOM     16  H   UNL     1      33.872 -12.267 -26.766  0.00  0.00    +0.189 HD
ENDROOT
TORSDOF 0
ENDMDL
MODEL 4
REMARK VINA RESULT:      -7.6      6.326      8.214
REMARK  Name = 2966
REMARK  0 active torsions:
REMARK  status: ('A' for Active; 'I' for Inactive)
REMARK                            x       y       z     vdW  Elec       q    Type
REMARK                         _______ _______ _______ _____ _____    ______ ____
ROOT
ATOM      1  N   UNL     1      34.051 -14.409 -22.784  0.00  0.00    -0.278 N 
ATOM      2  N   UNL     1      33.713 -12.838 -24.405  0.00  0.00    -0.331 N 
ATOM      3  N   UNL     1      32.451 -12.749 -22.422  0.00  0.00    -0.273 NA
ATOM      4  C   UNL     1      34.004 -15.963 -20.914  0.00  0.00    +0.048 C 
ATOM      5  C   UNL     1      34.487 -14.603 -21.405  0.00  0.00    +0.098 C 
ATOM      6  C   UNL     1      34.549 -15.376 -23.766  0.00  0.00    +0.120 C 
ATOM      7  C   UNL     1      34.398 -17.065 -21.863  0.00  0.00    -0.023 C 
ATOM      8  C   UNL     1      34.634 -16.784 -23.221  0.00  0.00    -0.006 C 
ATOM      9  C   UNL     1      34.479 -18.387 -21.403  0.00  0.00    -0.004 C 
ATOM     10  C   UNL     1      34.978 -17.830 -24.088  0.00  0.00    -0.003 C 
ATOM     11  C   UNL     1      33.363 -13.308 -23.167  0.00  0.00    +0.174 C 
ATOM     12  C   UNL     1      34.818 -19.418 -22.278  0.00  0.00    -0.000 C 
ATOM     13  C   UNL     1      35.070 -19.140 -23.619  0.00  0.00    -0.000 C 
ATOM     14  H   UNL     1      34.410 -13.298 -24.928  0.00  0.00    +0.145 HD
ATOM     15  H   UNL     1      33.269 -12.040 -24.772  0.00  0.00    +0.145 HD
ATOM     16  H   UNL     1      32.237 -13.129 -21.539  0.00  0.00    +0.189 HD
ENDROOT
TORSDOF 0
ENDMDL
MODEL 5
REMARK VINA RESULT:      -7.5      5.501      7.458
REMARK  Name = 2966
REMARK  0 active torsions:
REMARK  status: ('A' for Active; 'I' for Inactive)
REMARK                            x       y       z     vdW  Elec       q    Type
REMARK                         _______ _______ _______ _____ _____    ______ ____
ROOT
ATOM      1  N   UNL     1      34.993 -17.590 -22.845  0.00  0.00    -0.278 N 
ATOM      2  N   UNL     1      35.525 -17.987 -20.661  0.00  0.00    -0.331 N 
ATOM      3  N   UNL     1      34.471 -19.669 -21.923  0.00  0.00    -0.273 NA
ATOM      4  C   UNL     1      34.137 -17.505 -25.120  0.00  0.00    +0.048 C 
ATOM      5  C   UNL     1      35.255 -18.014 -24.216  0.00  0.00    +0.098 C 
ATOM      6  C   UNL     1      34.932 -16.145 -22.611  0.00  0.00    +0.120 C 
ATOM      7  C   UNL     1      33.917 -16.025 -24.946  0.00  0.00    -0.023 C 
ATOM      8  C   UNL     1      34.276 -15.389 -23.744  0.00  0.00    -0.006 C 
ATOM      9  C   UNL     1      33.303 -15.286 -25.967  0.00  0.00    -0.004 C 
ATOM     10  C   UNL     1      34.040 -14.014 -23.599  0.00  0.00    -0.003 C 
ATOM     11  C   UNL     1      34.972 -18.471 -21.817  0.00  0.00    +0.174 C 
ATOM     12  C   UNL     1      33.071 -13.920 -25.807  0.00  0.00    -0.000 C 
ATOM     13  C   UNL     1      33.442 -13.284 -24.625  0.00  0.00    -0.000 C 
ATOM     14  H   UNL     1      35.891 -17.073 -20.635  0.00  0.00    +0.145 HD
ATOM     15  H   UNL     1      35.558 -18.554 -19.857  0.00  0.00    +0.145 HD
ATOM     16  H   UNL     1      34.084 -19.967 -22.779  0.00  0.00    +0.189 HD
ENDROOT
TORSDOF 0
ENDMDL
MODEL 6
REMARK VINA RESULT:      -7.5      3.710      5.363
REMARK  Name = 2966
REMARK  0 active torsions:
REMARK  status: ('A' for Active; 'I' for Inactive)
REMARK                            x       y       z     vdW  Elec       q    Type
REMARK                         _______ _______ _______ _____ _____    ______ ____
ROOT
ATOM      1  N   UNL     1      34.999 -24.269 -14.820  0.00  0.00    -0.278 N 
ATOM      2  N   UNL     1      36.178 -25.436 -13.252  0.00  0.00    -0.331 N 
ATOM      3  N   UNL     1      36.732 -25.664 -15.527  0.00  0.00    -0.273 NA
ATOM      4  C   UNL     1      33.900 -23.332 -16.777  0.00  0.00    +0.048 C 
ATOM      5  C   UNL     1      35.106 -23.241 -15.850  0.00  0.00    +0.098 C 
ATOM      6  C   UNL     1      33.828 -24.192 -13.943  0.00  0.00    +0.120 C 
ATOM      7  C   UNL     1      32.607 -23.321 -16.004  0.00  0.00    -0.023 C 
ATOM      8  C   UNL     1      32.575 -23.751 -14.665  0.00  0.00    -0.006 C 
ATOM      9  C   UNL     1      31.419 -22.930 -16.636  0.00  0.00    -0.004 C 
ATOM     10  C   UNL     1      31.355 -23.752 -13.974  0.00  0.00    -0.003 C 
ATOM     11  C   UNL     1      36.003 -25.145 -14.579  0.00  0.00    +0.174 C 
ATOM     12  C   UNL     1      30.212 -22.940 -15.938  0.00  0.00    -0.000 C 
ATOM     13  C   UNL     1      30.180 -23.348 -14.607  0.00  0.00    -0.000 C 
ATOM     14  H   UNL     1      35.600 -25.016 -12.575  0.00  0.00    +0.145 HD
ATOM     15  H   UNL     1      36.884 -26.063 -12.975  0.00  0.00    +0.145 HD
ATOM     16  H   UNL     1      36.562 -25.421 -16.467  0.00  0.00    +0.189 HD
ENDROOT
TORSDOF 0
ENDMDL
MODEL 7
REMARK VINA RESULT:      -7.5     12.308     13.598
REMARK  Name = 2966
REMARK  0 active torsions:
REMARK  status: ('A' for Active; 'I' for Inactive)
REMARK                            x       y       z     vdW  Elec       q    Type
REMARK                         _______ _______ _______ _____ _____    ______ ____
ROOT
ATOM      1  N   UNL     1      32.837  -8.366 -21.686  0.00  0.00    -0.278 N 
ATOM      2  N   UNL     1      31.542  -8.905 -19.885  0.00  0.00    -0.331 N 
ATOM      3  N   UNL     1      33.286  -7.346 -19.635  0.00  0.00    -0.273 NA
ATOM      4  C   UNL     1      34.513  -7.653 -23.298  0.00  0.00    +0.048 C 
ATOM      5  C   UNL     1      33.229  -7.273 -22.569  0.00  0.00    +0.098 C 
ATOM      6  C   UNL     1      32.552  -9.651 -22.328  0.00  0.00    +0.120 C 
ATOM      7  C   UNL     1      34.389  -8.996 -23.970  0.00  0.00    -0.023 C 
ATOM      8  C   UNL     1      33.472  -9.949 -23.491  0.00  0.00    -0.006 C 
ATOM      9  C   UNL     1      35.228  -9.319 -25.045  0.00  0.00    -0.004 C 
ATOM     10  C   UNL     1      33.391 -11.200 -24.120  0.00  0.00    -0.003 C 
ATOM     11  C   UNL     1      32.589  -8.166 -20.370  0.00  0.00    +0.174 C 
ATOM     12  C   UNL     1      35.140 -10.568 -25.659  0.00  0.00    -0.000 C 
ATOM     13  C   UNL     1      34.221 -11.507 -25.198  0.00  0.00    -0.000 C 
ATOM     14  H   UNL     1      31.047  -9.511 -20.484  0.00  0.00    +0.145 HD
ATOM     15  H   UNL     1      31.283  -8.829 -18.939  0.00  0.00    +0.145 HD
ATOM     16  H   UNL     1      34.030  -6.839 -20.035  0.00  0.00    +0.189 HD
ENDROOT
TORSDOF 0
ENDMDL
MODEL 8
REMARK VINA RESULT:      -7.4      5.453      7.379
REMARK  Name = 2966
REMARK  0 active torsions:
REMARK  status: ('A' for Active; 'I' for Inactive)
REMARK                            x       y       z     vdW  Elec       q    Type
REMARK                         _______ _______ _______ _____ _____    ______ ____
ROOT
ATOM      1  N   UNL     1      34.829 -17.143 -22.189  0.00  0.00    -0.278 N 
ATOM      2  N   UNL     1      35.413 -18.855 -20.799  0.00  0.00    -0.331 N 
ATOM      3  N   UNL     1      34.849 -19.318 -23.035  0.00  0.00    -0.273 NA
ATOM      4  C   UNL     1      34.014 -15.638 -23.918  0.00  0.00    +0.048 C 
ATOM      5  C   UNL     1      35.211 -16.428 -23.403  0.00  0.00    +0.098 C 
ATOM      6  C   UNL     1      34.392 -16.318 -21.060  0.00  0.00    +0.120 C 
ATOM      7  C   UNL     1      33.416 -14.775 -22.838  0.00  0.00    -0.023 C 
ATOM      8  C   UNL     1      33.579 -15.115 -21.484  0.00  0.00    -0.006 C 
ATOM      9  C   UNL     1      32.646 -13.656 -23.185  0.00  0.00    -0.004 C 
ATOM     10  C   UNL     1      32.994 -14.308 -20.498  0.00  0.00    -0.003 C 
ATOM     11  C   UNL     1      35.022 -18.476 -22.055  0.00  0.00    +0.174 C 
ATOM     12  C   UNL     1      32.066 -12.864 -22.195  0.00  0.00    -0.000 C 
ATOM     13  C   UNL     1      32.242 -13.188 -20.852  0.00  0.00    -0.000 C 
ATOM     14  H   UNL     1      35.530 -18.178 -20.093  0.00  0.00    +0.145 HD
ATOM     15  H   UNL     1      35.580 -19.805 -20.601  0.00  0.00    +0.145 HD
ATOM     16  H   UNL     1      34.565 -18.991 -23.920  0.00  0.00    +0.189 HD
ENDROOT
TORSDOF 0
ENDMDL
MODEL 9
REMARK VINA RESULT:      -7.3      2.477      4.995
REMARK  Name = 2966
REMARK  0 active torsions:
REMARK  status: ('A' for Active; 'I' for Inactive)
REMARK                            x       y       z     vdW  Elec       q    Type
REMARK                         _______ _______ _______ _____ _____    ______ ____
ROOT
ATOM      1  N   UNL     1      35.211 -20.634 -20.205  0.00  0.00    -0.278 N 
ATOM      2  N   UNL     1      34.070 -19.473 -21.804  0.00  0.00    -0.331 N 
ATOM      3  N   UNL     1      36.016 -18.544 -20.862  0.00  0.00    -0.273 NA
ATOM      4  C   UNL     1      36.601 -21.473 -18.393  0.00  0.00    +0.048 C 
ATOM      5  C   UNL     1      36.485 -21.277 -19.900  0.00  0.00    +0.098 C 
ATOM      6  C   UNL     1      34.004 -21.365 -19.814  0.00  0.00    +0.120 C 
ATOM      7  C   UNL     1      35.390 -22.171 -17.832  0.00  0.00    -0.023 C 
ATOM      8  C   UNL     1      34.154 -22.098 -18.500  0.00  0.00    -0.006 C 
ATOM      9  C   UNL     1      35.481 -22.854 -16.611  0.00  0.00    -0.004 C 
ATOM     10  C   UNL     1      33.036 -22.739 -17.946  0.00  0.00    -0.003 C 
ATOM     11  C   UNL     1      35.141 -19.507 -20.951  0.00  0.00    +0.174 C 
ATOM     12  C   UNL     1      34.360 -23.483 -16.070  0.00  0.00    -0.000 C 
ATOM     13  C   UNL     1      33.139 -23.428 -16.738  0.00  0.00    -0.000 C 
ATOM     14  H   UNL     1      33.438 -20.228 -21.832  0.00  0.00    +0.145 HD
ATOM     15  H   UNL     1      33.932 -18.694 -22.390  0.00  0.00    +0.145 HD
ATOM     16  H   UNL     1      36.768 -18.620 -20.231  0.00  0.00    +0.189 HD
ENDROOT
TORSDOF 0
ENDMDL
