MODEL 1
REMARK VINA RESULT:     -10.0      0.000      0.000
REMARK  Name = 4369485
REMARK  5 active torsions:
REMARK  status: ('A' for Active; 'I' for Inactive)
REMARK    1  A    between atoms: N_4  and  C_29
REMARK    2  A    between atoms: C_8  and  C_15
REMARK    3  A    between atoms: C_11  and  O_27
REMARK    4  A    between atoms: C_20  and  C_23
REMARK    5  A    between atoms: C_29  and  C_32
REMARK                            x       y       z     vdW  Elec       q    Type
REMARK                         _______ _______ _______ _____ _____    ______ ____
ROOT
ATOM      1  O   UNL     1      31.098 -22.159 -17.753  0.00  0.00    -0.275 OA
ATOM      2  O   UNL     1      35.614 -23.053 -17.394  0.00  0.00    -0.275 OA
ATOM      3  N   UNL     1      33.141 -24.604 -14.852  0.00  0.00    +0.394 N 
ATOM      4  N   UNL     1      33.378 -22.644 -17.920  0.00  0.00    -0.226 N 
ATOM      5  C   UNL     1      31.952 -23.811 -15.223  0.00  0.00    -0.046 C 
ATOM      6  C   UNL     1      32.458 -22.484 -15.783  0.00  0.00    +0.065 C 
ATOM      7  C   UNL     1      33.983 -22.546 -15.660  0.00  0.00    +0.069 C 
ATOM      8  C   UNL     1      34.234 -23.639 -14.614  0.00  0.00    -0.025 C 
ATOM      9  C   UNL     1      31.152 -23.678 -13.933  0.00  0.00    +0.007 C 
ATOM     10  C   UNL     1      32.797 -25.404 -13.659  0.00  0.00    -0.047 C 
ATOM     11  C   UNL     1      31.370 -25.027 -13.277  0.00  0.00    +0.088 C 
ATOM     12  C   UNL     1      32.196 -22.384 -17.263  0.00  0.00    +0.230 C 
ATOM     13  C   UNL     1      34.458 -22.804 -17.078  0.00  0.00    +0.230 C 
ATOM     14  H   UNL     1      33.442 -25.258 -15.575  0.00  0.00    -0.079 HD
ENDROOT
BRANCH   8  15
ATOM     15  C   UNL     1      35.635 -24.212 -14.620  0.00  0.00    -0.041 C 
ATOM     16  C   UNL     1      35.854 -25.518 -15.060  0.00  0.00    -0.006 C 
ATOM     17  C   UNL     1      36.710 -23.435 -14.188  0.00  0.00    -0.006 C 
ATOM     18  C   UNL     1      37.145 -26.046 -15.066  0.00  0.00    +0.002 C 
ATOM     19  C   UNL     1      38.002 -23.962 -14.194  0.00  0.00    +0.002 C 
ATOM     20  C   UNL     1      38.219 -25.267 -14.634  0.00  0.00    +0.031 C 
BRANCH  20  23
ATOM     21  N   UNL     1      40.160 -26.292 -13.471  0.00  0.00    -0.343 N 
ATOM     22  N   UNL     1      40.251 -25.870 -15.767  0.00  0.00    -0.285 NA
ATOM     23  C   UNL     1      39.566 -25.819 -14.639  0.00  0.00    +0.117 C 
ATOM     24  H   UNL     1      41.072 -26.661 -13.497  0.00  0.00    +0.144 HD
ATOM     25  H   UNL     1      39.666 -26.259 -12.619  0.00  0.00    +0.144 HD
ATOM     26  H   UNL     1      41.162 -26.243 -15.773  0.00  0.00    +0.188 HD
ENDBRANCH  20  23
ENDBRANCH   8  15
BRANCH  11  27
ATOM     27  O   UNL     1      30.470 -25.988 -13.818  0.00  0.00    -0.387 OA
ATOM     28  H   UNL     1      29.817 -26.235 -13.146  0.00  0.00    +0.210 HD
ENDBRANCH  11  27
BRANCH   4  29
ATOM     29  C   UNL     1      33.464 -22.726 -19.365  0.00  0.00    +0.127 C 
BRANCH  29  32
ATOM     30  O   UNL     1      36.467 -19.194 -21.065  0.00  0.00    -0.435 OA
ATOM     31  O   UNL     1      34.629 -17.731 -21.605  0.00  0.00    -0.435 OA
ATOM     32  C   UNL     1      33.741 -21.376 -19.968  0.00  0.00    +0.001 C 
ATOM     33  C   UNL     1      35.057 -20.992 -20.207  0.00  0.00    +0.038 C 
ATOM     34  C   UNL     1      32.667 -20.532 -20.277  0.00  0.00    +0.001 C 
ATOM     35  C   UNL     1      35.260 -19.745 -20.761  0.00  0.00    +0.176 C 
ATOM     36  C   UNL     1      32.901 -19.274 -20.838  0.00  0.00    +0.040 C 
ATOM     37  C   UNL     1      34.212 -18.909 -21.069  0.00  0.00    +0.176 C 
ATOM     38  C   UNL     1      36.059 -17.918 -21.600  0.00  0.00    +0.429 C 
ENDBRANCH  29  32
ENDBRANCH   4  29
TORSDOF 5
ENDMDL
MODEL 2
REMARK VINA RESULT:      -9.6      2.720      7.230
REMARK  Name = 4369485
REMARK  5 active torsions:
REMARK  status: ('A' for Active; 'I' for Inactive)
REMARK    1  A    between atoms: N_4  and  C_29
REMARK    2  A    between atoms: C_8  and  C_15
REMARK    3  A    between atoms: C_11  and  O_27
REMARK    4  A    between atoms: C_20  and  C_23
REMARK    5  A    between atoms: C_29  and  C_32
REMARK                            x       y       z     vdW  Elec       q    Type
REMARK                         _______ _______ _______ _____ _____    ______ ____
ROOT
ATOM      1  O   UNL     1      33.042 -24.754 -13.001  0.00  0.00    -0.275 OA
ATOM      2  O   UNL     1      35.447 -22.763 -16.402  0.00  0.00    -0.275 OA
ATOM      3  N   UNL     1      31.579 -22.656 -16.468  0.00  0.00    +0.394 N 
ATOM      4  N   UNL     1      34.471 -23.630 -14.468  0.00  0.00    -0.226 N 
ATOM      5  C   UNL     1      31.335 -23.628 -15.383  0.00  0.00    -0.046 C 
ATOM      6  C   UNL     1      32.531 -24.574 -15.355  0.00  0.00    +0.065 C 
ATOM      7  C   UNL     1      33.433 -24.125 -16.508  0.00  0.00    +0.069 C 
ATOM      8  C   UNL     1      32.506 -23.307 -17.416  0.00  0.00    -0.025 C 
ATOM      9  C   UNL     1      30.017 -24.300 -15.747  0.00  0.00    +0.007 C 
ATOM     10  C   UNL     1      30.274 -22.312 -17.069  0.00  0.00    -0.047 C 
ATOM     11  C   UNL     1      29.226 -23.155 -16.350  0.00  0.00    +0.088 C 
ATOM     12  C   UNL     1      33.361 -24.365 -14.115  0.00  0.00    +0.230 C 
ATOM     13  C   UNL     1      34.573 -23.394 -15.823  0.00  0.00    +0.230 C 
ATOM     14  H   UNL     1      32.003 -21.783 -16.153  0.00  0.00    -0.079 HD
ENDROOT
BRANCH   8  15
ATOM     15  C   UNL     1      33.217 -22.386 -18.383  0.00  0.00    -0.041 C 
ATOM     16  C   UNL     1      34.573 -22.573 -18.658  0.00  0.00    -0.006 C 
ATOM     17  C   UNL     1      32.520 -21.349 -19.004  0.00  0.00    -0.006 C 
ATOM     18  C   UNL     1      35.229 -21.725 -19.550  0.00  0.00    +0.002 C 
ATOM     19  C   UNL     1      33.175 -20.501 -19.897  0.00  0.00    +0.002 C 
ATOM     20  C   UNL     1      34.529 -20.689 -20.170  0.00  0.00    +0.031 C 
BRANCH  20  23
ATOM     21  N   UNL     1      34.682 -19.523 -22.358  0.00  0.00    -0.343 N 
ATOM     22  N   UNL     1      36.363 -19.252 -20.758  0.00  0.00    -0.285 NA
ATOM     23  C   UNL     1      35.213 -19.803 -21.100  0.00  0.00    +0.117 C 
ATOM     24  H   UNL     1      35.162 -18.921 -22.971  0.00  0.00    +0.144 HD
ATOM     25  H   UNL     1      33.827 -19.927 -22.633  0.00  0.00    +0.144 HD
ATOM     26  H   UNL     1      36.828 -18.653 -21.385  0.00  0.00    +0.188 HD
ENDBRANCH  20  23
ENDBRANCH   8  15
BRANCH  11  27
ATOM     27  O   UNL     1      28.625 -22.377 -15.320  0.00  0.00    -0.387 OA
ATOM     28  H   UNL     1      29.181 -22.408 -14.526  0.00  0.00    +0.210 HD
ENDBRANCH  11  27
BRANCH   4  29
ATOM     29  C   UNL     1      35.439 -23.164 -13.495  0.00  0.00    +0.127 C 
BRANCH  29  32
ATOM     30  O   UNL     1      39.813 -24.683 -15.210  0.00  0.00    -0.435 OA
ATOM     31  O   UNL     1      40.009 -26.394 -13.523  0.00  0.00    -0.435 OA
ATOM     32  C   UNL     1      36.654 -24.050 -13.473  0.00  0.00    +0.001 C 
ATOM     33  C   UNL     1      37.649 -23.868 -14.428  0.00  0.00    +0.038 C 
ATOM     34  C   UNL     1      36.759 -25.041 -12.490  0.00  0.00    +0.001 C 
ATOM     35  C   UNL     1      38.744 -24.705 -14.367  0.00  0.00    +0.176 C 
ATOM     36  C   UNL     1      37.879 -25.876 -12.450  0.00  0.00    +0.040 C 
ATOM     37  C   UNL     1      38.856 -25.681 -13.405  0.00  0.00    +0.176 C 
ATOM     38  C   UNL     1      40.611 -25.756 -14.668  0.00  0.00    +0.429 C 
ENDBRANCH  29  32
ENDBRANCH   4  29
TORSDOF 5
ENDMDL
MODEL 3
REMARK VINA RESULT:      -8.8      3.004      6.277
REMARK  Name = 4369485
REMARK  5 active torsions:
REMARK  status: ('A' for Active; 'I' for Inactive)
REMARK    1  A    between atoms: N_4  and  C_29
REMARK    2  A    between atoms: C_8  and  C_15
REMARK    3  A    between atoms: C_11  and  O_27
REMARK    4  A    between atoms: C_20  and  C_23
REMARK    5  A    between atoms: C_29  and  C_32
REMARK                            x       y       z     vdW  Elec       q    Type
REMARK                         _______ _______ _______ _____ _____    ______ ____
ROOT
ATOM      1  O   UNL     1      31.458 -25.441 -12.927  0.00  0.00    -0.275 OA
ATOM      2  O   UNL     1      32.438 -22.971 -16.703  0.00  0.00    -0.275 OA
ATOM      3  N   UNL     1      35.312 -24.502 -14.611  0.00  0.00    +0.394 N 
ATOM      4  N   UNL     1      31.685 -24.360 -14.986  0.00  0.00    -0.226 N 
ATOM      5  C   UNL     1      34.510 -24.907 -13.439  0.00  0.00    -0.046 C 
ATOM      6  C   UNL     1      33.316 -23.960 -13.367  0.00  0.00    +0.065 C 
ATOM      7  C   UNL     1      33.511 -22.970 -14.518  0.00  0.00    +0.069 C 
ATOM      8  C   UNL     1      35.001 -23.079 -14.862  0.00  0.00    -0.025 C 
ATOM      9  C   UNL     1      35.463 -24.799 -12.255  0.00  0.00    +0.007 C 
ATOM     10  C   UNL     1      36.734 -24.743 -14.292  0.00  0.00    -0.047 C 
ATOM     11  C   UNL     1      36.778 -25.257 -12.856  0.00  0.00    +0.088 C 
ATOM     12  C   UNL     1      32.031 -24.678 -13.692  0.00  0.00    +0.230 C 
ATOM     13  C   UNL     1      32.510 -23.421 -15.567  0.00  0.00    +0.230 C 
ATOM     14  H   UNL     1      35.101 -25.030 -15.458  0.00  0.00    -0.079 HD
ENDROOT
BRANCH   8  15
ATOM     15  C   UNL     1      35.377 -22.552 -16.230  0.00  0.00    -0.041 C 
ATOM     16  C   UNL     1      36.534 -21.788 -16.392  0.00  0.00    -0.006 C 
ATOM     17  C   UNL     1      34.569 -22.831 -17.333  0.00  0.00    -0.006 C 
ATOM     18  C   UNL     1      36.881 -21.303 -17.652  0.00  0.00    +0.002 C 
ATOM     19  C   UNL     1      34.916 -22.346 -18.595  0.00  0.00    +0.002 C 
ATOM     20  C   UNL     1      36.072 -21.583 -18.754  0.00  0.00    +0.031 C 
BRANCH  20  23
ATOM     21  N   UNL     1      36.838 -19.755 -20.251  0.00  0.00    -0.343 N 
ATOM     22  N   UNL     1      36.375 -21.874 -21.120  0.00  0.00    -0.285 NA
ATOM     23  C   UNL     1      36.433 -21.076 -20.070  0.00  0.00    +0.117 C 
ATOM     24  H   UNL     1      37.078 -19.433 -21.150  0.00  0.00    +0.144 HD
ATOM     25  H   UNL     1      36.885 -19.144 -19.480  0.00  0.00    +0.144 HD
ATOM     26  H   UNL     1      36.619 -21.533 -22.011  0.00  0.00    +0.188 HD
ENDBRANCH  20  23
ENDBRANCH   8  15
BRANCH  11  27
ATOM     27  O   UNL     1      36.844 -26.678 -12.870  0.00  0.00    -0.387 OA
ATOM     28  H   UNL     1      37.452 -26.967 -13.567  0.00  0.00    +0.210 HD
ENDBRANCH  11  27
BRANCH   4  29
ATOM     29  C   UNL     1      30.548 -24.957 -15.657  0.00  0.00    +0.127 C 
BRANCH  29  32
ATOM     30  O   UNL     1      27.097 -22.774 -18.433  0.00  0.00    -0.435 OA
ATOM     31  O   UNL     1      26.507 -21.223 -16.683  0.00  0.00    -0.435 OA
ATOM     32  C   UNL     1      29.466 -23.940 -15.899  0.00  0.00    +0.001 C 
ATOM     33  C   UNL     1      28.821 -23.910 -17.131  0.00  0.00    +0.038 C 
ATOM     34  C   UNL     1      29.131 -23.044 -14.877  0.00  0.00    +0.001 C 
ATOM     35  C   UNL     1      27.836 -22.960 -17.305  0.00  0.00    +0.176 C 
ATOM     36  C   UNL     1      28.129 -22.091 -15.079  0.00  0.00    +0.040 C 
ATOM     37  C   UNL     1      27.499 -22.075 -16.307  0.00  0.00    +0.176 C 
ATOM     38  C   UNL     1      26.257 -21.671 -18.031  0.00  0.00    +0.429 C 
ENDBRANCH  29  32
ENDBRANCH   4  29
TORSDOF 5
ENDMDL
MODEL 4
REMARK VINA RESULT:      -8.3     10.447     15.052
REMARK  Name = 4369485
REMARK  5 active torsions:
REMARK  status: ('A' for Active; 'I' for Inactive)
REMARK    1  A    between atoms: N_4  and  C_29
REMARK    2  A    between atoms: C_8  and  C_15
REMARK    3  A    between atoms: C_11  and  O_27
REMARK    4  A    between atoms: C_20  and  C_23
REMARK    5  A    between atoms: C_29  and  C_32
REMARK                            x       y       z     vdW  Elec       q    Type
REMARK                         _______ _______ _______ _____ _____    ______ ____
ROOT
ATOM      1  O   UNL     1      32.916 -14.110 -21.470  0.00  0.00    -0.275 OA
ATOM      2  O   UNL     1      33.289 -10.674 -24.533  0.00  0.00    -0.275 OA
ATOM      3  N   UNL     1      32.161  -9.904 -20.911  0.00  0.00    +0.394 N 
ATOM      4  N   UNL     1      33.400 -12.529 -23.122  0.00  0.00    -0.226 N 
ATOM      5  C   UNL     1      31.941 -11.297 -20.472  0.00  0.00    -0.046 C 
ATOM      6  C   UNL     1      31.588 -12.106 -21.716  0.00  0.00    +0.065 C 
ATOM      7  C   UNL     1      31.566 -11.096 -22.866  0.00  0.00    +0.069 C 
ATOM      8  C   UNL     1      31.411  -9.737 -22.174  0.00  0.00    -0.025 C 
ATOM      9  C   UNL     1      30.818 -11.211 -19.445  0.00  0.00    +0.007 C 
ATOM     10  C   UNL     1      31.696  -9.010 -19.832  0.00  0.00    -0.047 C 
ATOM     11  C   UNL     1      31.127  -9.906 -18.736  0.00  0.00    +0.088 C 
ATOM     12  C   UNL     1      32.693 -13.068 -22.071  0.00  0.00    +0.230 C 
ATOM     13  C   UNL     1      32.859 -11.362 -23.617  0.00  0.00    +0.230 C 
ATOM     14  H   UNL     1      33.140  -9.677 -21.088  0.00  0.00    -0.079 HD
ENDROOT
BRANCH   8  15
ATOM     15  C   UNL     1      31.800  -8.545 -23.021  0.00  0.00    -0.041 C 
ATOM     16  C   UNL     1      30.838  -7.896 -23.798  0.00  0.00    -0.006 C 
ATOM     17  C   UNL     1      33.119  -8.091 -23.026  0.00  0.00    -0.006 C 
ATOM     18  C   UNL     1      31.195  -6.797 -24.578  0.00  0.00    +0.002 C 
ATOM     19  C   UNL     1      33.477  -6.991 -23.806  0.00  0.00    +0.002 C 
ATOM     20  C   UNL     1      32.515  -6.344 -24.581  0.00  0.00    +0.031 C 
BRANCH  20  23
ATOM     21  N   UNL     1      32.214  -3.983 -25.291  0.00  0.00    -0.343 N 
ATOM     22  N   UNL     1      33.883  -5.302 -26.260  0.00  0.00    -0.285 NA
ATOM     23  C   UNL     1      32.889  -5.198 -25.396  0.00  0.00    +0.117 C 
ATOM     24  H   UNL     1      32.484  -3.221 -25.852  0.00  0.00    +0.144 HD
ATOM     25  H   UNL     1      31.469  -3.887 -24.655  0.00  0.00    +0.144 HD
ATOM     26  H   UNL     1      34.138  -4.527 -26.812  0.00  0.00    +0.188 HD
ENDBRANCH  20  23
ENDBRANCH   8  15
BRANCH  11  27
ATOM     27  O   UNL     1      32.120 -10.113 -17.738  0.00  0.00    -0.387 OA
ATOM     28  H   UNL     1      32.922  -9.620 -17.973  0.00  0.00    +0.210 HD
ENDBRANCH  11  27
BRANCH   4  29
ATOM     29  C   UNL     1      34.597 -13.151 -23.655  0.00  0.00    +0.127 C 
BRANCH  29  32
ATOM     30  O   UNL     1      35.064 -18.062 -23.840  0.00  0.00    -0.435 OA
ATOM     31  O   UNL     1      33.548 -18.251 -25.705  0.00  0.00    -0.435 OA
ATOM     32  C   UNL     1      34.292 -14.506 -24.231  0.00  0.00    +0.001 C 
ATOM     33  C   UNL     1      34.891 -15.633 -23.677  0.00  0.00    +0.038 C 
ATOM     34  C   UNL     1      33.411 -14.606 -25.314  0.00  0.00    +0.001 C 
ATOM     35  C   UNL     1      34.581 -16.854 -24.240  0.00  0.00    +0.176 C 
ATOM     36  C   UNL     1      33.114 -15.855 -25.865  0.00  0.00    +0.040 C 
ATOM     37  C   UNL     1      33.716 -16.962 -25.304  0.00  0.00    +0.176 C 
ATOM     38  C   UNL     1      34.404 -18.943 -24.774  0.00  0.00    +0.429 C 
ENDBRANCH  29  32
ENDBRANCH   4  29
TORSDOF 5
ENDMDL
MODEL 5
REMARK VINA RESULT:      -7.1      2.890      6.883
REMARK  Name = 4369485
REMARK  5 active torsions:
REMARK  status: ('A' for Active; 'I' for Inactive)
REMARK    1  A    between atoms: N_4  and  C_29
REMARK    2  A    between atoms: C_8  and  C_15
REMARK    3  A    between atoms: C_11  and  O_27
REMARK    4  A    between atoms: C_20  and  C_23
REMARK    5  A    between atoms: C_29  and  C_32
REMARK                            x       y       z     vdW  Elec       q    Type
REMARK                         _______ _______ _______ _____ _____    ______ ____
ROOT
ATOM      1  O   UNL     1      34.907 -25.415 -11.451  0.00  0.00    -0.275 OA
ATOM      2  O   UNL     1      33.609 -23.031 -15.186  0.00  0.00    -0.275 OA
ATOM      3  N   UNL     1      37.221 -24.400 -14.942  0.00  0.00    +0.394 N 
ATOM      4  N   UNL     1      33.952 -24.391 -13.321  0.00  0.00    -0.226 N 
ATOM      5  C   UNL     1      37.187 -24.796 -13.519  0.00  0.00    -0.046 C 
ATOM      6  C   UNL     1      36.175 -23.887 -12.828  0.00  0.00    +0.065 C 
ATOM      7  C   UNL     1      35.681 -22.927 -13.913  0.00  0.00    +0.069 C 
ATOM      8  C   UNL     1      36.761 -22.997 -15.000  0.00  0.00    -0.025 C 
ATOM      9  C   UNL     1      38.619 -24.620 -13.029  0.00  0.00    +0.007 C 
ATOM     10  C   UNL     1      38.603 -24.584 -15.430  0.00  0.00    -0.047 C 
ATOM     11  C   UNL     1      39.429 -25.052 -14.236  0.00  0.00    +0.088 C 
ATOM     12  C   UNL     1      34.949 -24.658 -12.410  0.00  0.00    +0.230 C 
ATOM     13  C   UNL     1      34.296 -23.443 -14.261  0.00  0.00    +0.230 C 
ATOM     14  H   UNL     1      36.614 -24.962 -15.540  0.00  0.00    -0.079 HD
ENDROOT
BRANCH   8  15
ATOM     15  C   UNL     1      36.324 -22.501 -16.361  0.00  0.00    -0.041 C 
ATOM     16  C   UNL     1      35.148 -22.984 -16.938  0.00  0.00    -0.006 C 
ATOM     17  C   UNL     1      37.095 -21.557 -17.041  0.00  0.00    -0.006 C 
ATOM     18  C   UNL     1      34.745 -22.525 -18.191  0.00  0.00    +0.002 C 
ATOM     19  C   UNL     1      36.692 -21.097 -18.295  0.00  0.00    +0.002 C 
ATOM     20  C   UNL     1      35.517 -21.581 -18.870  0.00  0.00    +0.031 C 
BRANCH  20  23
ATOM     21  N   UNL     1      33.749 -20.985 -20.509  0.00  0.00    -0.343 N 
ATOM     22  N   UNL     1      36.005 -20.778 -21.082  0.00  0.00    -0.285 NA
ATOM     23  C   UNL     1      35.097 -21.103 -20.179  0.00  0.00    +0.117 C 
ATOM     24  H   UNL     1      33.488 -20.659 -21.400  0.00  0.00    +0.144 HD
ATOM     25  H   UNL     1      33.058 -21.226 -19.850  0.00  0.00    +0.144 HD
ATOM     26  H   UNL     1      35.723 -20.454 -21.968  0.00  0.00    +0.188 HD
ENDBRANCH  20  23
ENDBRANCH   8  15
BRANCH  11  27
ATOM     27  O   UNL     1      39.541 -26.470 -14.271  0.00  0.00    -0.387 OA
ATOM     28  H   UNL     1      40.378 -26.718 -14.693  0.00  0.00    +0.210 HD
ENDBRANCH  11  27
BRANCH   4  29
ATOM     29  C   UNL     1      32.659 -25.047 -13.276  0.00  0.00    +0.127 C 
BRANCH  29  32
ATOM     30  O   UNL     1      29.051 -24.326 -16.567  0.00  0.00    -0.435 OA
ATOM     31  O   UNL     1      28.703 -22.048 -15.859  0.00  0.00    -0.435 OA
ATOM     32  C   UNL     1      31.604 -24.212 -13.948  0.00  0.00    +0.001 C 
ATOM     33  C   UNL     1      30.843 -24.769 -14.971  0.00  0.00    +0.038 C 
ATOM     34  C   UNL     1      31.411 -22.890 -13.530  0.00  0.00    +0.001 C 
ATOM     35  C   UNL     1      29.888 -23.964 -15.557  0.00  0.00    +0.176 C 
ATOM     36  C   UNL     1      30.436 -22.096 -14.141  0.00  0.00    +0.040 C 
ATOM     37  C   UNL     1      29.690 -22.664 -15.153  0.00  0.00    +0.176 C 
ATOM     38  C   UNL     1      28.302 -23.106 -16.753  0.00  0.00    +0.429 C 
ENDBRANCH  29  32
ENDBRANCH   4  29
TORSDOF 5
ENDMDL
