MODEL 1
REMARK VINA RESULT:      -7.3      0.000      0.000
REMARK  Name = 43231
REMARK  6 active torsions:
REMARK  status: ('A' for Active; 'I' for Inactive)
REMARK    1  A    between atoms: C_1  and  S_12
REMARK    2  A    between atoms: C_2  and  S_18
REMARK    3  A    between atoms: C_3  and  C_10
REMARK    4  A    between atoms: C_5  and  N_24
REMARK    5  A    between atoms: S_12  and  N_15
REMARK    6  A    between atoms: S_18  and  N_21
REMARK                            x       y       z     vdW  Elec       q    Type
REMARK                         _______ _______ _______ _____ _____    ______ ____
ROOT
ATOM      1  C   UNL     1      35.103 -24.284 -13.384  0.00  0.00    +0.124 C 
ATOM      2  C   UNL     1      32.885 -23.982 -14.292  0.00  0.00    +0.136 C 
ATOM      3  C   UNL     1      35.648 -24.104 -14.656  0.00  0.00    +0.032 C 
ATOM      4  C   UNL     1      33.722 -24.223 -13.202  0.00  0.00    +0.041 C 
ATOM      5  C   UNL     1      33.429 -23.802 -15.563  0.00  0.00    +0.060 C 
ATOM      6  C   UNL     1      34.811 -23.864 -15.745  0.00  0.00    +0.018 C 
ENDROOT
BRANCH   3  10
ATOM      7 CL   UNL     1      37.862 -22.602 -14.929  0.00  0.00    -0.080 Cl
ATOM      8 CL   UNL     1      39.492 -25.347 -15.342  0.00  0.00    -0.069 Cl
ATOM      9 CL   UNL     1      37.003 -26.864 -15.025  0.00  0.00    -0.069 Cl
ATOM     10  C   UNL     1      37.085 -24.161 -14.890  0.00  0.00    +0.080 C 
ATOM     11  C   UNL     1      37.779 -25.309 -15.064  0.00  0.00    +0.125 C 
ENDBRANCH   3  10
BRANCH   1  12
ATOM     12  S   UNL     1      36.111 -24.587 -11.982  0.00  0.00    +0.057 S 
ATOM     13  O   UNL     1      36.647 -25.934 -12.093  0.00  0.00    -0.153 OA
ATOM     14  O   UNL     1      37.009 -23.456 -11.815  0.00  0.00    -0.153 OA
BRANCH  12  15
ATOM     15  N   UNL     1      34.944 -24.555 -10.737  0.00  0.00    -0.203 NA
ATOM     16  H   UNL     1      34.683 -25.509 -10.489  0.00  0.00    +0.144 HD
ATOM     17  H   UNL     1      34.118 -24.050 -11.059  0.00  0.00    +0.144 HD
ENDBRANCH  12  15
ENDBRANCH   1  12
BRANCH   2  18
ATOM     18  S   UNL     1      31.156 -23.915 -14.023  0.00  0.00    +0.058 S 
ATOM     19  O   UNL     1      30.918 -23.925 -12.588  0.00  0.00    -0.153 OA
ATOM     20  O   UNL     1      30.607 -22.846 -14.844  0.00  0.00    -0.153 OA
BRANCH  18  21
ATOM     21  N   UNL     1      30.672 -25.417 -14.675  0.00  0.00    -0.203 NA
ATOM     22  H   UNL     1      30.306 -26.010 -13.930  0.00  0.00    +0.144 HD
ATOM     23  H   UNL     1      31.473 -25.873 -15.111  0.00  0.00    +0.144 HD
ENDBRANCH  18  21
ENDBRANCH   2  18
BRANCH   5  24
ATOM     24  N   UNL     1      32.603 -23.558 -16.681  0.00  0.00    -0.356 N 
ATOM     25  H   UNL     1      31.825 -24.137 -16.855  0.00  0.00    +0.142 HD
ATOM     26  H   UNL     1      32.804 -22.809 -17.289  0.00  0.00    +0.142 HD
ENDBRANCH   5  24
TORSDOF 6
ENDMDL
MODEL 2
REMARK VINA RESULT:      -7.2      1.092      1.913
REMARK  Name = 43231
REMARK  6 active torsions:
REMARK  status: ('A' for Active; 'I' for Inactive)
REMARK    1  A    between atoms: C_1  and  S_12
REMARK    2  A    between atoms: C_2  and  S_18
REMARK    3  A    between atoms: C_3  and  C_10
REMARK    4  A    between atoms: C_5  and  N_24
REMARK    5  A    between atoms: S_12  and  N_15
REMARK    6  A    between atoms: S_18  and  N_21
REMARK                            x       y       z     vdW  Elec       q    Type
REMARK                         _______ _______ _______ _____ _____    ______ ____
ROOT
ATOM      1  C   UNL     1      35.426 -24.611 -13.109  0.00  0.00    +0.124 C 
ATOM      2  C   UNL     1      33.267 -23.903 -13.929  0.00  0.00    +0.136 C 
ATOM      3  C   UNL     1      35.875 -24.760 -14.421  0.00  0.00    +0.032 C 
ATOM      4  C   UNL     1      34.122 -24.182 -12.863  0.00  0.00    +0.041 C 
ATOM      5  C   UNL     1      33.716 -24.052 -15.242  0.00  0.00    +0.060 C 
ATOM      6  C   UNL     1      35.021 -24.481 -15.487  0.00  0.00    +0.018 C 
ENDROOT
BRANCH   3  10
ATOM      7 CL   UNL     1      37.459 -26.928 -14.586  0.00  0.00    -0.080 Cl
ATOM      8 CL   UNL     1      39.843 -24.936 -15.431  0.00  0.00    -0.069 Cl
ATOM      9 CL   UNL     1      38.008 -22.660 -15.212  0.00  0.00    -0.069 Cl
ATOM     10  C   UNL     1      37.230 -25.206 -14.722  0.00  0.00    +0.080 C 
ATOM     11  C   UNL     1      38.238 -24.377 -15.078  0.00  0.00    +0.125 C 
ENDBRANCH   3  10
BRANCH   1  12
ATOM     12  S   UNL     1      36.461 -24.947 -11.734  0.00  0.00    +0.057 S 
ATOM     13  O   UNL     1      36.890 -26.333 -11.820  0.00  0.00    -0.153 OA
ATOM     14  O   UNL     1      37.447 -23.883 -11.637  0.00  0.00    -0.153 OA
BRANCH  12  15
ATOM     15  N   UNL     1      35.347 -24.788 -10.451  0.00  0.00    -0.203 NA
ATOM     16  H   UNL     1      34.436 -24.519 -10.821  0.00  0.00    +0.144 HD
ATOM     17  H   UNL     1      35.675 -24.071  -9.803  0.00  0.00    +0.144 HD
ENDBRANCH  12  15
ENDBRANCH   1  12
BRANCH   2  18
ATOM     18  S   UNL     1      31.637 -23.368 -13.580  0.00  0.00    +0.058 S 
ATOM     19  O   UNL     1      31.208 -22.486 -14.654  0.00  0.00    -0.153 OA
ATOM     20  O   UNL     1      30.837 -24.534 -13.233  0.00  0.00    -0.153 OA
BRANCH  18  21
ATOM     21  N   UNL     1      31.899 -22.439 -12.172  0.00  0.00    -0.203 NA
ATOM     22  H   UNL     1      32.023 -23.060 -11.372  0.00  0.00    +0.144 HD
ATOM     23  H   UNL     1      31.096 -21.832 -12.009  0.00  0.00    +0.144 HD
ENDBRANCH  18  21
ENDBRANCH   2  18
BRANCH   5  24
ATOM     24  N   UNL     1      32.870 -23.776 -16.337  0.00  0.00    -0.356 N 
ATOM     25  H   UNL     1      33.116 -24.083 -17.240  0.00  0.00    +0.142 HD
ATOM     26  H   UNL     1      32.033 -23.274 -16.200  0.00  0.00    +0.142 HD
ENDBRANCH   5  24
TORSDOF 6
ENDMDL
MODEL 3
REMARK VINA RESULT:      -6.8      2.650      3.340
REMARK  Name = 43231
REMARK  6 active torsions:
REMARK  status: ('A' for Active; 'I' for Inactive)
REMARK    1  A    between atoms: C_1  and  S_12
REMARK    2  A    between atoms: C_2  and  S_18
REMARK    3  A    between atoms: C_3  and  C_10
REMARK    4  A    between atoms: C_5  and  N_24
REMARK    5  A    between atoms: S_12  and  N_15
REMARK    6  A    between atoms: S_18  and  N_21
REMARK                            x       y       z     vdW  Elec       q    Type
REMARK                         _______ _______ _______ _____ _____    ______ ____
ROOT
ATOM      1  C   UNL     1      34.760 -23.485 -15.177  0.00  0.00    +0.124 C 
ATOM      2  C   UNL     1      32.359 -23.755 -15.185  0.00  0.00    +0.136 C 
ATOM      3  C   UNL     1      34.834 -24.175 -13.967  0.00  0.00    +0.032 C 
ATOM      4  C   UNL     1      33.523 -23.275 -15.786  0.00  0.00    +0.041 C 
ATOM      5  C   UNL     1      32.433 -24.445 -13.975  0.00  0.00    +0.060 C 
ATOM      6  C   UNL     1      33.670 -24.654 -13.366  0.00  0.00    +0.018 C 
ENDROOT
BRANCH   3  10
ATOM      7 CL   UNL     1      36.572 -23.158 -12.184  0.00  0.00    -0.080 Cl
ATOM      8 CL   UNL     1      38.386 -25.769 -12.690  0.00  0.00    -0.069 Cl
ATOM      9 CL   UNL     1      36.408 -26.761 -14.613  0.00  0.00    -0.069 Cl
ATOM     10  C   UNL     1      36.105 -24.415 -13.297  0.00  0.00    +0.080 C 
ATOM     11  C   UNL     1      36.874 -25.509 -13.503  0.00  0.00    +0.125 C 
ENDBRANCH   3  10
BRANCH   1  12
ATOM     12  S   UNL     1      36.192 -22.863 -15.974  0.00  0.00    +0.057 S 
ATOM     13  O   UNL     1      36.574 -21.624 -15.317  0.00  0.00    -0.153 OA
ATOM     14  O   UNL     1      37.152 -23.949 -16.097  0.00  0.00    -0.153 OA
BRANCH  12  15
ATOM     15  N   UNL     1      35.565 -22.503 -17.520  0.00  0.00    -0.203 NA
ATOM     16  H   UNL     1      34.727 -23.060 -17.687  0.00  0.00    +0.144 HD
ATOM     17  H   UNL     1      36.264 -22.721 -18.231  0.00  0.00    +0.144 HD
ENDBRANCH  12  15
ENDBRANCH   1  12
BRANCH   2  18
ATOM     18  S   UNL     1      30.825 -23.470 -15.979  0.00  0.00    +0.058 S 
ATOM     19  O   UNL     1      31.060 -22.603 -17.123  0.00  0.00    -0.153 OA
ATOM     20  O   UNL     1      30.159 -24.750 -16.162  0.00  0.00    -0.153 OA
BRANCH  18  21
ATOM     21  N   UNL     1      30.001 -22.585 -14.775  0.00  0.00    -0.203 NA
ATOM     22  H   UNL     1      30.113 -23.050 -13.873  0.00  0.00    +0.144 HD
ATOM     23  H   UNL     1      29.009 -22.532 -15.009  0.00  0.00    +0.144 HD
ENDBRANCH  18  21
ENDBRANCH   2  18
BRANCH   5  24
ATOM     24  N   UNL     1      31.269 -24.939 -13.347  0.00  0.00    -0.356 N 
ATOM     25  H   UNL     1      31.239 -25.030 -12.367  0.00  0.00    +0.142 HD
ATOM     26  H   UNL     1      30.487 -25.196 -13.888  0.00  0.00    +0.142 HD
ENDBRANCH   5  24
TORSDOF 6
ENDMDL
MODEL 4
REMARK VINA RESULT:      -6.6     10.503     12.117
REMARK  Name = 43231
REMARK  6 active torsions:
REMARK  status: ('A' for Active; 'I' for Inactive)
REMARK    1  A    between atoms: C_1  and  S_12
REMARK    2  A    between atoms: C_2  and  S_18
REMARK    3  A    between atoms: C_3  and  C_10
REMARK    4  A    between atoms: C_5  and  N_24
REMARK    5  A    between atoms: S_12  and  N_15
REMARK    6  A    between atoms: S_18  and  N_21
REMARK                            x       y       z     vdW  Elec       q    Type
REMARK                         _______ _______ _______ _____ _____    ______ ____
ROOT
ATOM      1  C   UNL     1      34.371 -17.259 -23.109  0.00  0.00    +0.124 C 
ATOM      2  C   UNL     1      33.523 -15.019 -22.786  0.00  0.00    +0.136 C 
ATOM      3  C   UNL     1      34.492 -17.411 -21.727  0.00  0.00    +0.032 C 
ATOM      4  C   UNL     1      33.886 -16.063 -23.637  0.00  0.00    +0.041 C 
ATOM      5  C   UNL     1      33.644 -15.172 -21.404  0.00  0.00    +0.060 C 
ATOM      6  C   UNL     1      34.130 -16.369 -20.876  0.00  0.00    +0.018 C 
ENDROOT
BRANCH   3  10
ATOM      7 CL   UNL     1      36.733 -18.748 -21.074  0.00  0.00    -0.080 Cl
ATOM      8 CL   UNL     1      34.829 -21.092 -19.958  0.00  0.00    -0.069 Cl
ATOM      9 CL   UNL     1      32.470 -19.529 -20.722  0.00  0.00    -0.069 Cl
ATOM     10  C   UNL     1      34.995 -18.644 -21.133  0.00  0.00    +0.080 C 
ATOM     11  C   UNL     1      34.203 -19.634 -20.662  0.00  0.00    +0.125 C 
ENDBRANCH   3  10
BRANCH   1  12
ATOM     12  S   UNL     1      34.811 -18.539 -24.222  0.00  0.00    +0.057 S 
ATOM     13  O   UNL     1      36.200 -18.893 -23.977  0.00  0.00    -0.153 OA
ATOM     14  O   UNL     1      33.779 -19.561 -24.171  0.00  0.00    -0.153 OA
BRANCH  12  15
ATOM     15  N   UNL     1      34.702 -17.716 -25.713  0.00  0.00    -0.203 NA
ATOM     16  H   UNL     1      33.958 -18.129 -26.276  0.00  0.00    +0.144 HD
ATOM     17  H   UNL     1      35.588 -17.796 -26.212  0.00  0.00    +0.144 HD
ENDBRANCH  12  15
ENDBRANCH   1  12
BRANCH   2  18
ATOM     18  S   UNL     1      32.920 -13.533 -23.488  0.00  0.00    +0.058 S 
ATOM     19  O   UNL     1      32.665 -13.769 -24.901  0.00  0.00    -0.153 OA
ATOM     20  O   UNL     1      31.861 -13.020 -22.634  0.00  0.00    -0.153 OA
BRANCH  18  21
ATOM     21  N   UNL     1      34.291 -12.527 -23.334  0.00  0.00    -0.203 NA
ATOM     22  H   UNL     1      35.077 -13.074 -22.981  0.00  0.00    +0.144 HD
ATOM     23  H   UNL     1      34.086 -11.769 -22.683  0.00  0.00    +0.144 HD
ENDBRANCH  18  21
ENDBRANCH   2  18
BRANCH   5  24
ATOM     24  N   UNL     1      33.284 -14.131 -20.522  0.00  0.00    -0.356 N 
ATOM     25  H   UNL     1      32.401 -13.701 -20.602  0.00  0.00    +0.142 HD
ATOM     26  H   UNL     1      33.915 -13.833 -19.827  0.00  0.00    +0.142 HD
ENDBRANCH   5  24
TORSDOF 6
ENDMDL
MODEL 5
REMARK VINA RESULT:      -6.6     12.629     14.590
REMARK  Name = 43231
REMARK  6 active torsions:
REMARK  status: ('A' for Active; 'I' for Inactive)
REMARK    1  A    between atoms: C_1  and  S_12
REMARK    2  A    between atoms: C_2  and  S_18
REMARK    3  A    between atoms: C_3  and  C_10
REMARK    4  A    between atoms: C_5  and  N_24
REMARK    5  A    between atoms: S_12  and  N_15
REMARK    6  A    between atoms: S_18  and  N_21
REMARK                            x       y       z     vdW  Elec       q    Type
REMARK                         _______ _______ _______ _____ _____    ______ ____
ROOT
ATOM      1  C   UNL     1      33.653 -14.987 -24.718  0.00  0.00    +0.124 C 
ATOM      2  C   UNL     1      34.495 -16.789 -23.346  0.00  0.00    +0.136 C 
ATOM      3  C   UNL     1      33.849 -14.093 -23.665  0.00  0.00    +0.032 C 
ATOM      4  C   UNL     1      33.976 -16.334 -24.559  0.00  0.00    +0.041 C 
ATOM      5  C   UNL     1      34.691 -15.895 -22.293  0.00  0.00    +0.060 C 
ATOM      6  C   UNL     1      34.368 -14.547 -22.453  0.00  0.00    +0.018 C 
ENDROOT
BRANCH   3  10
ATOM      7 CL   UNL     1      34.389 -11.858 -25.061  0.00  0.00    -0.080 Cl
ATOM      8 CL   UNL     1      32.268 -10.346 -23.170  0.00  0.00    -0.069 Cl
ATOM      9 CL   UNL     1      31.774 -12.852 -21.731  0.00  0.00    -0.069 Cl
ATOM     10  C   UNL     1      33.525 -12.678 -23.789  0.00  0.00    +0.080 C 
ATOM     11  C   UNL     1      32.635 -12.034 -22.999  0.00  0.00    +0.125 C 
ENDBRANCH   3  10
BRANCH   1  12
ATOM     12  S   UNL     1      33.006 -14.467 -26.262  0.00  0.00    +0.057 S 
ATOM     13  O   UNL     1      31.913 -13.543 -26.007  0.00  0.00    -0.153 OA
ATOM     14  O   UNL     1      34.118 -14.065 -27.109  0.00  0.00    -0.153 OA
BRANCH  12  15
ATOM     15  N   UNL     1      32.367 -15.936 -26.851  0.00  0.00    -0.203 NA
ATOM     16  H   UNL     1      31.365 -15.831 -27.011  0.00  0.00    +0.144 HD
ATOM     17  H   UNL     1      32.525 -16.675 -26.166  0.00  0.00    +0.144 HD
ENDBRANCH  12  15
ENDBRANCH   1  12
BRANCH   2  18
ATOM     18  S   UNL     1      34.886 -18.487 -23.185  0.00  0.00    +0.058 S 
ATOM     19  O   UNL     1      34.186 -19.006 -22.020  0.00  0.00    -0.153 OA
ATOM     20  O   UNL     1      34.711 -19.123 -24.482  0.00  0.00    -0.153 OA
BRANCH  18  21
ATOM     21  N   UNL     1      36.555 -18.400 -22.833  0.00  0.00    -0.203 NA
ATOM     22  H   UNL     1      36.892 -17.454 -23.015  0.00  0.00    +0.144 HD
ATOM     23  H   UNL     1      37.062 -19.060 -23.421  0.00  0.00    +0.144 HD
ENDBRANCH  18  21
ENDBRANCH   2  18
BRANCH   5  24
ATOM     24  N   UNL     1      35.214 -16.331 -21.057  0.00  0.00    -0.356 N 
ATOM     25  H   UNL     1      35.723 -17.172 -21.006  0.00  0.00    +0.142 HD
ATOM     26  H   UNL     1      35.069 -15.794 -20.243  0.00  0.00    +0.142 HD
ENDBRANCH   5  24
TORSDOF 6
ENDMDL
MODEL 6
REMARK VINA RESULT:      -6.5      3.446      4.477
REMARK  Name = 43231
REMARK  6 active torsions:
REMARK  status: ('A' for Active; 'I' for Inactive)
REMARK    1  A    between atoms: C_1  and  S_12
REMARK    2  A    between atoms: C_2  and  S_18
REMARK    3  A    between atoms: C_3  and  C_10
REMARK    4  A    between atoms: C_5  and  N_24
REMARK    5  A    between atoms: S_12  and  N_15
REMARK    6  A    between atoms: S_18  and  N_21
REMARK                            x       y       z     vdW  Elec       q    Type
REMARK                         _______ _______ _______ _____ _____    ______ ____
ROOT
ATOM      1  C   UNL     1      33.110 -23.133 -16.950  0.00  0.00    +0.124 C 
ATOM      2  C   UNL     1      30.987 -23.288 -15.806  0.00  0.00    +0.136 C 
ATOM      3  C   UNL     1      33.776 -23.230 -15.728  0.00  0.00    +0.032 C 
ATOM      4  C   UNL     1      31.716 -23.162 -16.989  0.00  0.00    +0.041 C 
ATOM      5  C   UNL     1      31.653 -23.385 -14.584  0.00  0.00    +0.060 C 
ATOM      6  C   UNL     1      33.048 -23.356 -14.545  0.00  0.00    +0.018 C 
ENDROOT
BRANCH   3  10
ATOM      7 CL   UNL     1      35.926 -21.618 -15.835  0.00  0.00    -0.080 Cl
ATOM      8 CL   UNL     1      37.728 -24.238 -15.335  0.00  0.00    -0.069 Cl
ATOM      9 CL   UNL     1      35.301 -25.880 -15.241  0.00  0.00    -0.069 Cl
ATOM     10  C   UNL     1      35.230 -23.204 -15.642  0.00  0.00    +0.080 C 
ATOM     11  C   UNL     1      35.996 -24.299 -15.433  0.00  0.00    +0.125 C 
ENDBRANCH   3  10
BRANCH   1  12
ATOM     12  S   UNL     1      33.978 -22.975 -18.464  0.00  0.00    +0.057 S 
ATOM     13  O   UNL     1      35.272 -22.374 -18.183  0.00  0.00    -0.153 OA
ATOM     14  O   UNL     1      33.902 -24.246 -19.167  0.00  0.00    -0.153 OA
BRANCH  12  15
ATOM     15  N   UNL     1      33.000 -21.835 -19.275  0.00  0.00    -0.203 NA
ATOM     16  H   UNL     1      32.731 -22.204 -20.187  0.00  0.00    +0.144 HD
ATOM     17  H   UNL     1      33.522 -20.968 -19.401  0.00  0.00    +0.144 HD
ENDBRANCH  12  15
ENDBRANCH   1  12
BRANCH   2  18
ATOM     18  S   UNL     1      29.239 -23.318 -15.896  0.00  0.00    +0.058 S 
ATOM     19  O   UNL     1      28.853 -23.126 -17.285  0.00  0.00    -0.153 OA
ATOM     20  O   UNL     1      28.763 -24.481 -15.163  0.00  0.00    -0.153 OA
BRANCH  18  21
ATOM     21  N   UNL     1      28.849 -21.910 -15.012  0.00  0.00    -0.203 NA
ATOM     22  H   UNL     1      29.026 -22.071 -14.020  0.00  0.00    +0.144 HD
ATOM     23  H   UNL     1      27.864 -21.684 -15.149  0.00  0.00    +0.144 HD
ENDBRANCH  18  21
ENDBRANCH   2  18
BRANCH   5  24
ATOM     24  N   UNL     1      30.938 -23.513 -13.373  0.00  0.00    -0.356 N 
ATOM     25  H   UNL     1      30.421 -22.751 -13.024  0.00  0.00    +0.142 HD
ATOM     26  H   UNL     1      30.957 -24.363 -12.877  0.00  0.00    +0.142 HD
ENDBRANCH   5  24
TORSDOF 6
ENDMDL
MODEL 7
REMARK VINA RESULT:      -6.3      2.995      3.761
REMARK  Name = 43231
REMARK  6 active torsions:
REMARK  status: ('A' for Active; 'I' for Inactive)
REMARK    1  A    between atoms: C_1  and  S_12
REMARK    2  A    between atoms: C_2  and  S_18
REMARK    3  A    between atoms: C_3  and  C_10
REMARK    4  A    between atoms: C_5  and  N_24
REMARK    5  A    between atoms: S_12  and  N_15
REMARK    6  A    between atoms: S_18  and  N_21
REMARK                            x       y       z     vdW  Elec       q    Type
REMARK                         _______ _______ _______ _____ _____    ______ ____
ROOT
ATOM      1  C   UNL     1      34.418 -23.732 -14.925  0.00  0.00    +0.124 C 
ATOM      2  C   UNL     1      34.525 -22.785 -17.146  0.00  0.00    +0.136 C 
ATOM      3  C   UNL     1      35.804 -23.619 -14.811  0.00  0.00    +0.032 C 
ATOM      4  C   UNL     1      33.779 -23.316 -16.092  0.00  0.00    +0.041 C 
ATOM      5  C   UNL     1      35.910 -22.672 -17.031  0.00  0.00    +0.060 C 
ATOM      6  C   UNL     1      36.550 -23.089 -15.863  0.00  0.00    +0.018 C 
ENDROOT
BRANCH   3  10
ATOM      7 CL   UNL     1      36.616 -22.816 -12.375  0.00  0.00    -0.080 Cl
ATOM      8 CL   UNL     1      37.888 -25.750 -11.999  0.00  0.00    -0.069 Cl
ATOM      9 CL   UNL     1      36.945 -26.494 -14.674  0.00  0.00    -0.069 Cl
ATOM     10  C   UNL     1      36.512 -24.042 -13.609  0.00  0.00    +0.080 C 
ATOM     11  C   UNL     1      37.049 -25.272 -13.442  0.00  0.00    +0.125 C 
ENDBRANCH   3  10
BRANCH   1  12
ATOM     12  S   UNL     1      33.435 -24.389 -13.631  0.00  0.00    +0.057 S 
ATOM     13  O   UNL     1      32.578 -25.420 -14.194  0.00  0.00    -0.153 OA
ATOM     14  O   UNL     1      34.307 -24.698 -12.509  0.00  0.00    -0.153 OA
BRANCH  12  15
ATOM     15  N   UNL     1      32.483 -23.030 -13.233  0.00  0.00    -0.203 NA
ATOM     16  H   UNL     1      33.065 -22.326 -12.780  0.00  0.00    +0.144 HD
ATOM     17  H   UNL     1      31.735 -23.312 -12.599  0.00  0.00    +0.144 HD
ENDBRANCH  12  15
ENDBRANCH   1  12
BRANCH   2  18
ATOM     18  S   UNL     1      33.686 -22.275 -18.595  0.00  0.00    +0.058 S 
ATOM     19  O   UNL     1      32.262 -22.221 -18.301  0.00  0.00    -0.153 OA
ATOM     20  O   UNL     1      34.364 -21.104 -19.128  0.00  0.00    -0.153 OA
BRANCH  18  21
ATOM     21  N   UNL     1      33.988 -23.604 -19.624  0.00  0.00    -0.203 NA
ATOM     22  H   UNL     1      33.105 -24.055 -19.866  0.00  0.00    +0.144 HD
ATOM     23  H   UNL     1      34.592 -24.274 -19.148  0.00  0.00    +0.144 HD
ENDBRANCH  18  21
ENDBRANCH   2  18
BRANCH   5  24
ATOM     24  N   UNL     1      36.687 -22.139 -18.083  0.00  0.00    -0.356 N 
ATOM     25  H   UNL     1      37.016 -21.212 -18.032  0.00  0.00    +0.142 HD
ATOM     26  H   UNL     1      36.899 -22.693 -18.869  0.00  0.00    +0.142 HD
ENDBRANCH   5  24
TORSDOF 6
ENDMDL
MODEL 8
REMARK VINA RESULT:      -6.2      2.656      3.500
REMARK  Name = 43231
REMARK  6 active torsions:
REMARK  status: ('A' for Active; 'I' for Inactive)
REMARK    1  A    between atoms: C_1  and  S_12
REMARK    2  A    between atoms: C_2  and  S_18
REMARK    3  A    between atoms: C_3  and  C_10
REMARK    4  A    between atoms: C_5  and  N_24
REMARK    5  A    between atoms: S_12  and  N_15
REMARK    6  A    between atoms: S_18  and  N_21
REMARK                            x       y       z     vdW  Elec       q    Type
REMARK                         _______ _______ _______ _____ _____    ______ ____
ROOT
ATOM      1  C   UNL     1      34.498 -23.645 -15.279  0.00  0.00    +0.124 C 
ATOM      2  C   UNL     1      32.087 -23.720 -15.146  0.00  0.00    +0.136 C 
ATOM      3  C   UNL     1      34.584 -24.584 -14.251  0.00  0.00    +0.032 C 
ATOM      4  C   UNL     1      33.250 -23.213 -15.726  0.00  0.00    +0.041 C 
ATOM      5  C   UNL     1      32.172 -24.659 -14.118  0.00  0.00    +0.060 C 
ATOM      6  C   UNL     1      33.421 -25.091 -13.671  0.00  0.00    +0.018 C 
ENDROOT
BRANCH   3  10
ATOM      7 CL   UNL     1      36.502 -26.432 -14.622  0.00  0.00    -0.080 Cl
ATOM      8 CL   UNL     1      38.056 -25.099 -12.138  0.00  0.00    -0.069 Cl
ATOM      9 CL   UNL     1      35.893 -23.143 -11.843  0.00  0.00    -0.069 Cl
ATOM     10  C   UNL     1      35.868 -25.062 -13.753  0.00  0.00    +0.080 C 
ATOM     11  C   UNL     1      36.528 -24.509 -12.710  0.00  0.00    +0.125 C 
ENDBRANCH   3  10
BRANCH   1  12
ATOM     12  S   UNL     1      35.929 -22.979 -16.042  0.00  0.00    +0.057 S 
ATOM     13  O   UNL     1      36.267 -21.738 -15.364  0.00  0.00    -0.153 OA
ATOM     14  O   UNL     1      36.917 -24.038 -16.160  0.00  0.00    -0.153 OA
BRANCH  12  15
ATOM     15  N   UNL     1      35.321 -22.615 -17.595  0.00  0.00    -0.203 NA
ATOM     16  H   UNL     1      35.007 -23.474 -18.048  0.00  0.00    +0.144 HD
ATOM     17  H   UNL     1      36.056 -22.186 -18.157  0.00  0.00    +0.144 HD
ENDBRANCH  12  15
ENDBRANCH   1  12
BRANCH   2  18
ATOM     18  S   UNL     1      30.539 -23.151 -15.734  0.00  0.00    +0.058 S 
ATOM     19  O   UNL     1      29.849 -22.496 -14.635  0.00  0.00    -0.153 OA
ATOM     20  O   UNL     1      30.757 -22.439 -16.984  0.00  0.00    -0.153 OA
BRANCH  18  21
ATOM     21  N   UNL     1      29.761 -24.633 -16.071  0.00  0.00    -0.203 NA
ATOM     22  H   UNL     1      29.089 -24.501 -16.828  0.00  0.00    +0.144 HD
ATOM     23  H   UNL     1      29.273 -24.960 -15.237  0.00  0.00    +0.144 HD
ENDBRANCH  18  21
ENDBRANCH   2  18
BRANCH   5  24
ATOM     24  N   UNL     1      31.010 -25.186 -13.515  0.00  0.00    -0.356 N 
ATOM     25  H   UNL     1      30.586 -25.994 -13.885  0.00  0.00    +0.142 HD
ATOM     26  H   UNL     1      30.622 -24.746 -12.724  0.00  0.00    +0.142 HD
ENDBRANCH   5  24
TORSDOF 6
ENDMDL
MODEL 9
REMARK VINA RESULT:      -6.1     16.089     17.788
REMARK  Name = 43231
REMARK  6 active torsions:
REMARK  status: ('A' for Active; 'I' for Inactive)
REMARK    1  A    between atoms: C_1  and  S_12
REMARK    2  A    between atoms: C_2  and  S_18
REMARK    3  A    between atoms: C_3  and  C_10
REMARK    4  A    between atoms: C_5  and  N_24
REMARK    5  A    between atoms: S_12  and  N_15
REMARK    6  A    between atoms: S_18  and  N_21
REMARK                            x       y       z     vdW  Elec       q    Type
REMARK                         _______ _______ _______ _____ _____    ______ ____
ROOT
ATOM      1  C   UNL     1      33.284  -9.502 -23.171  0.00  0.00    +0.124 C 
ATOM      2  C   UNL     1      32.639 -11.810 -22.867  0.00  0.00    +0.136 C 
ATOM      3  C   UNL     1      32.303  -9.108 -22.261  0.00  0.00    +0.032 C 
ATOM      4  C   UNL     1      33.452 -10.852 -23.474  0.00  0.00    +0.041 C 
ATOM      5  C   UNL     1      31.658 -11.417 -21.957  0.00  0.00    +0.060 C 
ATOM      6  C   UNL     1      31.490 -10.065 -21.654  0.00  0.00    +0.018 C 
ENDROOT
BRANCH   3  10
ATOM      7 CL   UNL     1      32.957  -7.187 -20.496  0.00  0.00    -0.080 Cl
ATOM      8 CL   UNL     1      31.071  -5.201 -22.188  0.00  0.00    -0.069 Cl
ATOM      9 CL   UNL     1      30.440  -7.386 -24.037  0.00  0.00    -0.069 Cl
ATOM     10  C   UNL     1      32.093  -7.707 -21.917  0.00  0.00    +0.080 C 
ATOM     11  C   UNL     1      31.302  -6.866 -22.621  0.00  0.00    +0.125 C 
ENDBRANCH   3  10
BRANCH   1  12
ATOM     12  S   UNL     1      34.332  -8.339 -23.960  0.00  0.00    +0.057 S 
ATOM     13  O   UNL     1      33.518  -7.526 -24.849  0.00  0.00    -0.153 OA
ATOM     14  O   UNL     1      35.155  -7.706 -22.943  0.00  0.00    -0.153 OA
BRANCH  12  15
ATOM     15  N   UNL     1      35.311  -9.377 -24.897  0.00  0.00    -0.203 NA
ATOM     16  H   UNL     1      35.993  -8.824 -25.417  0.00  0.00    +0.144 HD
ATOM     17  H   UNL     1      34.727  -9.897 -25.551  0.00  0.00    +0.144 HD
ENDBRANCH  12  15
ENDBRANCH   1  12
BRANCH   2  18
ATOM     18  S   UNL     1      32.880 -13.496 -23.275  0.00  0.00    +0.058 S 
ATOM     19  O   UNL     1      32.218 -14.306 -22.265  0.00  0.00    -0.153 OA
ATOM     20  O   UNL     1      32.555 -13.678 -24.681  0.00  0.00    -0.153 OA
BRANCH  18  21
ATOM     21  N   UNL     1      34.570 -13.635 -23.076  0.00  0.00    -0.203 NA
ATOM     22  H   UNL     1      34.807 -14.598 -22.834  0.00  0.00    +0.144 HD
ATOM     23  H   UNL     1      34.878 -13.012 -22.330  0.00  0.00    +0.144 HD
ENDBRANCH  18  21
ENDBRANCH   2  18
BRANCH   5  24
ATOM     24  N   UNL     1      30.823 -12.367 -21.330  0.00  0.00    -0.356 N 
ATOM     25  H   UNL     1      30.397 -13.076 -21.863  0.00  0.00    +0.142 HD
ATOM     26  H   UNL     1      30.666 -12.321 -20.359  0.00  0.00    +0.142 HD
ENDBRANCH   5  24
TORSDOF 6
ENDMDL
