MODEL 1
REMARK VINA RESULT:     -10.3      0.000      0.000
REMARK  Name = 5278689
REMARK  6 active torsions:
REMARK  status: ('A' for Active; 'I' for Inactive)
REMARK    1  A    between atoms: C_1  and  O_2
REMARK    2  A    between atoms: C_1  and  C_14
REMARK    3  A    between atoms: O_2  and  C_4
REMARK    4  A    between atoms: C_4  and  N_5
REMARK    5  A    between atoms: N_5  and  C_8
REMARK    6  A    between atoms: C_14  and  N_17
REMARK                            x       y       z     vdW  Elec       q    Type
REMARK                         _______ _______ _______ _____ _____    ______ ____
ROOT
ATOM      1  C   UNL     1      34.939 -15.699 -23.513  0.00  0.00    +0.229 C 
ENDROOT
BRANCH   1   2
ATOM      2  O   UNL     1      34.715 -16.782 -22.620  0.00  0.00    -0.456 OA
BRANCH   2   4
ATOM      3  S   UNL     1      34.718 -18.808 -24.361  0.00  0.00    +0.006 S 
ATOM      4  C   UNL     1      35.040 -18.087 -22.884  0.00  0.00    +0.233 C 
BRANCH   4   5
ATOM      5  N   UNL     1      35.655 -18.809 -21.880  0.00  0.00    -0.278 N 
ATOM      6  H   UNL     1      36.616 -18.619 -21.773  0.00  0.00    +0.156 HD
BRANCH   5   8
ATOM      7 BR   UNL     1      33.472 -22.951 -18.010  0.00  0.00    -0.049 Br
ATOM      8  C   UNL     1      35.146 -19.775 -20.977  0.00  0.00    +0.051 C 
ATOM      9  C   UNL     1      33.777 -19.888 -20.810  0.00  0.00    +0.015 C 
ATOM     10  C   UNL     1      36.030 -20.583 -20.284  0.00  0.00    +0.015 C 
ATOM     11  C   UNL     1      33.275 -20.840 -19.922  0.00  0.00    +0.008 C 
ATOM     12  C   UNL     1      35.529 -21.535 -19.395  0.00  0.00    +0.008 C 
ATOM     13  C   UNL     1      34.151 -21.663 -19.214  0.00  0.00    +0.035 C 
ENDBRANCH   5   8
ENDBRANCH   4   5
ENDBRANCH   2   4
ENDBRANCH   1   2
BRANCH   1  14
ATOM     14  C   UNL     1      33.613 -15.234 -24.085  0.00  0.00    +0.149 C 
BRANCH  14  17
ATOM     15  O   UNL     1      33.843 -12.378 -24.907  0.00  0.00    -0.269 OA
ATOM     16  O   UNL     1      32.135 -15.013 -21.502  0.00  0.00    -0.269 OA
ATOM     17  N   UNL     1      33.128 -14.047 -23.408  0.00  0.00    -0.219 N 
ATOM     18  C   UNL     1      32.654 -11.888 -22.916  0.00  0.00    +0.058 C 
ATOM     19  C   UNL     1      32.144 -12.677 -21.897  0.00  0.00    +0.058 C 
ATOM     20  C   UNL     1      33.295 -12.766 -23.893  0.00  0.00    +0.255 C 
ATOM     21  C   UNL     1      32.450 -14.073 -22.208  0.00  0.00    +0.255 C 
ATOM     22  C   UNL     1      32.526 -10.513 -22.911  0.00  0.00    +0.005 C 
ATOM     23  C   UNL     1      31.477 -12.135 -20.818  0.00  0.00    +0.005 C 
ATOM     24  C   UNL     1      31.854  -9.942 -21.826  0.00  0.00    +0.000 C 
ATOM     25  C   UNL     1      31.334 -10.744 -20.790  0.00  0.00    +0.000 C 
ENDBRANCH  14  17
ENDBRANCH   1  14
TORSDOF 6
ENDMDL
MODEL 2
REMARK VINA RESULT:     -10.3      0.086      2.051
REMARK  Name = 5278689
REMARK  6 active torsions:
REMARK  status: ('A' for Active; 'I' for Inactive)
REMARK    1  A    between atoms: C_1  and  O_2
REMARK    2  A    between atoms: C_1  and  C_14
REMARK    3  A    between atoms: O_2  and  C_4
REMARK    4  A    between atoms: C_4  and  N_5
REMARK    5  A    between atoms: N_5  and  C_8
REMARK    6  A    between atoms: C_14  and  N_17
REMARK                            x       y       z     vdW  Elec       q    Type
REMARK                         _______ _______ _______ _____ _____    ______ ____
ROOT
ATOM      1  C   UNL     1      34.896 -15.733 -23.328  0.00  0.00    +0.229 C 
ENDROOT
BRANCH   1   2
ATOM      2  O   UNL     1      34.570 -16.882 -22.558  0.00  0.00    -0.456 OA
BRANCH   2   4
ATOM      3  S   UNL     1      34.711 -18.840 -24.370  0.00  0.00    +0.006 S 
ATOM      4  C   UNL     1      34.965 -18.159 -22.861  0.00  0.00    +0.233 C 
BRANCH   4   5
ATOM      5  N   UNL     1      35.595 -18.887 -21.870  0.00  0.00    -0.278 N 
ATOM      6  H   UNL     1      36.560 -18.709 -21.787  0.00  0.00    +0.156 HD
BRANCH   5   8
ATOM      7 BR   UNL     1      33.450 -22.987 -17.935  0.00  0.00    -0.049 Br
ATOM      8  C   UNL     1      35.094 -19.843 -20.953  0.00  0.00    +0.051 C 
ATOM      9  C   UNL     1      35.984 -20.660 -20.276  0.00  0.00    +0.015 C 
ATOM     10  C   UNL     1      33.729 -19.938 -20.754  0.00  0.00    +0.015 C 
ATOM     11  C   UNL     1      35.491 -21.601 -19.372  0.00  0.00    +0.008 C 
ATOM     12  C   UNL     1      33.235 -20.880 -19.850  0.00  0.00    +0.008 C 
ATOM     13  C   UNL     1      34.117 -21.711 -19.159  0.00  0.00    +0.035 C 
ENDBRANCH   5   8
ENDBRANCH   4   5
ENDBRANCH   2   4
ENDBRANCH   1   2
BRANCH   1  14
ATOM     14  C   UNL     1      33.644 -15.213 -24.012  0.00  0.00    +0.149 C 
BRANCH  14  17
ATOM     15  O   UNL     1      32.115 -14.982 -21.464  0.00  0.00    -0.269 OA
ATOM     16  O   UNL     1      33.846 -12.361 -24.869  0.00  0.00    -0.269 OA
ATOM     17  N   UNL     1      33.135 -14.024 -23.357  0.00  0.00    -0.219 N 
ATOM     18  C   UNL     1      32.128 -12.646 -21.868  0.00  0.00    +0.058 C 
ATOM     19  C   UNL     1      32.646 -11.863 -22.888  0.00  0.00    +0.058 C 
ATOM     20  C   UNL     1      32.437 -14.043 -22.168  0.00  0.00    +0.255 C 
ATOM     21  C   UNL     1      33.296 -12.747 -23.855  0.00  0.00    +0.255 C 
ATOM     22  C   UNL     1      31.450 -12.099 -20.798  0.00  0.00    +0.005 C 
ATOM     23  C   UNL     1      32.515 -10.489 -22.893  0.00  0.00    +0.005 C 
ATOM     24  C   UNL     1      31.305 -10.708 -20.782  0.00  0.00    +0.000 C 
ATOM     25  C   UNL     1      31.832  -9.911 -21.818  0.00  0.00    +0.000 C 
ENDBRANCH  14  17
ENDBRANCH   1  14
TORSDOF 6
ENDMDL
MODEL 3
REMARK VINA RESULT:     -10.0      4.821      8.600
REMARK  Name = 5278689
REMARK  6 active torsions:
REMARK  status: ('A' for Active; 'I' for Inactive)
REMARK    1  A    between atoms: C_1  and  O_2
REMARK    2  A    between atoms: C_1  and  C_14
REMARK    3  A    between atoms: O_2  and  C_4
REMARK    4  A    between atoms: C_4  and  N_5
REMARK    5  A    between atoms: N_5  and  C_8
REMARK    6  A    between atoms: C_14  and  N_17
REMARK                            x       y       z     vdW  Elec       q    Type
REMARK                         _______ _______ _______ _____ _____    ______ ____
ROOT
ATOM      1  C   UNL     1      33.732 -13.272 -26.767  0.00  0.00    +0.229 C 
ENDROOT
BRANCH   1   2
ATOM      2  O   UNL     1      33.458 -11.998 -26.200  0.00  0.00    -0.456 OA
BRANCH   2   4
ATOM      3  S   UNL     1      35.693 -10.555 -26.440  0.00  0.00    +0.006 S 
ATOM      4  C   UNL     1      34.394 -11.196 -25.600  0.00  0.00    +0.233 C 
BRANCH   4   5
ATOM      5  N   UNL     1      34.234 -10.921 -24.256  0.00  0.00    -0.278 N 
ATOM      6  H   UNL     1      34.566 -11.627 -23.654  0.00  0.00    +0.156 HD
BRANCH   5   8
ATOM      7 BR   UNL     1      31.848  -6.117 -21.405  0.00  0.00    -0.049 Br
ATOM      8  C   UNL     1      33.678  -9.801 -23.591  0.00  0.00    +0.051 C 
ATOM      9  C   UNL     1      32.480  -9.944 -22.911  0.00  0.00    +0.015 C 
ATOM     10  C   UNL     1      34.344  -8.589 -23.636  0.00  0.00    +0.015 C 
ATOM     11  C   UNL     1      31.932  -8.841 -22.256  0.00  0.00    +0.008 C 
ATOM     12  C   UNL     1      33.797  -7.485 -22.981  0.00  0.00    +0.008 C 
ATOM     13  C   UNL     1      32.591  -7.612 -22.291  0.00  0.00    +0.035 C 
ENDBRANCH   5   8
ENDBRANCH   4   5
ENDBRANCH   2   4
ENDBRANCH   1   2
BRANCH   1  14
ATOM     14  C   UNL     1      32.787 -14.302 -26.174  0.00  0.00    +0.149 C 
BRANCH  14  17
ATOM     15  O   UNL     1      32.568 -13.425 -23.334  0.00  0.00    -0.269 OA
ATOM     16  O   UNL     1      34.462 -16.759 -25.931  0.00  0.00    -0.269 OA
ATOM     17  N   UNL     1      33.345 -14.913 -24.984  0.00  0.00    -0.219 N 
ATOM     18  C   UNL     1      33.883 -15.330 -22.824  0.00  0.00    +0.058 C 
ATOM     19  C   UNL     1      34.450 -16.327 -23.602  0.00  0.00    +0.058 C 
ATOM     20  C   UNL     1      33.171 -14.411 -23.711  0.00  0.00    +0.255 C 
ATOM     21  C   UNL     1      34.109 -16.062 -25.000  0.00  0.00    +0.255 C 
ATOM     22  C   UNL     1      34.029 -15.301 -21.452  0.00  0.00    +0.005 C 
ATOM     23  C   UNL     1      35.193 -17.351 -23.051  0.00  0.00    +0.005 C 
ATOM     24  C   UNL     1      34.777 -16.329 -20.871  0.00  0.00    +0.000 C 
ATOM     25  C   UNL     1      35.354 -17.344 -21.662  0.00  0.00    +0.000 C 
ENDBRANCH  14  17
ENDBRANCH   1  14
TORSDOF 6
ENDMDL
MODEL 4
REMARK VINA RESULT:     -10.0      4.845      8.612
REMARK  Name = 5278689
REMARK  6 active torsions:
REMARK  status: ('A' for Active; 'I' for Inactive)
REMARK    1  A    between atoms: C_1  and  O_2
REMARK    2  A    between atoms: C_1  and  C_14
REMARK    3  A    between atoms: O_2  and  C_4
REMARK    4  A    between atoms: C_4  and  N_5
REMARK    5  A    between atoms: N_5  and  C_8
REMARK    6  A    between atoms: C_14  and  N_17
REMARK                            x       y       z     vdW  Elec       q    Type
REMARK                         _______ _______ _______ _____ _____    ______ ____
ROOT
ATOM      1  C   UNL     1      33.727 -13.249 -26.776  0.00  0.00    +0.229 C 
ENDROOT
BRANCH   1   2
ATOM      2  O   UNL     1      33.453 -11.986 -26.185  0.00  0.00    -0.456 OA
BRANCH   2   4
ATOM      3  S   UNL     1      35.704 -10.567 -26.422  0.00  0.00    +0.006 S 
ATOM      4  C   UNL     1      34.393 -11.188 -25.586  0.00  0.00    +0.233 C 
BRANCH   4   5
ATOM      5  N   UNL     1      34.226 -10.899 -24.246  0.00  0.00    -0.278 N 
ATOM      6  H   UNL     1      34.555 -11.599 -23.635  0.00  0.00    +0.156 HD
BRANCH   5   8
ATOM      7 BR   UNL     1      31.821  -6.068 -21.458  0.00  0.00    -0.049 Br
ATOM      8  C   UNL     1      33.666  -9.772 -23.595  0.00  0.00    +0.051 C 
ATOM      9  C   UNL     1      34.337  -8.563 -23.640  0.00  0.00    +0.015 C 
ATOM     10  C   UNL     1      32.459  -9.907 -22.931  0.00  0.00    +0.015 C 
ATOM     11  C   UNL     1      33.785  -7.453 -23.001  0.00  0.00    +0.008 C 
ATOM     12  C   UNL     1      31.906  -8.798 -22.291  0.00  0.00    +0.008 C 
ATOM     13  C   UNL     1      32.569  -7.570 -22.326  0.00  0.00    +0.035 C 
ENDBRANCH   5   8
ENDBRANCH   4   5
ENDBRANCH   2   4
ENDBRANCH   1   2
BRANCH   1  14
ATOM     14  C   UNL     1      32.787 -14.291 -26.199  0.00  0.00    +0.149 C 
BRANCH  14  17
ATOM     15  O   UNL     1      34.452 -16.748 -25.929  0.00  0.00    -0.269 OA
ATOM     16  O   UNL     1      32.532 -13.407 -23.360  0.00  0.00    -0.269 OA
ATOM     17  N   UNL     1      33.335 -14.896 -25.001  0.00  0.00    -0.219 N 
ATOM     18  C   UNL     1      34.445 -16.290 -23.604  0.00  0.00    +0.058 C 
ATOM     19  C   UNL     1      33.870 -15.290 -22.836  0.00  0.00    +0.058 C 
ATOM     20  C   UNL     1      34.100 -16.044 -25.003  0.00  0.00    +0.255 C 
ATOM     21  C   UNL     1      33.148 -14.387 -23.732  0.00  0.00    +0.255 C 
ATOM     22  C   UNL     1      35.197 -17.303 -23.042  0.00  0.00    +0.005 C 
ATOM     23  C   UNL     1      34.016 -15.247 -21.464  0.00  0.00    +0.005 C 
ATOM     24  C   UNL     1      35.358 -17.279 -21.654  0.00  0.00    +0.000 C 
ATOM     25  C   UNL     1      34.774 -16.262 -20.872  0.00  0.00    +0.000 C 
ENDBRANCH  14  17
ENDBRANCH   1  14
TORSDOF 6
ENDMDL
MODEL 5
REMARK VINA RESULT:      -9.8      1.645      2.714
REMARK  Name = 5278689
REMARK  6 active torsions:
REMARK  status: ('A' for Active; 'I' for Inactive)
REMARK    1  A    between atoms: C_1  and  O_2
REMARK    2  A    between atoms: C_1  and  C_14
REMARK    3  A    between atoms: O_2  and  C_4
REMARK    4  A    between atoms: C_4  and  N_5
REMARK    5  A    between atoms: N_5  and  C_8
REMARK    6  A    between atoms: C_14  and  N_17
REMARK                            x       y       z     vdW  Elec       q    Type
REMARK                         _______ _______ _______ _____ _____    ______ ____
ROOT
ATOM      1  C   UNL     1      34.230 -14.193 -23.031  0.00  0.00    +0.229 C 
ENDROOT
BRANCH   1   2
ATOM      2  O   UNL     1      33.805 -15.547 -22.955  0.00  0.00    -0.456 OA
BRANCH   2   4
ATOM      3  S   UNL     1      34.687 -17.207 -24.852  0.00  0.00    +0.006 S 
ATOM      4  C   UNL     1      34.582 -16.626 -23.285  0.00  0.00    +0.233 C 
BRANCH   4   5
ATOM      5  N   UNL     1      35.296 -17.235 -22.272  0.00  0.00    -0.278 N 
ATOM      6  H   UNL     1      36.121 -16.762 -22.015  0.00  0.00    +0.156 HD
BRANCH   5   8
ATOM      7 BR   UNL     1      34.233 -22.318 -19.120  0.00  0.00    -0.049 Br
ATOM      8  C   UNL     1      35.048 -18.420 -21.536  0.00  0.00    +0.051 C 
ATOM      9  C   UNL     1      33.740 -18.810 -21.303  0.00  0.00    +0.015 C 
ATOM     10  C   UNL     1      36.119 -19.161 -21.068  0.00  0.00    +0.015 C 
ATOM     11  C   UNL     1      33.496 -19.977 -20.580  0.00  0.00    +0.008 C 
ATOM     12  C   UNL     1      35.875 -20.329 -20.345  0.00  0.00    +0.008 C 
ATOM     13  C   UNL     1      34.563 -20.737 -20.101  0.00  0.00    +0.035 C 
ENDBRANCH   5   8
ENDBRANCH   4   5
ENDBRANCH   2   4
ENDBRANCH   1   2
BRANCH   1  14
ATOM     14  C   UNL     1      33.341 -13.439 -24.004  0.00  0.00    +0.149 C 
BRANCH  14  17
ATOM     15  O   UNL     1      31.602 -12.141 -21.961  0.00  0.00    -0.269 OA
ATOM     16  O   UNL     1      34.804 -11.100 -25.142  0.00  0.00    -0.269 OA
ATOM     17  N   UNL     1      33.237 -12.037 -23.652  0.00  0.00    -0.219 N 
ATOM     18  C   UNL     1      32.610 -10.107 -22.645  0.00  0.00    +0.058 C 
ATOM     19  C   UNL     1      33.568  -9.797 -23.597  0.00  0.00    +0.058 C 
ATOM     20  C   UNL     1      32.389 -11.552 -22.678  0.00  0.00    +0.255 C 
ATOM     21  C   UNL     1      33.975 -11.039 -24.254  0.00  0.00    +0.255 C 
ATOM     22  C   UNL     1      32.025  -9.139 -21.853  0.00  0.00    +0.005 C 
ATOM     23  C   UNL     1      33.994  -8.502 -23.810  0.00  0.00    +0.005 C 
ATOM     24  C   UNL     1      32.442  -7.820 -22.051  0.00  0.00    +0.000 C 
ATOM     25  C   UNL     1      33.416  -7.504 -23.019  0.00  0.00    +0.000 C 
ENDBRANCH  14  17
ENDBRANCH   1  14
TORSDOF 6
ENDMDL
MODEL 6
REMARK VINA RESULT:      -9.7      1.711      2.451
REMARK  Name = 5278689
REMARK  6 active torsions:
REMARK  status: ('A' for Active; 'I' for Inactive)
REMARK    1  A    between atoms: C_1  and  O_2
REMARK    2  A    between atoms: C_1  and  C_14
REMARK    3  A    between atoms: O_2  and  C_4
REMARK    4  A    between atoms: C_4  and  N_5
REMARK    5  A    between atoms: N_5  and  C_8
REMARK    6  A    between atoms: C_14  and  N_17
REMARK                            x       y       z     vdW  Elec       q    Type
REMARK                         _______ _______ _______ _____ _____    ______ ____
ROOT
ATOM      1  C   UNL     1      34.214 -14.143 -23.023  0.00  0.00    +0.229 C 
ENDROOT
BRANCH   1   2
ATOM      2  O   UNL     1      33.909 -15.531 -22.994  0.00  0.00    -0.456 OA
BRANCH   2   4
ATOM      3  S   UNL     1      34.568 -16.919 -25.179  0.00  0.00    +0.006 S 
ATOM      4  C   UNL     1      34.685 -16.509 -23.559  0.00  0.00    +0.233 C 
BRANCH   4   5
ATOM      5  N   UNL     1      35.587 -17.163 -22.743  0.00  0.00    -0.278 N 
ATOM      6  H   UNL     1      36.492 -16.776 -22.746  0.00  0.00    +0.156 HD
BRANCH   5   8
ATOM      7 BR   UNL     1      34.943 -22.005 -19.131  0.00  0.00    -0.049 Br
ATOM      8  C   UNL     1      35.437 -18.292 -21.901  0.00  0.00    +0.051 C 
ATOM      9  C   UNL     1      36.556 -18.838 -21.296  0.00  0.00    +0.015 C 
ATOM     10  C   UNL     1      34.175 -18.824 -21.702  0.00  0.00    +0.015 C 
ATOM     11  C   UNL     1      36.409 -19.949 -20.466  0.00  0.00    +0.008 C 
ATOM     12  C   UNL     1      34.026 -19.936 -20.873  0.00  0.00    +0.008 C 
ATOM     13  C   UNL     1      35.144 -20.498 -20.254  0.00  0.00    +0.035 C 
ENDBRANCH   5   8
ENDBRANCH   4   5
ENDBRANCH   2   4
ENDBRANCH   1   2
BRANCH   1  14
ATOM     14  C   UNL     1      33.186 -13.418 -23.873  0.00  0.00    +0.149 C 
BRANCH  14  17
ATOM     15  O   UNL     1      34.673 -11.133 -25.077  0.00  0.00    -0.269 OA
ATOM     16  O   UNL     1      31.534 -12.051 -21.797  0.00  0.00    -0.269 OA
ATOM     17  N   UNL     1      33.120 -12.009 -23.540  0.00  0.00    -0.219 N 
ATOM     18  C   UNL     1      33.483  -9.773 -23.543  0.00  0.00    +0.058 C 
ATOM     19  C   UNL     1      32.544 -10.049 -22.562  0.00  0.00    +0.058 C 
ATOM     20  C   UNL     1      33.862 -11.035 -24.176  0.00  0.00    +0.255 C 
ATOM     21  C   UNL     1      32.307 -11.492 -22.552  0.00  0.00    +0.255 C 
ATOM     22  C   UNL     1      33.920  -8.489 -23.797  0.00  0.00    +0.005 C 
ATOM     23  C   UNL     1      31.989  -9.055 -21.781  0.00  0.00    +0.005 C 
ATOM     24  C   UNL     1      33.371  -7.465 -23.019  0.00  0.00    +0.000 C 
ATOM     25  C   UNL     1      32.416  -7.745 -22.020  0.00  0.00    +0.000 C 
ENDBRANCH  14  17
ENDBRANCH   1  14
TORSDOF 6
ENDMDL
MODEL 7
REMARK VINA RESULT:      -9.7      6.825      9.549
REMARK  Name = 5278689
REMARK  6 active torsions:
REMARK  status: ('A' for Active; 'I' for Inactive)
REMARK    1  A    between atoms: C_1  and  O_2
REMARK    2  A    between atoms: C_1  and  C_14
REMARK    3  A    between atoms: O_2  and  C_4
REMARK    4  A    between atoms: C_4  and  N_5
REMARK    5  A    between atoms: N_5  and  C_8
REMARK    6  A    between atoms: C_14  and  N_17
REMARK                            x       y       z     vdW  Elec       q    Type
REMARK                         _______ _______ _______ _____ _____    ______ ____
ROOT
ATOM      1  C   UNL     1      34.764 -23.153 -15.912  0.00  0.00    +0.229 C 
ENDROOT
BRANCH   1   2
ATOM      2  O   UNL     1      34.758 -24.319 -15.100  0.00  0.00    -0.456 OA
BRANCH   2   4
ATOM      3  S   UNL     1      35.392 -23.984 -12.527  0.00  0.00    +0.006 S 
ATOM      4  C   UNL     1      34.356 -24.352 -13.789  0.00  0.00    +0.233 C 
BRANCH   4   5
ATOM      5  N   UNL     1      33.045 -24.702 -13.531  0.00  0.00    -0.278 N 
ATOM      6  H   UNL     1      32.936 -25.365 -12.811  0.00  0.00    +0.156 HD
BRANCH   5   8
ATOM      7 BR   UNL     1      27.835 -22.862 -16.054  0.00  0.00    -0.049 Br
ATOM      8  C   UNL     1      31.830 -24.273 -14.120  0.00  0.00    +0.051 C 
ATOM      9  C   UNL     1      30.892 -25.218 -14.498  0.00  0.00    +0.015 C 
ATOM     10  C   UNL     1      31.610 -22.919 -14.303  0.00  0.00    +0.015 C 
ATOM     11  C   UNL     1      29.695 -24.795 -15.077  0.00  0.00    +0.008 C 
ATOM     12  C   UNL     1      30.413 -22.496 -14.882  0.00  0.00    +0.008 C 
ATOM     13  C   UNL     1      29.456 -23.434 -15.269  0.00  0.00    +0.035 C 
ENDBRANCH   5   8
ENDBRANCH   4   5
ENDBRANCH   2   4
ENDBRANCH   1   2
BRANCH   1  14
ATOM     14  C   UNL     1      34.229 -23.495 -17.290  0.00  0.00    +0.149 C 
BRANCH  14  17
ATOM     15  O   UNL     1      36.863 -22.278 -17.970  0.00  0.00    -0.269 OA
ATOM     16  O   UNL     1      32.379 -22.007 -19.098  0.00  0.00    -0.269 OA
ATOM     17  N   UNL     1      34.532 -22.455 -18.253  0.00  0.00    -0.219 N 
ATOM     18  C   UNL     1      35.657 -20.954 -19.523  0.00  0.00    +0.058 C 
ATOM     19  C   UNL     1      34.315 -20.873 -19.859  0.00  0.00    +0.058 C 
ATOM     20  C   UNL     1      35.803 -21.971 -18.482  0.00  0.00    +0.255 C 
ATOM     21  C   UNL     1      33.582 -21.838 -19.040  0.00  0.00    +0.255 C 
ATOM     22  C   UNL     1      36.611 -20.161 -20.127  0.00  0.00    +0.005 C 
ATOM     23  C   UNL     1      33.853 -19.996 -20.819  0.00  0.00    +0.005 C 
ATOM     24  C   UNL     1      36.167 -19.264 -21.103  0.00  0.00    +0.000 C 
ATOM     25  C   UNL     1      34.802 -19.182 -21.446  0.00  0.00    +0.000 C 
ENDBRANCH  14  17
ENDBRANCH   1  14
TORSDOF 6
ENDMDL
MODEL 8
REMARK VINA RESULT:      -9.7      2.475      3.741
REMARK  Name = 5278689
REMARK  6 active torsions:
REMARK  status: ('A' for Active; 'I' for Inactive)
REMARK    1  A    between atoms: C_1  and  O_2
REMARK    2  A    between atoms: C_1  and  C_14
REMARK    3  A    between atoms: O_2  and  C_4
REMARK    4  A    between atoms: C_4  and  N_5
REMARK    5  A    between atoms: N_5  and  C_8
REMARK    6  A    between atoms: C_14  and  N_17
REMARK                            x       y       z     vdW  Elec       q    Type
REMARK                         _______ _______ _______ _____ _____    ______ ____
ROOT
ATOM      1  C   UNL     1      35.306 -19.204 -22.330  0.00  0.00    +0.229 C 
ENDROOT
BRANCH   1   2
ATOM      2  O   UNL     1      35.458 -19.616 -20.978  0.00  0.00    -0.456 OA
BRANCH   2   4
ATOM      3  S   UNL     1      33.004 -20.384 -20.254  0.00  0.00    +0.006 S 
ATOM      4  C   UNL     1      34.668 -20.547 -20.355  0.00  0.00    +0.233 C 
BRANCH   4   5
ATOM      5  N   UNL     1      35.290 -21.649 -19.803  0.00  0.00    -0.278 N 
ATOM      6  H   UNL     1      35.689 -22.263 -20.462  0.00  0.00    +0.156 HD
BRANCH   5   8
ATOM      7 BR   UNL     1      36.001 -23.369 -14.021  0.00  0.00    -0.049 Br
ATOM      8  C   UNL     1      35.456 -22.050 -18.455  0.00  0.00    +0.051 C 
ATOM      9  C   UNL     1      36.650 -21.776 -17.810  0.00  0.00    +0.015 C 
ATOM     10  C   UNL     1      34.421 -22.707 -17.813  0.00  0.00    +0.015 C 
ATOM     11  C   UNL     1      36.813 -22.170 -16.482  0.00  0.00    +0.008 C 
ATOM     12  C   UNL     1      34.584 -23.102 -16.485  0.00  0.00    +0.008 C 
ATOM     13  C   UNL     1      35.780 -22.833 -15.819  0.00  0.00    +0.035 C 
ENDBRANCH   5   8
ENDBRANCH   4   5
ENDBRANCH   2   4
ENDBRANCH   1   2
BRANCH   1  14
ATOM     14  C   UNL     1      36.045 -17.896 -22.544  0.00  0.00    +0.149 C 
BRANCH  14  17
ATOM     15  O   UNL     1      34.750 -16.385 -24.763  0.00  0.00    -0.269 OA
ATOM     16  O   UNL     1      35.022 -16.455 -20.140  0.00  0.00    -0.269 OA
ATOM     17  N   UNL     1      35.148 -16.760 -22.473  0.00  0.00    -0.219 N 
ATOM     18  C   UNL     1      33.764 -15.066 -23.059  0.00  0.00    +0.058 C 
ATOM     19  C   UNL     1      33.846 -15.087 -21.675  0.00  0.00    +0.058 C 
ATOM     20  C   UNL     1      34.606 -16.141 -23.580  0.00  0.00    +0.255 C 
ATOM     21  C   UNL     1      34.742 -16.178 -21.290  0.00  0.00    +0.255 C 
ATOM     22  C   UNL     1      32.990 -14.141 -23.731  0.00  0.00    +0.005 C 
ATOM     23  C   UNL     1      33.159 -14.186 -20.888  0.00  0.00    +0.005 C 
ATOM     24  C   UNL     1      32.285 -13.218 -22.954  0.00  0.00    +0.000 C 
ATOM     25  C   UNL     1      32.368 -13.239 -21.547  0.00  0.00    +0.000 C 
ENDBRANCH  14  17
ENDBRANCH   1  14
TORSDOF 6
ENDMDL
MODEL 9
REMARK VINA RESULT:      -9.6      6.906      9.448
REMARK  Name = 5278689
REMARK  6 active torsions:
REMARK  status: ('A' for Active; 'I' for Inactive)
REMARK    1  A    between atoms: C_1  and  O_2
REMARK    2  A    between atoms: C_1  and  C_14
REMARK    3  A    between atoms: O_2  and  C_4
REMARK    4  A    between atoms: C_4  and  N_5
REMARK    5  A    between atoms: N_5  and  C_8
REMARK    6  A    between atoms: C_14  and  N_17
REMARK                            x       y       z     vdW  Elec       q    Type
REMARK                         _______ _______ _______ _____ _____    ______ ____
ROOT
ATOM      1  C   UNL     1      35.895 -22.852 -15.989  0.00  0.00    +0.229 C 
ENDROOT
BRANCH   1   2
ATOM      2  O   UNL     1      35.353 -22.708 -14.684  0.00  0.00    -0.456 OA
BRANCH   2   4
ATOM      3  S   UNL     1      36.224 -24.898 -13.428  0.00  0.00    +0.006 S 
ATOM      4  C   UNL     1      35.077 -23.749 -13.836  0.00  0.00    +0.233 C 
BRANCH   4   5
ATOM      5  N   UNL     1      33.801 -23.827 -13.313  0.00  0.00    -0.278 N 
ATOM      6  H   UNL     1      33.765 -23.828 -12.329  0.00  0.00    +0.156 HD
BRANCH   5   8
ATOM      7 BR   UNL     1      28.375 -24.166 -16.022  0.00  0.00    -0.049 Br
ATOM      8  C   UNL     1      32.536 -23.906 -13.945  0.00  0.00    +0.051 C 
ATOM      9  C   UNL     1      31.822 -25.091 -13.883  0.00  0.00    +0.015 C 
ATOM     10  C   UNL     1      32.042 -22.798 -14.609  0.00  0.00    +0.015 C 
ATOM     11  C   UNL     1      30.576 -25.169 -14.505  0.00  0.00    +0.008 C 
ATOM     12  C   UNL     1      30.795 -22.875 -15.231  0.00  0.00    +0.008 C 
ATOM     13  C   UNL     1      30.062 -24.061 -15.179  0.00  0.00    +0.035 C 
ENDBRANCH   5   8
ENDBRANCH   4   5
ENDBRANCH   2   4
ENDBRANCH   1   2
BRANCH   1  14
ATOM     14  C   UNL     1      34.800 -23.289 -16.945  0.00  0.00    +0.149 C 
BRANCH  14  17
ATOM     15  O   UNL     1      32.339 -22.361 -18.347  0.00  0.00    -0.269 OA
ATOM     16  O   UNL     1      36.943 -21.862 -18.454  0.00  0.00    -0.269 OA
ATOM     17  N   UNL     1      34.677 -22.378 -18.065  0.00  0.00    -0.219 N 
ATOM     18  C   UNL     1      33.803 -21.088 -19.709  0.00  0.00    +0.058 C 
ATOM     19  C   UNL     1      35.181 -20.940 -19.741  0.00  0.00    +0.058 C 
ATOM     20  C   UNL     1      33.471 -22.018 -18.632  0.00  0.00    +0.255 C 
ATOM     21  C   UNL     1      35.752 -21.773 -18.683  0.00  0.00    +0.255 C 
ATOM     22  C   UNL     1      32.976 -20.424 -20.593  0.00  0.00    +0.005 C 
ATOM     23  C   UNL     1      35.808 -20.119 -20.657  0.00  0.00    +0.005 C 
ATOM     24  C   UNL     1      33.589 -19.587 -21.531  0.00  0.00    +0.000 C 
ATOM     25  C   UNL     1      34.990 -19.436 -21.562  0.00  0.00    +0.000 C 
ENDBRANCH  14  17
ENDBRANCH   1  14
TORSDOF 6
ENDMDL
