MODEL 1
REMARK VINA RESULT:      -7.5      0.000      0.000
REMARK  Name = 24748045
REMARK  8 active torsions:
REMARK  status: ('A' for Active; 'I' for Inactive)
REMARK    1  A    between atoms: C_1  and  C_2
REMARK    2  A    between atoms: C_1  and  C_10
REMARK    3  A    between atoms: C_2  and  C_3
REMARK    4  A    between atoms: C_3  and  C_4
REMARK    5  A    between atoms: C_10  and  C_12
REMARK    6  A    between atoms: C_10  and  C_15
REMARK    7  A    between atoms: C_12  and  O_13
REMARK    8  A    between atoms: C_15  and  S_16
REMARK                            x       y       z     vdW  Elec       q    Type
REMARK                         _______ _______ _______ _____ _____    ______ ____
ROOT
ATOM      1  C   UNL     1      35.346 -17.642 -23.443  0.00  0.00    +0.012 C 
ENDROOT
BRANCH   1   2
ATOM      2  C   UNL     1      35.374 -17.628 -21.908  0.00  0.00    +0.005 C 
BRANCH   2   3
ATOM      3  C   UNL     1      36.158 -18.805 -21.314  0.00  0.00    +0.026 C 
BRANCH   3   4
ATOM      4  C   UNL     1      35.290 -19.844 -20.649  0.00  0.00    -0.022 C 
ATOM      5  C   UNL     1      35.877 -20.890 -19.937  0.00  0.00    -0.004 C 
ATOM      6  C   UNL     1      33.901 -19.758 -20.745  0.00  0.00    -0.004 C 
ATOM      7  C   UNL     1      35.075 -21.851 -19.322  0.00  0.00    -0.000 C 
ATOM      8  C   UNL     1      33.099 -20.719 -20.130  0.00  0.00    -0.000 C 
ATOM      9  C   UNL     1      33.686 -21.766 -19.419  0.00  0.00    -0.000 C 
ENDBRANCH   3   4
ENDBRANCH   2   3
ENDBRANCH   1   2
BRANCH   1  10
ATOM     10  C   UNL     1      34.851 -16.310 -24.040  0.00  0.00    +0.109 C 
BRANCH  10  12
ATOM     11  O   UNL     1      33.899 -15.713 -26.199  0.00  0.00    -0.250 OA
ATOM     12  C   UNL     1      34.178 -16.579 -25.379  0.00  0.00    +0.314 C 
BRANCH  12  13
ATOM     13  O   UNL     1      33.900 -17.893 -25.572  0.00  0.00    -0.480 OA
ATOM     14  H   UNL     1      34.589 -18.527 -25.538  0.00  0.00    +0.295 HD
ENDBRANCH  12  13
ENDBRANCH  10  12
BRANCH  10  15
ATOM     15  C   UNL     1      33.865 -15.634 -23.074  0.00  0.00    +0.064 C 
BRANCH  15  16
ATOM     16  S   UNL     1      33.940 -13.816 -23.172  0.00  0.00    -0.167 S 
ATOM     17  H   UNL     1      32.714 -13.296 -22.897  0.00  0.00    +0.102 HD
ENDBRANCH  15  16
ENDBRANCH  10  15
ENDBRANCH   1  10
TORSDOF 8
ENDMDL
MODEL 2
REMARK VINA RESULT:      -7.4      1.477      1.804
REMARK  Name = 24748045
REMARK  8 active torsions:
REMARK  status: ('A' for Active; 'I' for Inactive)
REMARK    1  A    between atoms: C_1  and  C_2
REMARK    2  A    between atoms: C_1  and  C_10
REMARK    3  A    between atoms: C_2  and  C_3
REMARK    4  A    between atoms: C_3  and  C_4
REMARK    5  A    between atoms: C_10  and  C_12
REMARK    6  A    between atoms: C_10  and  C_15
REMARK    7  A    between atoms: C_12  and  O_13
REMARK    8  A    between atoms: C_15  and  S_16
REMARK                            x       y       z     vdW  Elec       q    Type
REMARK                         _______ _______ _______ _____ _____    ______ ____
ROOT
ATOM      1  C   UNL     1      34.707 -16.431 -21.048  0.00  0.00    +0.012 C 
ENDROOT
BRANCH   1   2
ATOM      2  C   UNL     1      33.911 -17.728 -21.252  0.00  0.00    +0.005 C 
BRANCH   2   3
ATOM      3  C   UNL     1      34.800 -18.925 -21.610  0.00  0.00    +0.026 C 
BRANCH   3   4
ATOM      4  C   UNL     1      34.686 -20.081 -20.648  0.00  0.00    -0.022 C 
ATOM      5  C   UNL     1      35.836 -20.716 -20.182  0.00  0.00    -0.004 C 
ATOM      6  C   UNL     1      33.429 -20.513 -20.223  0.00  0.00    -0.004 C 
ATOM      7  C   UNL     1      35.731 -21.786 -19.293  0.00  0.00    -0.000 C 
ATOM      8  C   UNL     1      33.323 -21.582 -19.333  0.00  0.00    -0.000 C 
ATOM      9  C   UNL     1      34.474 -22.218 -18.868  0.00  0.00    -0.000 C 
ENDBRANCH   3   4
ENDBRANCH   2   3
ENDBRANCH   1   2
BRANCH   1  10
ATOM     10  C   UNL     1      34.238 -15.295 -21.978  0.00  0.00    +0.109 C 
BRANCH  10  12
ATOM     11  O   UNL     1      33.664 -15.640 -24.318  0.00  0.00    -0.250 OA
ATOM     12  C   UNL     1      34.501 -15.689 -23.425  0.00  0.00    +0.314 C 
BRANCH  12  13
ATOM     13  O   UNL     1      35.771 -16.121 -23.630  0.00  0.00    -0.480 OA
ATOM     14  H   UNL     1      36.466 -15.501 -23.728  0.00  0.00    +0.295 HD
ENDBRANCH  12  13
ENDBRANCH  10  12
BRANCH  10  15
ATOM     15  C   UNL     1      32.741 -15.022 -21.763  0.00  0.00    +0.064 C 
BRANCH  15  16
ATOM     16  S   UNL     1      32.326 -13.258 -21.959  0.00  0.00    -0.167 S 
ATOM     17  H   UNL     1      32.352 -12.930 -23.278  0.00  0.00    +0.102 HD
ENDBRANCH  15  16
ENDBRANCH  10  15
ENDBRANCH   1  10
TORSDOF 8
ENDMDL
MODEL 3
REMARK VINA RESULT:      -7.3      2.397      2.655
REMARK  Name = 24748045
REMARK  8 active torsions:
REMARK  status: ('A' for Active; 'I' for Inactive)
REMARK    1  A    between atoms: C_1  and  C_2
REMARK    2  A    between atoms: C_1  and  C_10
REMARK    3  A    between atoms: C_2  and  C_3
REMARK    4  A    between atoms: C_3  and  C_4
REMARK    5  A    between atoms: C_10  and  C_12
REMARK    6  A    between atoms: C_10  and  C_15
REMARK    7  A    between atoms: C_12  and  O_13
REMARK    8  A    between atoms: C_15  and  S_16
REMARK                            x       y       z     vdW  Elec       q    Type
REMARK                         _______ _______ _______ _____ _____    ______ ____
ROOT
ATOM      1  C   UNL     1      35.285 -16.450 -22.883  0.00  0.00    +0.012 C 
ENDROOT
BRANCH   1   2
ATOM      2  C   UNL     1      35.242 -17.981 -22.982  0.00  0.00    +0.005 C 
BRANCH   2   3
ATOM      3  C   UNL     1      35.960 -18.675 -21.817  0.00  0.00    +0.026 C 
BRANCH   3   4
ATOM      4  C   UNL     1      35.078 -19.608 -21.025  0.00  0.00    -0.022 C 
ATOM      5  C   UNL     1      35.648 -20.639 -20.278  0.00  0.00    -0.004 C 
ATOM      6  C   UNL     1      33.694 -19.439 -21.038  0.00  0.00    -0.004 C 
ATOM      7  C   UNL     1      34.833 -21.502 -19.545  0.00  0.00    -0.000 C 
ATOM      8  C   UNL     1      32.878 -20.301 -20.305  0.00  0.00    -0.000 C 
ATOM      9  C   UNL     1      33.449 -21.333 -19.559  0.00  0.00    -0.000 C 
ENDBRANCH   3   4
ENDBRANCH   2   3
ENDBRANCH   1   2
BRANCH   1  10
ATOM     10  C   UNL     1      33.931 -15.845 -22.462  0.00  0.00    +0.109 C 
BRANCH  10  12
ATOM     11  O   UNL     1      34.940 -15.670 -20.254  0.00  0.00    -0.250 OA
ATOM     12  C   UNL     1      33.945 -15.577 -20.963  0.00  0.00    +0.314 C 
BRANCH  12  13
ATOM     13  O   UNL     1      32.725 -15.233 -20.480  0.00  0.00    -0.480 OA
ATOM     14  H   UNL     1      31.955 -15.404 -20.986  0.00  0.00    +0.295 HD
ENDBRANCH  12  13
ENDBRANCH  10  12
BRANCH  10  15
ATOM     15  C   UNL     1      33.674 -14.541 -23.234  0.00  0.00    +0.064 C 
BRANCH  15  16
ATOM     16  S   UNL     1      33.343 -14.838 -25.001  0.00  0.00    -0.167 S 
ATOM     17  H   UNL     1      34.480 -14.629 -25.717  0.00  0.00    +0.102 HD
ENDBRANCH  15  16
ENDBRANCH  10  15
ENDBRANCH   1  10
TORSDOF 8
ENDMDL
MODEL 4
REMARK VINA RESULT:      -7.3      2.340      3.046
REMARK  Name = 24748045
REMARK  8 active torsions:
REMARK  status: ('A' for Active; 'I' for Inactive)
REMARK    1  A    between atoms: C_1  and  C_2
REMARK    2  A    between atoms: C_1  and  C_10
REMARK    3  A    between atoms: C_2  and  C_3
REMARK    4  A    between atoms: C_3  and  C_4
REMARK    5  A    between atoms: C_10  and  C_12
REMARK    6  A    between atoms: C_10  and  C_15
REMARK    7  A    between atoms: C_12  and  O_13
REMARK    8  A    between atoms: C_15  and  S_16
REMARK                            x       y       z     vdW  Elec       q    Type
REMARK                         _______ _______ _______ _____ _____    ______ ____
ROOT
ATOM      1  C   UNL     1      34.784 -16.163 -21.115  0.00  0.00    +0.012 C 
ENDROOT
BRANCH   1   2
ATOM      2  C   UNL     1      35.311 -17.584 -21.357  0.00  0.00    +0.005 C 
BRANCH   2   3
ATOM      3  C   UNL     1      34.189 -18.616 -21.533  0.00  0.00    +0.026 C 
BRANCH   3   4
ATOM      4  C   UNL     1      34.357 -19.853 -20.686  0.00  0.00    -0.022 C 
ATOM      5  C   UNL     1      33.236 -20.501 -20.169  0.00  0.00    -0.004 C 
ATOM      6  C   UNL     1      35.634 -20.348 -20.422  0.00  0.00    -0.004 C 
ATOM      7  C   UNL     1      33.392 -21.645 -19.385  0.00  0.00    -0.000 C 
ATOM      8  C   UNL     1      35.790 -21.492 -19.639  0.00  0.00    -0.000 C 
ATOM      9  C   UNL     1      34.668 -22.140 -19.121  0.00  0.00    -0.000 C 
ENDBRANCH   3   4
ENDBRANCH   2   3
ENDBRANCH   1   2
BRANCH   1  10
ATOM     10  C   UNL     1      33.668 -15.768 -22.102  0.00  0.00    +0.109 C 
BRANCH  10  12
ATOM     11  O   UNL     1      32.623 -14.641 -20.215  0.00  0.00    -0.250 OA
ATOM     12  C   UNL     1      32.728 -14.778 -21.427  0.00  0.00    +0.314 C 
BRANCH  12  13
ATOM     13  O   UNL     1      31.995 -14.061 -22.315  0.00  0.00    -0.480 OA
ATOM     14  H   UNL     1      32.325 -13.908 -23.179  0.00  0.00    +0.295 HD
ENDBRANCH  12  13
ENDBRANCH  10  12
BRANCH  10  15
ATOM     15  C   UNL     1      34.279 -15.145 -23.368  0.00  0.00    +0.064 C 
BRANCH  15  16
ATOM     16  S   UNL     1      34.279 -16.302 -24.775  0.00  0.00    -0.167 S 
ATOM     17  H   UNL     1      33.801 -17.509 -24.371  0.00  0.00    +0.102 HD
ENDBRANCH  15  16
ENDBRANCH  10  15
ENDBRANCH   1  10
TORSDOF 8
ENDMDL
MODEL 5
REMARK VINA RESULT:      -7.2      6.934      9.371
REMARK  Name = 24748045
REMARK  8 active torsions:
REMARK  status: ('A' for Active; 'I' for Inactive)
REMARK    1  A    between atoms: C_1  and  C_2
REMARK    2  A    between atoms: C_1  and  C_10
REMARK    3  A    between atoms: C_2  and  C_3
REMARK    4  A    between atoms: C_3  and  C_4
REMARK    5  A    between atoms: C_10  and  C_12
REMARK    6  A    between atoms: C_10  and  C_15
REMARK    7  A    between atoms: C_12  and  O_13
REMARK    8  A    between atoms: C_15  and  S_16
REMARK                            x       y       z     vdW  Elec       q    Type
REMARK                         _______ _______ _______ _____ _____    ______ ____
ROOT
ATOM      1  C   UNL     1      31.830 -23.377 -15.864  0.00  0.00    +0.012 C 
ENDROOT
BRANCH   1   2
ATOM      2  C   UNL     1      32.076 -22.777 -17.256  0.00  0.00    +0.005 C 
BRANCH   2   3
ATOM      3  C   UNL     1      33.477 -23.084 -17.800  0.00  0.00    +0.026 C 
BRANCH   3   4
ATOM      4  C   UNL     1      33.982 -22.071 -18.796  0.00  0.00    -0.022 C 
ATOM      5  C   UNL     1      35.351 -21.941 -19.026  0.00  0.00    -0.004 C 
ATOM      6  C   UNL     1      33.078 -21.263 -19.488  0.00  0.00    -0.004 C 
ATOM      7  C   UNL     1      35.818 -21.004 -19.948  0.00  0.00    -0.000 C 
ATOM      8  C   UNL     1      33.545 -20.326 -20.410  0.00  0.00    -0.000 C 
ATOM      9  C   UNL     1      34.915 -20.196 -20.639  0.00  0.00    -0.000 C 
ENDBRANCH   3   4
ENDBRANCH   2   3
ENDBRANCH   1   2
BRANCH   1  10
ATOM     10  C   UNL     1      30.410 -23.958 -15.711  0.00  0.00    +0.109 C 
BRANCH  10  12
ATOM     11  O   UNL     1      31.438 -25.483 -14.117  0.00  0.00    -0.250 OA
ATOM     12  C   UNL     1      30.422 -25.035 -14.636  0.00  0.00    +0.314 C 
BRANCH  12  13
ATOM     13  O   UNL     1      29.178 -25.468 -14.312  0.00  0.00    -0.480 OA
ATOM     14  H   UNL     1      29.065 -26.296 -13.888  0.00  0.00    +0.295 HD
ENDBRANCH  12  13
ENDBRANCH  10  12
BRANCH  10  15
ATOM     15  C   UNL     1      29.421 -22.842 -15.338  0.00  0.00    +0.064 C 
BRANCH  15  16
ATOM     16  S   UNL     1      28.021 -22.743 -16.500  0.00  0.00    -0.167 S 
ATOM     17  H   UNL     1      26.972 -22.125 -15.894  0.00  0.00    +0.102 HD
ENDBRANCH  15  16
ENDBRANCH  10  15
ENDBRANCH   1  10
TORSDOF 8
ENDMDL
MODEL 6
REMARK VINA RESULT:      -7.1      6.957      9.465
REMARK  Name = 24748045
REMARK  8 active torsions:
REMARK  status: ('A' for Active; 'I' for Inactive)
REMARK    1  A    between atoms: C_1  and  C_2
REMARK    2  A    between atoms: C_1  and  C_10
REMARK    3  A    between atoms: C_2  and  C_3
REMARK    4  A    between atoms: C_3  and  C_4
REMARK    5  A    between atoms: C_10  and  C_12
REMARK    6  A    between atoms: C_10  and  C_15
REMARK    7  A    between atoms: C_12  and  O_13
REMARK    8  A    between atoms: C_15  and  S_16
REMARK                            x       y       z     vdW  Elec       q    Type
REMARK                         _______ _______ _______ _____ _____    ______ ____
ROOT
ATOM      1  C   UNL     1      32.698 -23.343 -15.701  0.00  0.00    +0.012 C 
ENDROOT
BRANCH   1   2
ATOM      2  C   UNL     1      32.517 -23.028 -17.193  0.00  0.00    +0.005 C 
BRANCH   2   3
ATOM      3  C   UNL     1      33.819 -23.153 -17.993  0.00  0.00    +0.026 C 
BRANCH   3   4
ATOM      4  C   UNL     1      34.046 -22.028 -18.971  0.00  0.00    -0.022 C 
ATOM      5  C   UNL     1      35.338 -21.728 -19.401  0.00  0.00    -0.004 C 
ATOM      6  C   UNL     1      32.963 -21.289 -19.448  0.00  0.00    -0.004 C 
ATOM      7  C   UNL     1      35.548 -20.687 -20.306  0.00  0.00    -0.000 C 
ATOM      8  C   UNL     1      33.172 -20.249 -20.353  0.00  0.00    -0.000 C 
ATOM      9  C   UNL     1      34.465 -19.948 -20.782  0.00  0.00    -0.000 C 
ENDBRANCH   3   4
ENDBRANCH   2   3
ENDBRANCH   1   2
BRANCH   1  10
ATOM     10  C   UNL     1      31.433 -23.953 -15.066  0.00  0.00    +0.109 C 
BRANCH  10  12
ATOM     11  O   UNL     1      32.920 -24.582 -13.245  0.00  0.00    -0.250 OA
ATOM     12  C   UNL     1      31.785 -24.529 -13.701  0.00  0.00    +0.314 C 
BRANCH  12  13
ATOM     13  O   UNL     1      30.700 -25.000 -13.034  0.00  0.00    -0.480 OA
ATOM     14  H   UNL     1      30.586 -25.922 -12.918  0.00  0.00    +0.295 HD
ENDBRANCH  12  13
ENDBRANCH  10  12
BRANCH  10  15
ATOM     15  C   UNL     1      30.342 -22.879 -14.926  0.00  0.00    +0.064 C 
BRANCH  15  16
ATOM     16  S   UNL     1      28.787 -23.363 -15.742  0.00  0.00    -0.167 S 
ATOM     17  H   UNL     1      27.754 -22.664 -15.201  0.00  0.00    +0.102 HD
ENDBRANCH  15  16
ENDBRANCH  10  15
ENDBRANCH   1  10
TORSDOF 8
ENDMDL
MODEL 7
REMARK VINA RESULT:      -6.9      6.448      8.934
REMARK  Name = 24748045
REMARK  8 active torsions:
REMARK  status: ('A' for Active; 'I' for Inactive)
REMARK    1  A    between atoms: C_1  and  C_2
REMARK    2  A    between atoms: C_1  and  C_10
REMARK    3  A    between atoms: C_2  and  C_3
REMARK    4  A    between atoms: C_3  and  C_4
REMARK    5  A    between atoms: C_10  and  C_12
REMARK    6  A    between atoms: C_10  and  C_15
REMARK    7  A    between atoms: C_12  and  O_13
REMARK    8  A    between atoms: C_15  and  S_16
REMARK                            x       y       z     vdW  Elec       q    Type
REMARK                         _______ _______ _______ _____ _____    ______ ____
ROOT
ATOM      1  C   UNL     1      31.781 -23.642 -16.276  0.00  0.00    +0.012 C 
ENDROOT
BRANCH   1   2
ATOM      2  C   UNL     1      32.815 -22.663 -16.850  0.00  0.00    +0.005 C 
BRANCH   2   3
ATOM      3  C   UNL     1      33.467 -23.172 -18.142  0.00  0.00    +0.026 C 
BRANCH   3   4
ATOM      4  C   UNL     1      33.989 -22.076 -19.037  0.00  0.00    -0.022 C 
ATOM      5  C   UNL     1      35.361 -21.940 -19.244  0.00  0.00    -0.004 C 
ATOM      6  C   UNL     1      33.099 -21.199 -19.657  0.00  0.00    -0.004 C 
ATOM      7  C   UNL     1      35.844 -20.926 -20.071  0.00  0.00    -0.000 C 
ATOM      8  C   UNL     1      33.582 -20.185 -20.484  0.00  0.00    -0.000 C 
ATOM      9  C   UNL     1      34.955 -20.049 -20.691  0.00  0.00    -0.000 C 
ENDBRANCH   3   4
ENDBRANCH   2   3
ENDBRANCH   1   2
BRANCH   1  10
ATOM     10  C   UNL     1      30.673 -22.930 -15.474  0.00  0.00    +0.109 C 
BRANCH  10  12
ATOM     11  O   UNL     1      28.596 -24.141 -15.852  0.00  0.00    -0.250 OA
ATOM     12  C   UNL     1      29.326 -23.199 -16.132  0.00  0.00    +0.314 C 
BRANCH  12  13
ATOM     13  O   UNL     1      29.015 -22.284 -17.084  0.00  0.00    -0.480 OA
ATOM     14  H   UNL     1      29.117 -21.370 -16.907  0.00  0.00    +0.295 HD
ENDBRANCH  12  13
ENDBRANCH  10  12
BRANCH  10  15
ATOM     15  C   UNL     1      30.667 -23.434 -14.022  0.00  0.00    +0.064 C 
BRANCH  15  16
ATOM     16  S   UNL     1      31.596 -24.990 -13.827  0.00  0.00    -0.167 S 
ATOM     17  H   UNL     1      32.265 -24.973 -12.643  0.00  0.00    +0.102 HD
ENDBRANCH  15  16
ENDBRANCH  10  15
ENDBRANCH   1  10
TORSDOF 8
ENDMDL
MODEL 8
REMARK VINA RESULT:      -6.8      6.924      9.348
REMARK  Name = 24748045
REMARK  8 active torsions:
REMARK  status: ('A' for Active; 'I' for Inactive)
REMARK    1  A    between atoms: C_1  and  C_2
REMARK    2  A    between atoms: C_1  and  C_10
REMARK    3  A    between atoms: C_2  and  C_3
REMARK    4  A    between atoms: C_3  and  C_4
REMARK    5  A    between atoms: C_10  and  C_12
REMARK    6  A    between atoms: C_10  and  C_15
REMARK    7  A    between atoms: C_12  and  O_13
REMARK    8  A    between atoms: C_15  and  S_16
REMARK                            x       y       z     vdW  Elec       q    Type
REMARK                         _______ _______ _______ _____ _____    ______ ____
ROOT
ATOM      1  C   UNL     1      33.102 -23.548 -16.277  0.00  0.00    +0.012 C 
ENDROOT
BRANCH   1   2
ATOM      2  C   UNL     1      33.995 -22.929 -17.362  0.00  0.00    +0.005 C 
BRANCH   2   3
ATOM      3  C   UNL     1      33.209 -22.488 -18.602  0.00  0.00    +0.026 C 
BRANCH   3   4
ATOM      4  C   UNL     1      33.924 -21.463 -19.447  0.00  0.00    -0.022 C 
ATOM      5  C   UNL     1      35.317 -21.461 -19.509  0.00  0.00    -0.004 C 
ATOM      6  C   UNL     1      33.192 -20.519 -20.167  0.00  0.00    -0.004 C 
ATOM      7  C   UNL     1      35.979 -20.514 -20.290  0.00  0.00    -0.000 C 
ATOM      8  C   UNL     1      33.853 -19.571 -20.948  0.00  0.00    -0.000 C 
ATOM      9  C   UNL     1      35.247 -19.569 -21.009  0.00  0.00    -0.000 C 
ENDBRANCH   3   4
ENDBRANCH   2   3
ENDBRANCH   1   2
BRANCH   1  10
ATOM     10  C   UNL     1      33.740 -23.482 -14.875  0.00  0.00    +0.109 C 
BRANCH  10  12
ATOM     11  O   UNL     1      32.252 -25.122 -13.865  0.00  0.00    -0.250 OA
ATOM     12  C   UNL     1      32.745 -24.001 -13.846  0.00  0.00    +0.314 C 
BRANCH  12  13
ATOM     13  O   UNL     1      32.443 -23.079 -12.897  0.00  0.00    -0.480 OA
ATOM     14  H   UNL     1      31.708 -23.212 -12.332  0.00  0.00    +0.295 HD
ENDBRANCH  12  13
ENDBRANCH  10  12
BRANCH  10  15
ATOM     15  C   UNL     1      35.028 -24.322 -14.842  0.00  0.00    +0.064 C 
BRANCH  15  16
ATOM     16  S   UNL     1      35.880 -24.216 -13.235  0.00  0.00    -0.167 S 
ATOM     17  H   UNL     1      36.745 -23.167 -13.248  0.00  0.00    +0.102 HD
ENDBRANCH  15  16
ENDBRANCH  10  15
ENDBRANCH   1  10
TORSDOF 8
ENDMDL
MODEL 9
REMARK VINA RESULT:      -6.8      6.452      8.836
REMARK  Name = 24748045
REMARK  8 active torsions:
REMARK  status: ('A' for Active; 'I' for Inactive)
REMARK    1  A    between atoms: C_1  and  C_2
REMARK    2  A    between atoms: C_1  and  C_10
REMARK    3  A    between atoms: C_2  and  C_3
REMARK    4  A    between atoms: C_3  and  C_4
REMARK    5  A    between atoms: C_10  and  C_12
REMARK    6  A    between atoms: C_10  and  C_15
REMARK    7  A    between atoms: C_12  and  O_13
REMARK    8  A    between atoms: C_15  and  S_16
REMARK                            x       y       z     vdW  Elec       q    Type
REMARK                         _______ _______ _______ _____ _____    ______ ____
ROOT
ATOM      1  C   UNL     1      36.770 -22.352 -16.477  0.00  0.00    +0.012 C 
ENDROOT
BRANCH   1   2
ATOM      2  C   UNL     1      35.707 -22.250 -17.580  0.00  0.00    +0.005 C 
BRANCH   2   3
ATOM      3  C   UNL     1      36.273 -21.740 -18.911  0.00  0.00    +0.026 C 
BRANCH   3   4
ATOM      4  C   UNL     1      35.280 -20.964 -19.740  0.00  0.00    -0.022 C 
ATOM      5  C   UNL     1      35.727 -19.985 -20.627  0.00  0.00    -0.004 C 
ATOM      6  C   UNL     1      33.915 -21.227 -19.621  0.00  0.00    -0.004 C 
ATOM      7  C   UNL     1      34.809 -19.268 -21.394  0.00  0.00    -0.000 C 
ATOM      8  C   UNL     1      32.997 -20.510 -20.387  0.00  0.00    -0.000 C 
ATOM      9  C   UNL     1      33.444 -19.530 -21.274  0.00  0.00    -0.000 C 
ENDBRANCH   3   4
ENDBRANCH   2   3
ENDBRANCH   1   2
BRANCH   1  10
ATOM     10  C   UNL     1      36.567 -23.580 -15.569  0.00  0.00    +0.109 C 
BRANCH  10  12
ATOM     11  O   UNL     1      38.060 -24.613 -13.948  0.00  0.00    -0.250 OA
ATOM     12  C   UNL     1      37.914 -24.017 -15.008  0.00  0.00    +0.314 C 
BRANCH  12  13
ATOM     13  O   UNL     1      38.954 -23.664 -15.804  0.00  0.00    -0.480 OA
ATOM     14  H   UNL     1      39.114 -24.132 -16.600  0.00  0.00    +0.295 HD
ENDBRANCH  12  13
ENDBRANCH  10  12
BRANCH  10  15
ATOM     15  C   UNL     1      35.599 -23.236 -14.425  0.00  0.00    +0.064 C 
BRANCH  15  16
ATOM     16  S   UNL     1      33.965 -24.010 -14.648  0.00  0.00    -0.167 S 
ATOM     17  H   UNL     1      33.244 -23.295 -15.553  0.00  0.00    +0.102 HD
ENDBRANCH  15  16
ENDBRANCH  10  15
ENDBRANCH   1  10
TORSDOF 8
ENDMDL
