MODEL 1
REMARK VINA RESULT:     -11.1      0.000      0.000
REMARK  Name = 6957673
REMARK  9 active torsions:
REMARK  status: ('A' for Active; 'I' for Inactive)
REMARK    1  A    between atoms: C_1  and  C_4
REMARK    2  A    between atoms: C_1  and  N_17
REMARK    3  A    between atoms: C_1  and  C_26
REMARK    4  A    between atoms: N_3  and  C_6
REMARK    5  A    between atoms: C_11  and  C_13
REMARK    6  A    between atoms: C_13  and  O_14
REMARK    7  A    between atoms: C_18  and  C_20
REMARK    8  A    between atoms: C_26  and  C_27
REMARK    9  A    between atoms: C_32  and  O_33
REMARK                            x       y       z     vdW  Elec       q    Type
REMARK                         _______ _______ _______ _____ _____    ______ ____
ROOT
ATOM      1  C   UNL     1      33.961 -23.807 -15.423  0.00  0.00    +0.153 C 
ENDROOT
BRANCH   1   4
ATOM      2  O   UNL     1      32.195 -23.488 -13.811  0.00  0.00    -0.273 OA
ATOM      3  N   UNL     1      31.714 -23.231 -16.094  0.00  0.00    -0.283 N 
ATOM      4  C   UNL     1      32.522 -23.511 -14.995  0.00  0.00    +0.244 C 
ATOM      5  H   UNL     1      32.154 -23.257 -16.973  0.00  0.00    +0.155 HD
BRANCH   3   6
ATOM      6  C   UNL     1      30.336 -22.912 -16.094  0.00  0.00    +0.050 C 
ATOM      7  C   UNL     1      29.568 -23.229 -17.203  0.00  0.00    +0.015 C 
ATOM      8  C   UNL     1      29.783 -22.292 -14.986  0.00  0.00    +0.015 C 
ATOM      9  C   UNL     1      28.209 -22.916 -17.204  0.00  0.00    +0.008 C 
ATOM     10  C   UNL     1      28.423 -21.980 -14.986  0.00  0.00    +0.008 C 
ATOM     11  C   UNL     1      27.636 -22.292 -16.096  0.00  0.00    +0.076 C 
BRANCH  11  13
ATOM     12  O   UNL     1      25.570 -21.596 -17.079  0.00  0.00    -0.245 OA
ATOM     13  C   UNL     1      26.219 -21.967 -16.095  0.00  0.00    +0.338 C 
BRANCH  13  14
ATOM     14  O   UNL     1      25.651 -22.116 -14.868  0.00  0.00    -0.477 OA
ATOM     15  H   UNL     1      26.140 -21.906 -14.097  0.00  0.00    +0.295 HD
ENDBRANCH  13  14
ENDBRANCH  11  13
ENDBRANCH   3   6
ENDBRANCH   1   4
BRANCH   1  17
ATOM     16  O   UNL     1      33.502 -24.173 -18.234  0.00  0.00    -0.270 OA
ATOM     17  N   UNL     1      34.280 -22.874 -16.477  0.00  0.00    -0.295 N 
ATOM     18  C   UNL     1      34.020 -23.141 -17.813  0.00  0.00    +0.246 C 
ATOM     19  H   UNL     1      34.698 -22.015 -16.239  0.00  0.00    +0.150 HD
BRANCH  18  20
ATOM     20  C   UNL     1      34.431 -22.091 -18.779  0.00  0.00    +0.053 C 
ATOM     21  C   UNL     1      35.773 -21.806 -18.923  0.00  0.00    +0.005 C 
ATOM     22  C   UNL     1      33.458 -21.432 -19.501  0.00  0.00    +0.005 C 
ATOM     23  C   UNL     1      36.160 -20.821 -19.830  0.00  0.00    +0.000 C 
ATOM     24  C   UNL     1      33.844 -20.445 -20.409  0.00  0.00    +0.000 C 
ATOM     25  C   UNL     1      35.195 -20.140 -20.573  0.00  0.00    +0.000 C 
ENDBRANCH  18  20
ENDBRANCH   1  17
BRANCH   1  26
ATOM     26  C   UNL     1      34.941 -23.652 -14.255  0.00  0.00    +0.055 C 
BRANCH  26  27
ATOM     27  C   UNL     1      36.167 -24.523 -14.380  0.00  0.00    -0.020 C 
ATOM     28  C   UNL     1      36.072 -25.740 -15.037  0.00  0.00    -0.001 C 
ATOM     29  C   UNL     1      37.367 -24.089 -13.837  0.00  0.00    -0.001 C 
ATOM     30  C   UNL     1      37.205 -26.545 -15.152  0.00  0.00    +0.036 C 
ATOM     31  C   UNL     1      38.499 -24.895 -13.953  0.00  0.00    +0.036 C 
ATOM     32  C   UNL     1      38.418 -26.122 -14.610  0.00  0.00    +0.134 C 
BRANCH  32  33
ATOM     33  O   UNL     1      39.525 -26.907 -14.723  0.00  0.00    -0.506 OA
ATOM     34  H   UNL     1      39.433 -27.834 -14.825  0.00  0.00    +0.292 HD
ENDBRANCH  32  33
ENDBRANCH  26  27
ENDBRANCH   1  26
TORSDOF 9
ENDMDL
MODEL 2
REMARK VINA RESULT:     -11.0      2.930      7.450
REMARK  Name = 6957673
REMARK  9 active torsions:
REMARK  status: ('A' for Active; 'I' for Inactive)
REMARK    1  A    between atoms: C_1  and  C_4
REMARK    2  A    between atoms: C_1  and  N_17
REMARK    3  A    between atoms: C_1  and  C_26
REMARK    4  A    between atoms: N_3  and  C_6
REMARK    5  A    between atoms: C_11  and  C_13
REMARK    6  A    between atoms: C_13  and  O_14
REMARK    7  A    between atoms: C_18  and  C_20
REMARK    8  A    between atoms: C_26  and  C_27
REMARK    9  A    between atoms: C_32  and  O_33
REMARK                            x       y       z     vdW  Elec       q    Type
REMARK                         _______ _______ _______ _____ _____    ______ ____
ROOT
ATOM      1  C   UNL     1      33.937 -23.452 -17.111  0.00  0.00    +0.153 C 
ENDROOT
BRANCH   1   4
ATOM      2  O   UNL     1      35.878 -22.309 -17.975  0.00  0.00    -0.273 OA
ATOM      3  N   UNL     1      33.769 -21.819 -18.881  0.00  0.00    -0.283 N 
ATOM      4  C   UNL     1      34.659 -22.453 -18.017  0.00  0.00    +0.244 C 
ATOM      5  H   UNL     1      32.825 -22.085 -18.804  0.00  0.00    +0.155 HD
BRANCH   3   6
ATOM      6  C   UNL     1      34.064 -20.840 -19.859  0.00  0.00    +0.050 C 
ATOM      7  C   UNL     1      33.023 -20.158 -20.469  0.00  0.00    +0.015 C 
ATOM      8  C   UNL     1      35.385 -20.581 -20.184  0.00  0.00    +0.015 C 
ATOM      9  C   UNL     1      33.312 -19.192 -21.432  0.00  0.00    +0.008 C 
ATOM     10  C   UNL     1      35.674 -19.613 -21.146  0.00  0.00    +0.008 C 
ATOM     11  C   UNL     1      34.637 -18.919 -21.771  0.00  0.00    +0.076 C 
BRANCH  11  13
ATOM     12  O   UNL     1      34.310 -16.861 -22.945  0.00  0.00    -0.245 OA
ATOM     13  C   UNL     1      34.939 -17.911 -22.773  0.00  0.00    +0.338 C 
BRANCH  13  14
ATOM     14  O   UNL     1      36.019 -18.239 -23.534  0.00  0.00    -0.477 OA
ATOM     15  H   UNL     1      36.532 -18.993 -23.319  0.00  0.00    +0.295 HD
ENDBRANCH  13  14
ENDBRANCH  11  13
ENDBRANCH   3   6
ENDBRANCH   1   4
BRANCH   1  17
ATOM     16  O   UNL     1      35.576 -25.381 -15.755  0.00  0.00    -0.270 OA
ATOM     17  N   UNL     1      34.519 -23.317 -15.798  0.00  0.00    -0.295 N 
ATOM     18  C   UNL     1      35.301 -24.308 -15.223  0.00  0.00    +0.246 C 
ATOM     19  H   UNL     1      34.356 -22.489 -15.290  0.00  0.00    +0.150 HD
BRANCH  18  20
ATOM     20  C   UNL     1      35.805 -24.027 -13.855  0.00  0.00    +0.053 C 
ATOM     21  C   UNL     1      37.067 -23.491 -13.705  0.00  0.00    +0.005 C 
ATOM     22  C   UNL     1      34.994 -24.311 -12.775  0.00  0.00    +0.005 C 
ATOM     23  C   UNL     1      37.540 -23.227 -12.421  0.00  0.00    +0.000 C 
ATOM     24  C   UNL     1      35.467 -24.047 -11.489  0.00  0.00    +0.000 C 
ATOM     25  C   UNL     1      36.740 -23.505 -11.312  0.00  0.00    +0.000 C 
ENDBRANCH  18  20
ENDBRANCH   1  17
BRANCH   1  26
ATOM     26  C   UNL     1      32.430 -23.181 -17.061  0.00  0.00    +0.055 C 
BRANCH  26  27
ATOM     27  C   UNL     1      31.792 -23.579 -15.752  0.00  0.00    -0.020 C 
ATOM     28  C   UNL     1      31.037 -24.741 -15.690  0.00  0.00    -0.001 C 
ATOM     29  C   UNL     1      31.972 -22.777 -14.636  0.00  0.00    -0.001 C 
ATOM     30  C   UNL     1      30.447 -25.108 -14.481  0.00  0.00    +0.036 C 
ATOM     31  C   UNL     1      31.381 -23.145 -13.427  0.00  0.00    +0.036 C 
ATOM     32  C   UNL     1      30.619 -24.310 -13.350  0.00  0.00    +0.134 C 
BRANCH  32  33
ATOM     33  O   UNL     1      30.043 -24.669 -12.170  0.00  0.00    -0.506 OA
ATOM     34  H   UNL     1      29.166 -24.999 -12.158  0.00  0.00    +0.292 HD
ENDBRANCH  32  33
ENDBRANCH  26  27
ENDBRANCH   1  26
TORSDOF 9
ENDMDL
MODEL 3
REMARK VINA RESULT:     -10.7      7.825     12.155
REMARK  Name = 6957673
REMARK  9 active torsions:
REMARK  status: ('A' for Active; 'I' for Inactive)
REMARK    1  A    between atoms: C_1  and  C_4
REMARK    2  A    between atoms: C_1  and  N_17
REMARK    3  A    between atoms: C_1  and  C_26
REMARK    4  A    between atoms: N_3  and  C_6
REMARK    5  A    between atoms: C_11  and  C_13
REMARK    6  A    between atoms: C_13  and  O_14
REMARK    7  A    between atoms: C_18  and  C_20
REMARK    8  A    between atoms: C_26  and  C_27
REMARK    9  A    between atoms: C_32  and  O_33
REMARK                            x       y       z     vdW  Elec       q    Type
REMARK                         _______ _______ _______ _____ _____    ______ ____
ROOT
ATOM      1  C   UNL     1      33.378 -15.008 -22.219  0.00  0.00    +0.153 C 
ENDROOT
BRANCH   1   4
ATOM      2  O   UNL     1      34.301 -15.796 -20.134  0.00  0.00    -0.273 OA
ATOM      3  N   UNL     1      33.598 -17.363 -21.734  0.00  0.00    -0.283 N 
ATOM      4  C   UNL     1      33.836 -16.086 -21.234  0.00  0.00    +0.244 C 
ATOM      5  H   UNL     1      33.180 -17.410 -22.624  0.00  0.00    +0.155 HD
BRANCH   3   6
ATOM      6  C   UNL     1      33.884 -18.601 -21.113  0.00  0.00    +0.050 C 
ATOM      7  C   UNL     1      32.841 -19.368 -20.619  0.00  0.00    +0.015 C 
ATOM      8  C   UNL     1      35.200 -19.022 -21.012  0.00  0.00    +0.015 C 
ATOM      9  C   UNL     1      33.123 -20.589 -20.006  0.00  0.00    +0.008 C 
ATOM     10  C   UNL     1      35.481 -20.244 -20.402  0.00  0.00    +0.008 C 
ATOM     11  C   UNL     1      34.442 -21.028 -19.898  0.00  0.00    +0.076 C 
BRANCH  11  13
ATOM     12  O   UNL     1      34.112 -23.353 -19.444  0.00  0.00    -0.245 OA
ATOM     13  C   UNL     1      34.735 -22.302 -19.262  0.00  0.00    +0.338 C 
BRANCH  13  14
ATOM     14  O   UNL     1      35.800 -22.228 -18.417  0.00  0.00    -0.477 OA
ATOM     15  H   UNL     1      36.431 -21.544 -18.517  0.00  0.00    +0.295 HD
ENDBRANCH  13  14
ENDBRANCH  11  13
ENDBRANCH   3   6
ENDBRANCH   1   4
BRANCH   1  17
ATOM     16  O   UNL     1      31.467 -12.968 -22.877  0.00  0.00    -0.270 OA
ATOM     17  N   UNL     1      33.065 -13.837 -21.437  0.00  0.00    -0.295 N 
ATOM     18  C   UNL     1      32.122 -12.902 -21.839  0.00  0.00    +0.246 C 
ATOM     19  H   UNL     1      33.539 -13.695 -20.585  0.00  0.00    +0.150 HD
BRANCH  18  20
ATOM     20  C   UNL     1      31.934 -11.738 -20.936  0.00  0.00    +0.053 C 
ATOM     21  C   UNL     1      31.689 -11.965 -19.597  0.00  0.00    +0.005 C 
ATOM     22  C   UNL     1      32.011 -10.466 -21.464  0.00  0.00    +0.005 C 
ATOM     23  C   UNL     1      31.514 -10.873 -18.749  0.00  0.00    +0.000 C 
ATOM     24  C   UNL     1      31.834  -9.372 -20.616  0.00  0.00    +0.000 C 
ATOM     25  C   UNL     1      31.586  -9.576 -19.259  0.00  0.00    +0.000 C 
ENDBRANCH  18  20
ENDBRANCH   1  17
BRANCH   1  26
ATOM     26  C   UNL     1      34.465 -14.690 -23.251  0.00  0.00    +0.055 C 
BRANCH  26  27
ATOM     27  C   UNL     1      33.918 -14.176 -24.561  0.00  0.00    -0.020 C 
ATOM     28  C   UNL     1      34.041 -12.829 -24.867  0.00  0.00    -0.001 C 
ATOM     29  C   UNL     1      33.303 -15.060 -25.435  0.00  0.00    -0.001 C 
ATOM     30  C   UNL     1      33.535 -12.354 -26.077  0.00  0.00    +0.036 C 
ATOM     31  C   UNL     1      32.798 -14.583 -26.644  0.00  0.00    +0.036 C 
ATOM     32  C   UNL     1      32.914 -13.232 -26.965  0.00  0.00    +0.134 C 
BRANCH  32  33
ATOM     33  O   UNL     1      32.421 -12.768 -28.147  0.00  0.00    -0.506 OA
ATOM     34  H   UNL     1      31.866 -12.014 -28.158  0.00  0.00    +0.292 HD
ENDBRANCH  32  33
ENDBRANCH  26  27
ENDBRANCH   1  26
TORSDOF 9
ENDMDL
MODEL 4
REMARK VINA RESULT:     -10.4      1.084      8.040
REMARK  Name = 6957673
REMARK  9 active torsions:
REMARK  status: ('A' for Active; 'I' for Inactive)
REMARK    1  A    between atoms: C_1  and  C_4
REMARK    2  A    between atoms: C_1  and  N_17
REMARK    3  A    between atoms: C_1  and  C_26
REMARK    4  A    between atoms: N_3  and  C_6
REMARK    5  A    between atoms: C_11  and  C_13
REMARK    6  A    between atoms: C_13  and  O_14
REMARK    7  A    between atoms: C_18  and  C_20
REMARK    8  A    between atoms: C_26  and  C_27
REMARK    9  A    between atoms: C_32  and  O_33
REMARK                            x       y       z     vdW  Elec       q    Type
REMARK                         _______ _______ _______ _____ _____    ______ ____
ROOT
ATOM      1  C   UNL     1      32.544 -23.224 -15.486  0.00  0.00    +0.153 C 
ENDROOT
BRANCH   1   4
ATOM      2  O   UNL     1      33.621 -24.663 -13.876  0.00  0.00    -0.273 OA
ATOM      3  N   UNL     1      34.905 -23.717 -15.598  0.00  0.00    -0.283 N 
ATOM      4  C   UNL     1      33.743 -23.946 -14.866  0.00  0.00    +0.244 C 
ATOM      5  H   UNL     1      34.812 -23.142 -16.392  0.00  0.00    +0.155 HD
BRANCH   3   6
ATOM      6  C   UNL     1      36.203 -24.213 -15.336  0.00  0.00    +0.050 C 
ATOM      7  C   UNL     1      37.288 -23.357 -15.435  0.00  0.00    +0.015 C 
ATOM      8  C   UNL     1      36.363 -25.543 -14.983  0.00  0.00    +0.015 C 
ATOM      9  C   UNL     1      38.569 -23.846 -15.176  0.00  0.00    +0.008 C 
ATOM     10  C   UNL     1      37.643 -26.031 -14.722  0.00  0.00    +0.008 C 
ATOM     11  C   UNL     1      38.746 -25.183 -14.819  0.00  0.00    +0.076 C 
BRANCH  11  13
ATOM     12  O   UNL     1      40.411 -26.882 -14.569  0.00  0.00    -0.245 OA
ATOM     13  C   UNL     1      40.081 -25.692 -14.547  0.00  0.00    +0.338 C 
BRANCH  13  14
ATOM     14  O   UNL     1      40.967 -24.700 -14.256  0.00  0.00    -0.477 OA
ATOM     15  H   UNL     1      41.771 -24.636 -14.732  0.00  0.00    +0.295 HD
ENDBRANCH  13  14
ENDBRANCH  11  13
ENDBRANCH   3   6
ENDBRANCH   1   4
BRANCH   1  17
ATOM     16  O   UNL     1      33.362 -24.174 -18.070  0.00  0.00    -0.270 OA
ATOM     17  N   UNL     1      33.057 -22.427 -16.574  0.00  0.00    -0.295 N 
ATOM     18  C   UNL     1      33.428 -22.978 -17.792  0.00  0.00    +0.246 C 
ATOM     19  H   UNL     1      33.146 -21.455 -16.448  0.00  0.00    +0.150 HD
BRANCH  18  20
ATOM     20  C   UNL     1      33.961 -22.028 -18.800  0.00  0.00    +0.053 C 
ATOM     21  C   UNL     1      35.323 -21.978 -19.014  0.00  0.00    +0.005 C 
ATOM     22  C   UNL     1      33.078 -21.225 -19.492  0.00  0.00    +0.005 C 
ATOM     23  C   UNL     1      35.824 -21.086 -19.962  0.00  0.00    +0.000 C 
ATOM     24  C   UNL     1      33.579 -20.332 -20.439  0.00  0.00    +0.000 C 
ATOM     25  C   UNL     1      34.952 -20.262 -20.674  0.00  0.00    +0.000 C 
ENDBRANCH  18  20
ENDBRANCH   1  17
BRANCH   1  26
ATOM     26  C   UNL     1      31.492 -24.215 -15.996  0.00  0.00    +0.055 C 
BRANCH  26  27
ATOM     27  C   UNL     1      30.089 -23.659 -15.987  0.00  0.00    -0.020 C 
ATOM     28  C   UNL     1      29.171 -24.115 -16.921  0.00  0.00    -0.001 C 
ATOM     29  C   UNL     1      29.742 -22.704 -15.044  0.00  0.00    -0.001 C 
ATOM     30  C   UNL     1      27.875 -23.601 -16.912  0.00  0.00    +0.036 C 
ATOM     31  C   UNL     1      28.445 -22.191 -15.036  0.00  0.00    +0.036 C 
ATOM     32  C   UNL     1      27.512 -22.639 -15.970  0.00  0.00    +0.134 C 
BRANCH  32  33
ATOM     33  O   UNL     1      26.246 -22.138 -15.961  0.00  0.00    -0.506 OA
ATOM     34  H   UNL     1      26.107 -21.221 -15.827  0.00  0.00    +0.292 HD
ENDBRANCH  32  33
ENDBRANCH  26  27
ENDBRANCH   1  26
TORSDOF 9
ENDMDL
MODEL 5
REMARK VINA RESULT:     -10.3      2.500      6.298
REMARK  Name = 6957673
REMARK  9 active torsions:
REMARK  status: ('A' for Active; 'I' for Inactive)
REMARK    1  A    between atoms: C_1  and  C_4
REMARK    2  A    between atoms: C_1  and  N_17
REMARK    3  A    between atoms: C_1  and  C_26
REMARK    4  A    between atoms: N_3  and  C_6
REMARK    5  A    between atoms: C_11  and  C_13
REMARK    6  A    between atoms: C_13  and  O_14
REMARK    7  A    between atoms: C_18  and  C_20
REMARK    8  A    between atoms: C_26  and  C_27
REMARK    9  A    between atoms: C_32  and  O_33
REMARK                            x       y       z     vdW  Elec       q    Type
REMARK                         _______ _______ _______ _____ _____    ______ ____
ROOT
ATOM      1  C   UNL     1      34.569 -23.408 -16.055  0.00  0.00    +0.153 C 
ENDROOT
BRANCH   1   4
ATOM      2  O   UNL     1      36.275 -22.080 -17.125  0.00  0.00    -0.273 OA
ATOM      3  N   UNL     1      34.145 -22.201 -18.103  0.00  0.00    -0.283 N 
ATOM      4  C   UNL     1      35.111 -22.471 -17.137  0.00  0.00    +0.244 C 
ATOM      5  H   UNL     1      33.270 -22.632 -17.974  0.00  0.00    +0.155 HD
BRANCH   3   6
ATOM      6  C   UNL     1      34.275 -21.383 -19.249  0.00  0.00    +0.050 C 
ATOM      7  C   UNL     1      33.140 -20.820 -19.811  0.00  0.00    +0.015 C 
ATOM      8  C   UNL     1      35.532 -21.159 -19.785  0.00  0.00    +0.015 C 
ATOM      9  C   UNL     1      33.267 -20.012 -20.942  0.00  0.00    +0.008 C 
ATOM     10  C   UNL     1      35.660 -20.349 -20.914  0.00  0.00    +0.008 C 
ATOM     11  C   UNL     1      34.527 -19.776 -21.492  0.00  0.00    +0.076 C 
BRANCH  11  13
ATOM     12  O   UNL     1      34.870 -19.335 -23.818  0.00  0.00    -0.245 OA
ATOM     13  C   UNL     1      34.660 -18.933 -22.669  0.00  0.00    +0.338 C 
BRANCH  13  14
ATOM     14  O   UNL     1      34.525 -17.610 -22.378  0.00  0.00    -0.477 OA
ATOM     15  H   UNL     1      35.272 -17.045 -22.408  0.00  0.00    +0.295 HD
ENDBRANCH  13  14
ENDBRANCH  11  13
ENDBRANCH   3   6
ENDBRANCH   1   4
BRANCH   1  17
ATOM     16  O   UNL     1      32.617 -23.643 -13.962  0.00  0.00    -0.270 OA
ATOM     17  N   UNL     1      33.135 -23.439 -16.214  0.00  0.00    -0.295 N 
ATOM     18  C   UNL     1      32.268 -23.555 -15.137  0.00  0.00    +0.246 C 
ATOM     19  H   UNL     1      32.757 -23.374 -17.121  0.00  0.00    +0.150 HD
BRANCH  18  20
ATOM     20  C   UNL     1      30.821 -23.599 -15.468  0.00  0.00    +0.053 C 
ATOM     21  C   UNL     1      30.306 -22.654 -16.332  0.00  0.00    +0.005 C 
ATOM     22  C   UNL     1      30.038 -24.583 -14.902  0.00  0.00    +0.005 C 
ATOM     23  C   UNL     1      28.948 -22.696 -16.644  0.00  0.00    +0.000 C 
ATOM     24  C   UNL     1      28.678 -24.625 -15.214  0.00  0.00    +0.000 C 
ATOM     25  C   UNL     1      28.133 -23.681 -16.084  0.00  0.00    +0.000 C 
ENDBRANCH  18  20
ENDBRANCH   1  17
BRANCH   1  26
ATOM     26  C   UNL     1      35.153 -24.818 -16.186  0.00  0.00    +0.055 C 
BRANCH  26  27
ATOM     27  C   UNL     1      35.954 -25.251 -14.983  0.00  0.00    -0.020 C 
ATOM     28  C   UNL     1      36.685 -26.428 -15.040  0.00  0.00    -0.001 C 
ATOM     29  C   UNL     1      35.946 -24.464 -13.842  0.00  0.00    -0.001 C 
ATOM     30  C   UNL     1      37.425 -26.828 -13.928  0.00  0.00    +0.036 C 
ATOM     31  C   UNL     1      36.686 -24.865 -12.729  0.00  0.00    +0.036 C 
ATOM     32  C   UNL     1      37.425 -26.046 -12.773  0.00  0.00    +0.134 C 
BRANCH  32  33
ATOM     33  O   UNL     1      38.148 -26.436 -11.687  0.00  0.00    -0.506 OA
ATOM     34  H   UNL     1      38.913 -26.966 -11.799  0.00  0.00    +0.292 HD
ENDBRANCH  32  33
ENDBRANCH  26  27
ENDBRANCH   1  26
TORSDOF 9
ENDMDL
MODEL 6
REMARK VINA RESULT:     -10.3      2.501      6.334
REMARK  Name = 6957673
REMARK  9 active torsions:
REMARK  status: ('A' for Active; 'I' for Inactive)
REMARK    1  A    between atoms: C_1  and  C_4
REMARK    2  A    between atoms: C_1  and  N_17
REMARK    3  A    between atoms: C_1  and  C_26
REMARK    4  A    between atoms: N_3  and  C_6
REMARK    5  A    between atoms: C_11  and  C_13
REMARK    6  A    between atoms: C_13  and  O_14
REMARK    7  A    between atoms: C_18  and  C_20
REMARK    8  A    between atoms: C_26  and  C_27
REMARK    9  A    between atoms: C_32  and  O_33
REMARK                            x       y       z     vdW  Elec       q    Type
REMARK                         _______ _______ _______ _____ _____    ______ ____
ROOT
ATOM      1  C   UNL     1      34.572 -23.408 -16.061  0.00  0.00    +0.153 C 
ENDROOT
BRANCH   1   4
ATOM      2  O   UNL     1      36.282 -22.089 -17.136  0.00  0.00    -0.273 OA
ATOM      3  N   UNL     1      34.148 -22.198 -18.107  0.00  0.00    -0.283 N 
ATOM      4  C   UNL     1      35.115 -22.473 -17.144  0.00  0.00    +0.244 C 
ATOM      5  H   UNL     1      33.271 -22.624 -17.975  0.00  0.00    +0.155 HD
BRANCH   3   6
ATOM      6  C   UNL     1      34.278 -21.380 -19.253  0.00  0.00    +0.050 C 
ATOM      7  C   UNL     1      35.536 -21.171 -19.796  0.00  0.00    +0.015 C 
ATOM      8  C   UNL     1      33.148 -20.805 -19.810  0.00  0.00    +0.015 C 
ATOM      9  C   UNL     1      35.666 -20.364 -20.927  0.00  0.00    +0.008 C 
ATOM     10  C   UNL     1      33.277 -19.999 -20.941  0.00  0.00    +0.008 C 
ATOM     11  C   UNL     1      34.537 -19.779 -21.499  0.00  0.00    +0.076 C 
BRANCH  11  13
ATOM     12  O   UNL     1      34.889 -19.346 -23.825  0.00  0.00    -0.245 OA
ATOM     13  C   UNL     1      34.672 -18.940 -22.679  0.00  0.00    +0.338 C 
BRANCH  13  14
ATOM     14  O   UNL     1      34.531 -17.616 -22.395  0.00  0.00    -0.477 OA
ATOM     15  H   UNL     1      35.088 -16.986 -22.808  0.00  0.00    +0.295 HD
ENDBRANCH  13  14
ENDBRANCH  11  13
ENDBRANCH   3   6
ENDBRANCH   1   4
BRANCH   1  17
ATOM     16  O   UNL     1      32.621 -23.671 -13.970  0.00  0.00    -0.270 OA
ATOM     17  N   UNL     1      33.138 -23.437 -16.219  0.00  0.00    -0.295 N 
ATOM     18  C   UNL     1      32.271 -23.568 -15.144  0.00  0.00    +0.246 C 
ATOM     19  H   UNL     1      32.760 -23.360 -17.125  0.00  0.00    +0.150 HD
BRANCH  18  20
ATOM     20  C   UNL     1      30.824 -23.607 -15.476  0.00  0.00    +0.053 C 
ATOM     21  C   UNL     1      30.041 -24.600 -14.925  0.00  0.00    +0.005 C 
ATOM     22  C   UNL     1      30.309 -22.649 -16.324  0.00  0.00    +0.005 C 
ATOM     23  C   UNL     1      28.682 -24.637 -15.236  0.00  0.00    +0.000 C 
ATOM     24  C   UNL     1      28.950 -22.685 -16.635  0.00  0.00    +0.000 C 
ATOM     25  C   UNL     1      28.136 -23.679 -16.092  0.00  0.00    +0.000 C 
ENDBRANCH  18  20
ENDBRANCH   1  17
BRANCH   1  26
ATOM     26  C   UNL     1      35.154 -24.819 -16.190  0.00  0.00    +0.055 C 
BRANCH  26  27
ATOM     27  C   UNL     1      35.954 -25.252 -14.986  0.00  0.00    -0.020 C 
ATOM     28  C   UNL     1      35.947 -24.462 -13.846  0.00  0.00    -0.001 C 
ATOM     29  C   UNL     1      36.680 -26.431 -15.040  0.00  0.00    -0.001 C 
ATOM     30  C   UNL     1      36.686 -24.862 -12.733  0.00  0.00    +0.036 C 
ATOM     31  C   UNL     1      37.420 -26.830 -13.926  0.00  0.00    +0.036 C 
ATOM     32  C   UNL     1      37.422 -26.045 -12.773  0.00  0.00    +0.134 C 
BRANCH  32  33
ATOM     33  O   UNL     1      38.143 -26.436 -11.687  0.00  0.00    -0.506 OA
ATOM     34  H   UNL     1      38.945 -26.907 -11.801  0.00  0.00    +0.292 HD
ENDBRANCH  32  33
ENDBRANCH  26  27
ENDBRANCH   1  26
TORSDOF 9
ENDMDL
MODEL 7
REMARK VINA RESULT:     -10.2      2.739      7.477
REMARK  Name = 6957673
REMARK  9 active torsions:
REMARK  status: ('A' for Active; 'I' for Inactive)
REMARK    1  A    between atoms: C_1  and  C_4
REMARK    2  A    between atoms: C_1  and  N_17
REMARK    3  A    between atoms: C_1  and  C_26
REMARK    4  A    between atoms: N_3  and  C_6
REMARK    5  A    between atoms: C_11  and  C_13
REMARK    6  A    between atoms: C_13  and  O_14
REMARK    7  A    between atoms: C_18  and  C_20
REMARK    8  A    between atoms: C_26  and  C_27
REMARK    9  A    between atoms: C_32  and  O_33
REMARK                            x       y       z     vdW  Elec       q    Type
REMARK                         _______ _______ _______ _____ _____    ______ ____
ROOT
ATOM      1  C   UNL     1      34.217 -23.557 -16.624  0.00  0.00    +0.153 C 
ENDROOT
BRANCH   1   4
ATOM      2  O   UNL     1      36.032 -22.303 -17.601  0.00  0.00    -0.273 OA
ATOM      3  N   UNL     1      33.883 -22.109 -18.527  0.00  0.00    -0.283 N 
ATOM      4  C   UNL     1      34.833 -22.572 -17.620  0.00  0.00    +0.244 C 
ATOM      5  H   UNL     1      32.971 -22.461 -18.418  0.00  0.00    +0.155 HD
BRANCH   3   6
ATOM      6  C   UNL     1      34.076 -21.193 -19.588  0.00  0.00    +0.050 C 
ATOM      7  C   UNL     1      35.350 -21.011 -20.101  0.00  0.00    +0.015 C 
ATOM      8  C   UNL     1      32.989 -20.500 -20.092  0.00  0.00    +0.015 C 
ATOM      9  C   UNL     1      35.542 -20.108 -21.147  0.00  0.00    +0.008 C 
ATOM     10  C   UNL     1      33.180 -19.598 -21.140  0.00  0.00    +0.008 C 
ATOM     11  C   UNL     1      34.457 -19.402 -21.666  0.00  0.00    +0.076 C 
BRANCH  11  13
ATOM     12  O   UNL     1      34.567 -17.234 -22.670  0.00  0.00    -0.245 OA
ATOM     13  C   UNL     1      34.656 -18.463 -22.758  0.00  0.00    +0.338 C 
BRANCH  13  14
ATOM     14  O   UNL     1      34.962 -19.084 -23.930  0.00  0.00    -0.477 OA
ATOM     15  H   UNL     1      34.874 -20.014 -24.004  0.00  0.00    +0.295 HD
ENDBRANCH  13  14
ENDBRANCH  11  13
ENDBRANCH   3   6
ENDBRANCH   1   4
BRANCH   1  17
ATOM     16  O   UNL     1      35.431 -22.740 -14.154  0.00  0.00    -0.270 OA
ATOM     17  N   UNL     1      35.315 -24.205 -15.948  0.00  0.00    -0.295 N 
ATOM     18  C   UNL     1      35.837 -23.734 -14.753  0.00  0.00    +0.246 C 
ATOM     19  H   UNL     1      35.709 -25.013 -16.351  0.00  0.00    +0.150 HD
BRANCH  18  20
ATOM     20  C   UNL     1      36.983 -24.497 -14.197  0.00  0.00    +0.053 C 
ATOM     21  C   UNL     1      38.192 -24.461 -14.860  0.00  0.00    +0.005 C 
ATOM     22  C   UNL     1      36.803 -25.218 -13.035  0.00  0.00    +0.005 C 
ATOM     23  C   UNL     1      39.269 -25.177 -14.339  0.00  0.00    +0.000 C 
ATOM     24  C   UNL     1      37.880 -25.935 -12.513  0.00  0.00    +0.000 C 
ATOM     25  C   UNL     1      39.113 -25.915 -13.165  0.00  0.00    +0.000 C 
ENDBRANCH  18  20
ENDBRANCH   1  17
BRANCH   1  26
ATOM     26  C   UNL     1      33.310 -22.846 -15.615  0.00  0.00    +0.055 C 
BRANCH  26  27
ATOM     27  C   UNL     1      32.062 -23.623 -15.276  0.00  0.00    -0.020 C 
ATOM     28  C   UNL     1      30.972 -23.565 -16.131  0.00  0.00    -0.001 C 
ATOM     29  C   UNL     1      32.028 -24.384 -14.118  0.00  0.00    -0.001 C 
ATOM     30  C   UNL     1      29.818 -24.283 -15.818  0.00  0.00    +0.036 C 
ATOM     31  C   UNL     1      30.874 -25.102 -13.805  0.00  0.00    +0.036 C 
ATOM     32  C   UNL     1      29.770 -25.052 -14.655  0.00  0.00    +0.134 C 
BRANCH  32  33
ATOM     33  O   UNL     1      28.644 -25.754 -14.349  0.00  0.00    -0.506 OA
ATOM     34  H   UNL     1      27.952 -25.343 -13.869  0.00  0.00    +0.292 HD
ENDBRANCH  32  33
ENDBRANCH  26  27
ENDBRANCH   1  26
TORSDOF 9
ENDMDL
MODEL 8
REMARK VINA RESULT:     -10.2     12.167     15.981
REMARK  Name = 6957673
REMARK  9 active torsions:
REMARK  status: ('A' for Active; 'I' for Inactive)
REMARK    1  A    between atoms: C_1  and  C_4
REMARK    2  A    between atoms: C_1  and  N_17
REMARK    3  A    between atoms: C_1  and  C_26
REMARK    4  A    between atoms: N_3  and  C_6
REMARK    5  A    between atoms: C_11  and  C_13
REMARK    6  A    between atoms: C_13  and  O_14
REMARK    7  A    between atoms: C_18  and  C_20
REMARK    8  A    between atoms: C_26  and  C_27
REMARK    9  A    between atoms: C_32  and  O_33
REMARK                            x       y       z     vdW  Elec       q    Type
REMARK                         _______ _______ _______ _____ _____    ______ ____
ROOT
ATOM      1  C   UNL     1      33.409  -9.354 -23.457  0.00  0.00    +0.153 C 
ENDROOT
BRANCH   1   4
ATOM      2  O   UNL     1      34.804 -10.578 -24.999  0.00  0.00    -0.273 OA
ATOM      3  N   UNL     1      33.379 -11.766 -23.561  0.00  0.00    -0.283 N 
ATOM      4  C   UNL     1      33.946 -10.624 -24.121  0.00  0.00    +0.244 C 
ATOM      5  H   UNL     1      32.731 -11.618 -22.836  0.00  0.00    +0.155 HD
BRANCH   3   6
ATOM      6  C   UNL     1      33.627 -13.114 -23.911  0.00  0.00    +0.050 C 
ATOM      7  C   UNL     1      34.309 -13.930 -23.022  0.00  0.00    +0.015 C 
ATOM      8  C   UNL     1      33.183 -13.591 -25.133  0.00  0.00    +0.015 C 
ATOM      9  C   UNL     1      34.554 -15.260 -23.366  0.00  0.00    +0.008 C 
ATOM     10  C   UNL     1      33.427 -14.921 -25.476  0.00  0.00    +0.008 C 
ATOM     11  C   UNL     1      34.112 -15.755 -24.592  0.00  0.00    +0.076 C 
BRANCH  11  13
ATOM     12  O   UNL     1      33.696 -17.809 -25.746  0.00  0.00    -0.245 OA
ATOM     13  C   UNL     1      34.366 -17.141 -24.950  0.00  0.00    +0.338 C 
BRANCH  13  14
ATOM     14  O   UNL     1      35.449 -17.656 -24.306  0.00  0.00    -0.477 OA
ATOM     15  H   UNL     1      35.981 -17.102 -23.769  0.00  0.00    +0.295 HD
ENDBRANCH  13  14
ENDBRANCH  11  13
ENDBRANCH   3   6
ENDBRANCH   1   4
BRANCH   1  17
ATOM     16  O   UNL     1      33.103  -6.542 -22.965  0.00  0.00    -0.270 OA
ATOM     17  N   UNL     1      33.548  -8.291 -24.422  0.00  0.00    -0.295 N 
ATOM     18  C   UNL     1      33.381  -6.955 -24.089  0.00  0.00    +0.246 C 
ATOM     19  H   UNL     1      33.772  -8.522 -25.353  0.00  0.00    +0.150 HD
BRANCH  18  20
ATOM     20  C   UNL     1      33.532  -5.983 -25.202  0.00  0.00    +0.053 C 
ATOM     21  C   UNL     1      32.495  -5.115 -25.475  0.00  0.00    +0.005 C 
ATOM     22  C   UNL     1      34.705  -5.979 -25.927  0.00  0.00    +0.005 C 
ATOM     23  C   UNL     1      32.637  -4.202 -26.519  0.00  0.00    +0.000 C 
ATOM     24  C   UNL     1      34.848  -5.066 -26.973  0.00  0.00    +0.000 C 
ATOM     25  C   UNL     1      33.814  -4.178 -27.268  0.00  0.00    +0.000 C 
ENDBRANCH  18  20
ENDBRANCH   1  17
BRANCH   1  26
ATOM     26  C   UNL     1      31.943  -9.512 -23.040  0.00  0.00    +0.055 C 
BRANCH  26  27
ATOM     27  C   UNL     1      31.770  -9.921 -21.598  0.00  0.00    -0.020 C 
ATOM     28  C   UNL     1      32.117  -9.032 -20.593  0.00  0.00    -0.001 C 
ATOM     29  C   UNL     1      31.265 -11.178 -21.304  0.00  0.00    -0.001 C 
ATOM     30  C   UNL     1      31.957  -9.410 -19.260  0.00  0.00    +0.036 C 
ATOM     31  C   UNL     1      31.105 -11.555 -19.970  0.00  0.00    +0.036 C 
ATOM     32  C   UNL     1      31.451 -10.671 -18.949  0.00  0.00    +0.134 C 
BRANCH  32  33
ATOM     33  O   UNL     1      31.293 -11.040 -17.648  0.00  0.00    -0.506 OA
ATOM     34  H   UNL     1      32.040 -11.104 -17.086  0.00  0.00    +0.292 HD
ENDBRANCH  32  33
ENDBRANCH  26  27
ENDBRANCH   1  26
TORSDOF 9
ENDMDL
MODEL 9
REMARK VINA RESULT:     -10.1      1.864      2.531
REMARK  Name = 6957673
REMARK  9 active torsions:
REMARK  status: ('A' for Active; 'I' for Inactive)
REMARK    1  A    between atoms: C_1  and  C_4
REMARK    2  A    between atoms: C_1  and  N_17
REMARK    3  A    between atoms: C_1  and  C_26
REMARK    4  A    between atoms: N_3  and  C_6
REMARK    5  A    between atoms: C_11  and  C_13
REMARK    6  A    between atoms: C_13  and  O_14
REMARK    7  A    between atoms: C_18  and  C_20
REMARK    8  A    between atoms: C_26  and  C_27
REMARK    9  A    between atoms: C_32  and  O_33
REMARK                            x       y       z     vdW  Elec       q    Type
REMARK                         _______ _______ _______ _____ _____    ______ ____
ROOT
ATOM      1  C   UNL     1      36.274 -22.850 -16.761  0.00  0.00    +0.153 C 
ENDROOT
BRANCH   1   4
ATOM      2  O   UNL     1      34.883 -22.253 -14.882  0.00  0.00    -0.273 OA
ATOM      3  N   UNL     1      33.930 -23.423 -16.679  0.00  0.00    -0.283 N 
ATOM      4  C   UNL     1      34.963 -22.812 -15.973  0.00  0.00    +0.244 C 
ATOM      5  H   UNL     1      34.165 -23.788 -17.562  0.00  0.00    +0.155 HD
BRANCH   3   6
ATOM      6  C   UNL     1      32.583 -23.580 -16.277  0.00  0.00    +0.050 C 
ATOM      7  C   UNL     1      31.597 -22.843 -16.912  0.00  0.00    +0.015 C 
ATOM      8  C   UNL     1      32.278 -24.468 -15.259  0.00  0.00    +0.015 C 
ATOM      9  C   UNL     1      30.268 -22.997 -16.516  0.00  0.00    +0.008 C 
ATOM     10  C   UNL     1      30.949 -24.623 -14.864  0.00  0.00    +0.008 C 
ATOM     11  C   UNL     1      29.944 -23.888 -15.493  0.00  0.00    +0.076 C 
BRANCH  11  13
ATOM     12  O   UNL     1      27.633 -23.282 -15.365  0.00  0.00    -0.245 OA
ATOM     13  C   UNL     1      28.559 -24.050 -15.082  0.00  0.00    +0.338 C 
BRANCH  13  14
ATOM     14  O   UNL     1      28.367 -25.168 -14.330  0.00  0.00    -0.477 OA
ATOM     15  H   UNL     1      27.502 -25.414 -14.068  0.00  0.00    +0.295 HD
ENDBRANCH  13  14
ENDBRANCH  11  13
ENDBRANCH   3   6
ENDBRANCH   1   4
BRANCH   1  17
ATOM     16  O   UNL     1      34.887 -22.957 -19.272  0.00  0.00    -0.270 OA
ATOM     17  N   UNL     1      36.197 -21.800 -17.747  0.00  0.00    -0.295 N 
ATOM     18  C   UNL     1      35.499 -21.945 -18.937  0.00  0.00    +0.246 C 
ATOM     19  H   UNL     1      36.656 -20.947 -17.568  0.00  0.00    +0.150 HD
BRANCH  18  20
ATOM     20  C   UNL     1      35.537 -20.781 -19.859  0.00  0.00    +0.053 C 
ATOM     21  C   UNL     1      36.751 -20.190 -20.137  0.00  0.00    +0.005 C 
ATOM     22  C   UNL     1      34.355 -20.329 -20.409  0.00  0.00    +0.005 C 
ATOM     23  C   UNL     1      36.787 -19.098 -21.003  0.00  0.00    +0.000 C 
ATOM     24  C   UNL     1      34.390 -19.236 -21.275  0.00  0.00    +0.000 C 
ATOM     25  C   UNL     1      35.606 -18.620 -21.572  0.00  0.00    +0.000 C 
ENDBRANCH  18  20
ENDBRANCH   1  17
BRANCH   1  26
ATOM     26  C   UNL     1      37.486 -22.641 -15.848  0.00  0.00    +0.055 C 
BRANCH  26  27
ATOM     27  C   UNL     1      37.603 -23.676 -14.756  0.00  0.00    -0.020 C 
ATOM     28  C   UNL     1      37.723 -25.014 -15.100  0.00  0.00    -0.001 C 
ATOM     29  C   UNL     1      37.589 -23.272 -13.430  0.00  0.00    -0.001 C 
ATOM     30  C   UNL     1      37.830 -25.972 -14.091  0.00  0.00    +0.036 C 
ATOM     31  C   UNL     1      37.697 -24.230 -12.422  0.00  0.00    +0.036 C 
ATOM     32  C   UNL     1      37.817 -25.579 -12.753  0.00  0.00    +0.134 C 
BRANCH  32  33
ATOM     33  O   UNL     1      37.923 -26.514 -11.768  0.00  0.00    -0.506 OA
ATOM     34  H   UNL     1      38.302 -26.283 -10.943  0.00  0.00    +0.292 HD
ENDBRANCH  32  33
ENDBRANCH  26  27
ENDBRANCH   1  26
TORSDOF 9
ENDMDL
