MODEL 1
REMARK VINA RESULT:      -7.0      0.000      0.000
REMARK  Name = 165675
REMARK  2 active torsions:
REMARK  status: ('A' for Active; 'I' for Inactive)
REMARK    1  A    between atoms: C_1  and  C_8
REMARK    2  A    between atoms: C_2  and  O_11
REMARK                            x       y       z     vdW  Elec       q    Type
REMARK                         _______ _______ _______ _____ _____    ______ ____
ROOT
ATOM      1  C   UNL     1      34.822 -19.262 -20.852  0.00  0.00    +0.027 C 
ATOM      2  C   UNL     1      35.819 -20.383 -20.513  0.00  0.00    +0.110 C 
ATOM      3  C   UNL     1      33.418 -19.833 -21.091  0.00  0.00    +0.002 C 
ATOM      4  C   UNL     1      33.931 -21.803 -19.585  0.00  0.00    +0.002 C 
ATOM      5  C   UNL     1      35.331 -21.233 -19.338  0.00  0.00    +0.029 C 
ATOM      6  C   UNL     1      32.941 -20.679 -19.913  0.00  0.00    +0.000 C 
ATOM      7  C   UNL     1      33.454 -22.607 -18.378  0.00  0.00    +0.000 C 
ENDROOT
BRANCH   1   8
ATOM      8  C   UNL     1      35.283 -18.455 -22.069  0.00  0.00    +0.002 C 
ATOM      9  C   UNL     1      34.736 -19.072 -23.353  0.00  0.00    +0.000 C 
ATOM     10  C   UNL     1      34.844 -17.000 -21.939  0.00  0.00    +0.000 C 
ENDBRANCH   1   8
BRANCH   2  11
ATOM     11  O   UNL     1      37.077 -19.809 -20.174  0.00  0.00    -0.384 OA
ATOM     12  H   UNL     1      37.733 -20.513 -20.056  0.00  0.00    +0.210 HD
ENDBRANCH   2  11
TORSDOF 2
ENDMDL
MODEL 2
REMARK VINA RESULT:      -6.7      1.680      4.796
REMARK  Name = 165675
REMARK  2 active torsions:
REMARK  status: ('A' for Active; 'I' for Inactive)
REMARK    1  A    between atoms: C_1  and  C_8
REMARK    2  A    between atoms: C_2  and  O_11
REMARK                            x       y       z     vdW  Elec       q    Type
REMARK                         _______ _______ _______ _____ _____    ______ ____
ROOT
ATOM      1  C   UNL     1      35.151 -18.879 -21.707  0.00  0.00    +0.027 C 
ATOM      2  C   UNL     1      34.663 -17.427 -21.566  0.00  0.00    +0.110 C 
ATOM      3  C   UNL     1      34.603 -19.516 -22.992  0.00  0.00    +0.002 C 
ATOM      4  C   UNL     1      34.441 -17.239 -24.087  0.00  0.00    +0.002 C 
ATOM      5  C   UNL     1      34.993 -16.599 -22.810  0.00  0.00    +0.029 C 
ATOM      6  C   UNL     1      34.939 -18.683 -24.226  0.00  0.00    +0.000 C 
ATOM      7  C   UNL     1      34.825 -16.416 -25.314  0.00  0.00    +0.000 C 
ENDROOT
BRANCH   1   8
ATOM      8  C   UNL     1      34.761 -19.720 -20.489  0.00  0.00    +0.002 C 
ATOM      9  C   UNL     1      33.325 -20.218 -20.624  0.00  0.00    +0.000 C 
ATOM     10  C   UNL     1      35.725 -20.890 -20.319  0.00  0.00    +0.000 C 
ENDBRANCH   1   8
BRANCH   2  11
ATOM     11  O   UNL     1      35.289 -16.828 -20.435  0.00  0.00    -0.384 OA
ATOM     12  H   UNL     1      35.405 -15.878 -20.596  0.00  0.00    +0.210 HD
ENDBRANCH   2  11
TORSDOF 2
ENDMDL
MODEL 3
REMARK VINA RESULT:      -6.5      2.057      5.095
REMARK  Name = 165675
REMARK  2 active torsions:
REMARK  status: ('A' for Active; 'I' for Inactive)
REMARK    1  A    between atoms: C_1  and  C_8
REMARK    2  A    between atoms: C_2  and  O_11
REMARK                            x       y       z     vdW  Elec       q    Type
REMARK                         _______ _______ _______ _____ _____    ______ ____
ROOT
ATOM      1  C   UNL     1      34.579 -18.470 -21.997  0.00  0.00    +0.027 C 
ATOM      2  C   UNL     1      35.152 -18.184 -23.395  0.00  0.00    +0.110 C 
ATOM      3  C   UNL     1      34.797 -17.273 -21.061  0.00  0.00    +0.002 C 
ATOM      4  C   UNL     1      34.817 -15.693 -23.039  0.00  0.00    +0.002 C 
ATOM      5  C   UNL     1      34.592 -16.884 -23.977  0.00  0.00    +0.029 C 
ATOM      6  C   UNL     1      34.235 -15.982 -21.651  0.00  0.00    +0.000 C 
ATOM      7  C   UNL     1      34.208 -14.421 -23.625  0.00  0.00    +0.000 C 
ENDROOT
BRANCH   1   8
ATOM      8  C   UNL     1      35.191 -19.736 -21.392  0.00  0.00    +0.002 C 
ATOM      9  C   UNL     1      36.524 -19.416 -20.722  0.00  0.00    +0.000 C 
ATOM     10  C   UNL     1      34.225 -20.371 -20.396  0.00  0.00    +0.000 C 
ENDBRANCH   1   8
BRANCH   2  11
ATOM     11  O   UNL     1      34.821 -19.258 -24.269  0.00  0.00    -0.384 OA
ATOM     12  H   UNL     1      35.293 -19.149 -25.109  0.00  0.00    +0.210 HD
ENDBRANCH   2  11
TORSDOF 2
ENDMDL
MODEL 4
REMARK VINA RESULT:      -6.4      2.669      5.542
REMARK  Name = 165675
REMARK  2 active torsions:
REMARK  status: ('A' for Active; 'I' for Inactive)
REMARK    1  A    between atoms: C_1  and  C_8
REMARK    2  A    between atoms: C_2  and  O_11
REMARK                            x       y       z     vdW  Elec       q    Type
REMARK                         _______ _______ _______ _____ _____    ______ ____
ROOT
ATOM      1  C   UNL     1      35.189 -17.135 -21.879  0.00  0.00    +0.027 C 
ATOM      2  C   UNL     1      34.369 -16.076 -21.124  0.00  0.00    +0.110 C 
ATOM      3  C   UNL     1      34.669 -17.309 -23.313  0.00  0.00    +0.002 C 
ATOM      4  C   UNL     1      33.796 -14.933 -23.317  0.00  0.00    +0.002 C 
ATOM      5  C   UNL     1      34.320 -14.751 -21.889  0.00  0.00    +0.029 C 
ATOM      6  C   UNL     1      34.625 -15.982 -24.066  0.00  0.00    +0.000 C 
ATOM      7  C   UNL     1      33.803 -13.603 -24.068  0.00  0.00    +0.000 C 
ENDROOT
BRANCH   1   8
ATOM      8  C   UNL     1      35.180 -18.477 -21.143  0.00  0.00    +0.002 C 
ATOM      9  C   UNL     1      34.249 -19.462 -21.844  0.00  0.00    +0.000 C 
ATOM     10  C   UNL     1      36.594 -19.043 -21.051  0.00  0.00    +0.000 C 
ENDBRANCH   1   8
BRANCH   2  11
ATOM     11  O   UNL     1      34.955 -15.848 -19.846  0.00  0.00    -0.384 OA
ATOM     12  H   UNL     1      34.506 -15.106 -19.412  0.00  0.00    +0.210 HD
ENDBRANCH   2  11
TORSDOF 2
ENDMDL
MODEL 5
REMARK VINA RESULT:      -6.4     10.804     12.334
REMARK  Name = 165675
REMARK  2 active torsions:
REMARK  status: ('A' for Active; 'I' for Inactive)
REMARK    1  A    between atoms: C_1  and  C_8
REMARK    2  A    between atoms: C_2  and  O_11
REMARK                            x       y       z     vdW  Elec       q    Type
REMARK                         _______ _______ _______ _____ _____    ______ ____
ROOT
ATOM      1  C   UNL     1      32.599  -7.997 -22.816  0.00  0.00    +0.027 C 
ATOM      2  C   UNL     1      32.586  -9.532 -22.741  0.00  0.00    +0.110 C 
ATOM      3  C   UNL     1      34.028  -7.472 -23.010  0.00  0.00    +0.002 C 
ATOM      4  C   UNL     1      34.701  -9.635 -24.140  0.00  0.00    +0.002 C 
ATOM      5  C   UNL     1      33.275 -10.161 -23.954  0.00  0.00    +0.029 C 
ATOM      6  C   UNL     1      34.705  -8.104 -24.224  0.00  0.00    +0.000 C 
ATOM      7  C   UNL     1      35.345 -10.245 -25.383  0.00  0.00    +0.000 C 
ENDROOT
BRANCH   1   8
ATOM      8  C   UNL     1      31.968  -7.372 -21.569  0.00  0.00    +0.002 C 
ATOM      9  C   UNL     1      32.759  -7.756 -20.322  0.00  0.00    +0.000 C 
ATOM     10  C   UNL     1      31.893  -5.855 -21.714  0.00  0.00    +0.000 C 
ENDBRANCH   1   8
BRANCH   2  11
ATOM     11  O   UNL     1      31.238  -9.991 -22.689  0.00  0.00    -0.384 OA
ATOM     12  H   UNL     1      31.117 -10.713 -23.325  0.00  0.00    +0.210 HD
ENDBRANCH   2  11
TORSDOF 2
ENDMDL
MODEL 6
REMARK VINA RESULT:      -6.2      4.582      6.334
REMARK  Name = 165675
REMARK  2 active torsions:
REMARK  status: ('A' for Active; 'I' for Inactive)
REMARK    1  A    between atoms: C_1  and  C_8
REMARK    2  A    between atoms: C_2  and  O_11
REMARK                            x       y       z     vdW  Elec       q    Type
REMARK                         _______ _______ _______ _____ _____    ______ ____
ROOT
ATOM      1  C   UNL     1      34.056 -14.689 -24.162  0.00  0.00    +0.027 C 
ATOM      2  C   UNL     1      33.651 -15.792 -25.154  0.00  0.00    +0.110 C 
ATOM      3  C   UNL     1      34.139 -15.243 -22.733  0.00  0.00    +0.002 C 
ATOM      4  C   UNL     1      34.654 -17.555 -23.627  0.00  0.00    +0.002 C 
ATOM      5  C   UNL     1      34.579 -17.006 -25.055  0.00  0.00    +0.029 C 
ATOM      6  C   UNL     1      35.067 -16.452 -22.646  0.00  0.00    +0.000 C 
ATOM      7  C   UNL     1      35.620 -18.734 -23.552  0.00  0.00    +0.000 C 
ENDROOT
BRANCH   1   8
ATOM      8  C   UNL     1      33.086 -13.506 -24.218  0.00  0.00    +0.002 C 
ATOM      9  C   UNL     1      32.356 -13.353 -22.887  0.00  0.00    +0.000 C 
ATOM     10  C   UNL     1      33.832 -12.224 -24.575  0.00  0.00    +0.000 C 
ENDBRANCH   1   8
BRANCH   2  11
ATOM     11  O   UNL     1      33.707 -15.278 -26.481  0.00  0.00    -0.384 OA
ATOM     12  H   UNL     1      34.553 -14.823 -26.616  0.00  0.00    +0.210 HD
ENDBRANCH   2  11
TORSDOF 2
ENDMDL
MODEL 7
REMARK VINA RESULT:      -6.2      1.715      2.493
REMARK  Name = 165675
REMARK  2 active torsions:
REMARK  status: ('A' for Active; 'I' for Inactive)
REMARK    1  A    between atoms: C_1  and  C_8
REMARK    2  A    between atoms: C_2  and  O_11
REMARK                            x       y       z     vdW  Elec       q    Type
REMARK                         _______ _______ _______ _____ _____    ______ ____
ROOT
ATOM      1  C   UNL     1      34.563 -20.017 -21.280  0.00  0.00    +0.027 C 
ATOM      2  C   UNL     1      33.334 -20.141 -20.364  0.00  0.00    +0.110 C 
ATOM      3  C   UNL     1      35.861 -20.187 -20.478  0.00  0.00    +0.002 C 
ATOM      4  C   UNL     1      34.653 -21.607 -18.766  0.00  0.00    +0.002 C 
ATOM      5  C   UNL     1      33.356 -21.447 -19.565  0.00  0.00    +0.029 C 
ATOM      6  C   UNL     1      35.873 -21.493 -19.687  0.00  0.00    +0.000 C 
ATOM      7  C   UNL     1      34.665 -22.938 -18.017  0.00  0.00    +0.000 C 
ENDROOT
BRANCH   1   8
ATOM      8  C   UNL     1      34.570 -18.681 -22.026  0.00  0.00    +0.002 C 
ATOM      9  C   UNL     1      35.278 -17.613 -21.199  0.00  0.00    +0.000 C 
ATOM     10  C   UNL     1      35.235 -18.838 -23.390  0.00  0.00    +0.000 C 
ENDBRANCH   1   8
BRANCH   2  11
ATOM     11  O   UNL     1      32.151 -20.107 -21.155  0.00  0.00    -0.384 OA
ATOM     12  H   UNL     1      31.385 -20.331 -20.603  0.00  0.00    +0.210 HD
ENDBRANCH   2  11
TORSDOF 2
ENDMDL
MODEL 8
REMARK VINA RESULT:      -6.1      3.709      5.641
REMARK  Name = 165675
REMARK  2 active torsions:
REMARK  status: ('A' for Active; 'I' for Inactive)
REMARK    1  A    between atoms: C_1  and  C_8
REMARK    2  A    between atoms: C_2  and  O_11
REMARK                            x       y       z     vdW  Elec       q    Type
REMARK                         _______ _______ _______ _____ _____    ______ ____
ROOT
ATOM      1  C   UNL     1      34.455 -17.044 -22.651  0.00  0.00    +0.027 C 
ATOM      2  C   UNL     1      34.577 -15.789 -23.531  0.00  0.00    +0.110 C 
ATOM      3  C   UNL     1      34.466 -16.669 -21.162  0.00  0.00    +0.002 C 
ATOM      4  C   UNL     1      33.526 -14.381 -21.700  0.00  0.00    +0.002 C 
ATOM      5  C   UNL     1      33.505 -14.752 -23.186  0.00  0.00    +0.029 C 
ATOM      6  C   UNL     1      33.394 -15.636 -20.828  0.00  0.00    +0.000 C 
ATOM      7  C   UNL     1      32.418 -13.381 -21.377  0.00  0.00    +0.000 C 
ENDROOT
BRANCH   1   8
ATOM      8  C   UNL     1      35.568 -18.050 -22.955  0.00  0.00    +0.002 C 
ATOM      9  C   UNL     1      36.249 -18.496 -21.665  0.00  0.00    +0.000 C 
ATOM     10  C   UNL     1      35.008 -19.249 -23.713  0.00  0.00    +0.000 C 
ENDBRANCH   1   8
BRANCH   2  11
ATOM     11  O   UNL     1      34.435 -16.158 -24.900  0.00  0.00    -0.384 OA
ATOM     12  H   UNL     1      33.695 -15.668 -25.292  0.00  0.00    +0.210 HD
ENDBRANCH   2  11
TORSDOF 2
ENDMDL
MODEL 9
REMARK VINA RESULT:      -6.0      3.344      5.323
REMARK  Name = 165675
REMARK  2 active torsions:
REMARK  status: ('A' for Active; 'I' for Inactive)
REMARK    1  A    between atoms: C_1  and  C_8
REMARK    2  A    between atoms: C_2  and  O_11
REMARK                            x       y       z     vdW  Elec       q    Type
REMARK                         _______ _______ _______ _____ _____    ______ ____
ROOT
ATOM      1  C   UNL     1      34.803 -16.340 -22.806  0.00  0.00    +0.027 C 
ATOM      2  C   UNL     1      34.310 -16.665 -21.387  0.00  0.00    +0.110 C 
ATOM      3  C   UNL     1      33.736 -15.564 -23.591  0.00  0.00    +0.002 C 
ATOM      4  C   UNL     1      32.783 -14.638 -21.436  0.00  0.00    +0.002 C 
ATOM      5  C   UNL     1      33.850 -15.405 -20.649  0.00  0.00    +0.029 C 
ATOM      6  C   UNL     1      33.285 -14.309 -22.846  0.00  0.00    +0.000 C 
ATOM      7  C   UNL     1      32.377 -13.365 -20.697  0.00  0.00    +0.000 C 
ENDROOT
BRANCH   1   8
ATOM      8  C   UNL     1      35.200 -17.610 -23.563  0.00  0.00    +0.002 C 
ATOM      9  C   UNL     1      34.546 -18.834 -22.930  0.00  0.00    +0.000 C 
ATOM     10  C   UNL     1      34.818 -17.493 -25.036  0.00  0.00    +0.000 C 
ENDBRANCH   1   8
BRANCH   2  11
ATOM     11  O   UNL     1      35.367 -17.270 -20.648  0.00  0.00    -0.384 OA
ATOM     12  H   UNL     1      36.011 -17.656 -21.261  0.00  0.00    +0.210 HD
ENDBRANCH   2  11
TORSDOF 2
ENDMDL
