MODEL 1
REMARK VINA RESULT:     -10.2      0.000      0.000
REMARK  Name = 4011971
REMARK  3 active torsions:
REMARK  status: ('A' for Active; 'I' for Inactive)
REMARK    1  A    between atoms: N_3  and  C_24
REMARK    2  A    between atoms: C_6  and  N_13
REMARK    3  A    between atoms: C_9  and  C_23
REMARK                            x       y       z     vdW  Elec       q    Type
REMARK                         _______ _______ _______ _____ _____    ______ ____
ROOT
ATOM      1  F   UNL     1      35.225 -20.334 -23.845  0.00  0.00    -0.203 F 
ATOM      2  O   UNL     1      34.113 -16.067 -26.282  0.00  0.00    -0.286 OA
ATOM      3  N   UNL     1      33.763 -15.161 -22.323  0.00  0.00    -0.287 N 
ATOM      4  C   UNL     1      34.137 -16.488 -22.680  0.00  0.00    +0.056 C 
ATOM      5  C   UNL     1      33.531 -14.227 -23.315  0.00  0.00    +0.075 C 
ATOM      6  C   UNL     1      34.754 -18.778 -22.116  0.00  0.00    +0.077 C 
ATOM      7  C   UNL     1      34.266 -16.830 -24.045  0.00  0.00    +0.055 C 
ATOM      8  C   UNL     1      34.388 -17.487 -21.726  0.00  0.00    +0.032 C 
ATOM      9  C   UNL     1      33.625 -14.449 -24.629  0.00  0.00    +0.133 C 
ATOM     10  C   UNL     1      34.009 -15.806 -25.091  0.00  0.00    +0.204 C 
ATOM     11  C   UNL     1      34.875 -19.097 -23.466  0.00  0.00    +0.153 C 
ATOM     12  C   UNL     1      34.631 -18.125 -24.434  0.00  0.00    +0.035 C 
ENDROOT
BRANCH   6  13
ATOM     13  N   UNL     1      34.996 -19.755 -21.143  0.00  0.00    -0.310 N 
ATOM     14  N   UNL     1      35.519 -21.572 -19.051  0.00  0.00    +0.386 N 
ATOM     15  C   UNL     1      36.324 -19.769 -20.509  0.00  0.00    +0.068 C 
ATOM     16  C   UNL     1      33.884 -20.254 -20.325  0.00  0.00    +0.068 C 
ATOM     17  C   UNL     1      36.634 -21.149 -19.947  0.00  0.00    -0.060 C 
ATOM     18  C   UNL     1      34.208 -21.629 -19.759  0.00  0.00    -0.060 C 
ATOM     19  H   UNL     1      35.446 -20.907 -18.281  0.00  0.00    -0.084 HD
ATOM     20  H   UNL     1      35.731 -22.513 -18.716  0.00  0.00    -0.084 HD
ENDBRANCH   6  13
BRANCH   9  23
ATOM     21  O   UNL     1      32.658 -13.628 -26.604  0.00  0.00    -0.240 OA
ATOM     22  O   UNL     1      33.806 -12.192 -25.243  0.00  0.00    -0.240 OA
ATOM     23  C   UNL     1      33.335 -13.314 -25.584  0.00  0.00    +0.392 C 
ENDBRANCH   9  23
BRANCH   3  24
ATOM     24  C   UNL     1      33.614 -14.750 -20.910  0.00  0.00    +0.077 C 
ATOM     25  C   UNL     1      32.631 -13.695 -20.521  0.00  0.00    +0.022 C 
ATOM     26  C   UNL     1      32.399 -15.125 -20.128  0.00  0.00    +0.022 C 
ENDBRANCH   3  24
TORSDOF 3
ENDMDL
MODEL 2
REMARK VINA RESULT:      -9.5      3.433      5.637
REMARK  Name = 4011971
REMARK  3 active torsions:
REMARK  status: ('A' for Active; 'I' for Inactive)
REMARK    1  A    between atoms: N_3  and  C_24
REMARK    2  A    between atoms: C_6  and  N_13
REMARK    3  A    between atoms: C_9  and  C_23
REMARK                            x       y       z     vdW  Elec       q    Type
REMARK                         _______ _______ _______ _____ _____    ______ ____
ROOT
ATOM      1  F   UNL     1      32.145 -15.732 -21.116  0.00  0.00    -0.203 F 
ATOM      2  O   UNL     1      30.695 -10.910 -21.258  0.00  0.00    -0.286 OA
ATOM      3  N   UNL     1      33.779 -11.179 -23.912  0.00  0.00    -0.287 N 
ATOM      4  C   UNL     1      33.385 -12.357 -23.214  0.00  0.00    +0.056 C 
ATOM      5  C   UNL     1      33.115  -9.991 -23.674  0.00  0.00    +0.075 C 
ATOM      6  C   UNL     1      33.599 -14.731 -22.702  0.00  0.00    +0.077 C 
ATOM      7  C   UNL     1      32.320 -12.293 -22.288  0.00  0.00    +0.055 C 
ATOM      8  C   UNL     1      34.015 -13.596 -23.406  0.00  0.00    +0.032 C 
ATOM      9  C   UNL     1      32.099  -9.826 -22.822  0.00  0.00    +0.133 C 
ATOM     10  C   UNL     1      31.623 -11.001 -22.052  0.00  0.00    +0.204 C 
ATOM     11  C   UNL     1      32.547 -14.648 -21.794  0.00  0.00    +0.153 C 
ATOM     12  C   UNL     1      31.905 -13.430 -21.584  0.00  0.00    +0.035 C 
ENDROOT
BRANCH   6  13
ATOM     13  N   UNL     1      34.246 -15.954 -22.912  0.00  0.00    -0.310 N 
ATOM     14  N   UNL     1      35.709 -18.314 -23.406  0.00  0.00    +0.386 N 
ATOM     15  C   UNL     1      34.646 -16.286 -24.289  0.00  0.00    +0.068 C 
ATOM     16  C   UNL     1      35.073 -16.528 -21.843  0.00  0.00    +0.068 C 
ATOM     17  C   UNL     1      34.789 -17.792 -24.457  0.00  0.00    -0.060 C 
ATOM     18  C   UNL     1      35.218 -18.033 -22.026  0.00  0.00    -0.060 C 
ATOM     19  H   UNL     1      36.623 -17.877 -23.523  0.00  0.00    -0.084 HD
ATOM     20  H   UNL     1      35.761 -19.327 -23.515  0.00  0.00    -0.084 HD
ENDBRANCH   6  13
BRANCH   9  23
ATOM     21  O   UNL     1      31.820  -7.816 -21.641  0.00  0.00    -0.240 OA
ATOM     22  O   UNL     1      30.706  -8.112 -23.617  0.00  0.00    -0.240 OA
ATOM     23  C   UNL     1      31.482  -8.452 -22.679  0.00  0.00    +0.392 C 
ENDBRANCH   9  23
BRANCH   3  24
ATOM     24  C   UNL     1      34.887 -11.191 -24.891  0.00  0.00    +0.077 C 
ATOM     25  C   UNL     1      34.613 -11.103 -26.356  0.00  0.00    +0.022 C 
ATOM     26  C   UNL     1      35.261  -9.955 -25.639  0.00  0.00    +0.022 C 
ENDBRANCH   3  24
TORSDOF 3
ENDMDL
MODEL 3
REMARK VINA RESULT:      -9.4      4.939      7.340
REMARK  Name = 4011971
REMARK  3 active torsions:
REMARK  status: ('A' for Active; 'I' for Inactive)
REMARK    1  A    between atoms: N_3  and  C_24
REMARK    2  A    between atoms: C_6  and  N_13
REMARK    3  A    between atoms: C_9  and  C_23
REMARK                            x       y       z     vdW  Elec       q    Type
REMARK                         _______ _______ _______ _____ _____    ______ ____
ROOT
ATOM      1  F   UNL     1      35.007 -11.546 -25.884  0.00  0.00    -0.203 F 
ATOM      2  O   UNL     1      33.738  -7.143 -23.791  0.00  0.00    -0.286 OA
ATOM      3  N   UNL     1      31.809  -9.974 -21.581  0.00  0.00    -0.287 N 
ATOM      4  C   UNL     1      32.617 -10.405 -22.672  0.00  0.00    +0.056 C 
ATOM      5  C   UNL     1      31.701  -8.625 -21.304  0.00  0.00    +0.075 C 
ATOM      6  C   UNL     1      33.575 -12.143 -24.088  0.00  0.00    +0.077 C 
ATOM      7  C   UNL     1      33.297  -9.446 -23.455  0.00  0.00    +0.055 C 
ATOM      8  C   UNL     1      32.772 -11.759 -23.010  0.00  0.00    +0.032 C 
ATOM      9  C   UNL     1      32.301  -7.642 -21.981  0.00  0.00    +0.133 C 
ATOM     10  C   UNL     1      33.162  -8.001 -23.135  0.00  0.00    +0.204 C 
ATOM     11  C   UNL     1      34.237 -11.183 -24.849  0.00  0.00    +0.153 C 
ATOM     12  C   UNL     1      34.100  -9.833 -24.535  0.00  0.00    +0.035 C 
ENDROOT
BRANCH   6  13
ATOM     13  N   UNL     1      33.711 -13.500 -24.404  0.00  0.00    -0.310 N 
ATOM     14  N   UNL     1      33.843 -16.274 -24.900  0.00  0.00    +0.386 N 
ATOM     15  C   UNL     1      34.143 -14.409 -23.331  0.00  0.00    +0.068 C 
ATOM     16  C   UNL     1      32.861 -14.089 -25.447  0.00  0.00    +0.068 C 
ATOM     17  C   UNL     1      34.781 -15.662 -23.915  0.00  0.00    -0.060 C 
ATOM     18  C   UNL     1      33.503 -15.346 -26.017  0.00  0.00    -0.060 C 
ATOM     19  H   UNL     1      32.983 -16.532 -24.416  0.00  0.00    -0.084 HD
ATOM     20  H   UNL     1      34.306 -17.088 -25.304  0.00  0.00    -0.084 HD
ENDBRANCH   6  13
BRANCH   9  23
ATOM     21  O   UNL     1      31.454  -5.488 -22.375  0.00  0.00    -0.240 OA
ATOM     22  O   UNL     1      32.535  -5.918 -20.406  0.00  0.00    -0.240 OA
ATOM     23  C   UNL     1      32.074  -6.212 -21.546  0.00  0.00    +0.392 C 
ENDBRANCH   9  23
BRANCH   3  24
ATOM     24  C   UNL     1      31.077 -10.936 -20.730  0.00  0.00    +0.077 C 
ATOM     25  C   UNL     1      31.789 -11.723 -19.680  0.00  0.00    +0.022 C 
ATOM     26  C   UNL     1      30.823 -10.644 -19.288  0.00  0.00    +0.022 C 
ENDBRANCH   3  24
TORSDOF 3
ENDMDL
MODEL 4
REMARK VINA RESULT:      -9.4      5.336      9.060
REMARK  Name = 4011971
REMARK  3 active torsions:
REMARK  status: ('A' for Active; 'I' for Inactive)
REMARK    1  A    between atoms: N_3  and  C_24
REMARK    2  A    between atoms: C_6  and  N_13
REMARK    3  A    between atoms: C_9  and  C_23
REMARK                            x       y       z     vdW  Elec       q    Type
REMARK                         _______ _______ _______ _____ _____    ______ ____
ROOT
ATOM      1  F   UNL     1      30.944 -10.293 -20.178  0.00  0.00    -0.203 F 
ATOM      2  O   UNL     1      32.239 -14.646 -22.357  0.00  0.00    -0.286 OA
ATOM      3  N   UNL     1      33.717 -11.742 -24.807  0.00  0.00    -0.287 N 
ATOM      4  C   UNL     1      33.014 -11.342 -23.634  0.00  0.00    +0.056 C 
ATOM      5  C   UNL     1      33.877 -13.087 -25.080  0.00  0.00    +0.075 C 
ATOM      6  C   UNL     1      32.120  -9.641 -22.133  0.00  0.00    +0.077 C 
ATOM      7  C   UNL     1      32.491 -12.327 -22.767  0.00  0.00    +0.055 C 
ATOM      8  C   UNL     1      32.815  -9.995 -23.293  0.00  0.00    +0.032 C 
ATOM      9  C   UNL     1      33.422 -14.092 -24.328  0.00  0.00    +0.133 C 
ATOM     10  C   UNL     1      32.677 -13.767 -23.087  0.00  0.00    +0.204 C 
ATOM     11  C   UNL     1      31.612 -10.627 -21.291  0.00  0.00    +0.153 C 
ATOM     12  C   UNL     1      31.795 -11.971 -21.605  0.00  0.00    +0.035 C 
ENDROOT
BRANCH   6  13
ATOM     13  N   UNL     1      31.934  -8.290 -21.819  0.00  0.00    -0.310 N 
ATOM     14  N   UNL     1      31.755  -5.536 -21.236  0.00  0.00    +0.386 N 
ATOM     15  C   UNL     1      32.766  -7.719 -20.748  0.00  0.00    +0.068 C 
ATOM     16  C   UNL     1      31.499  -7.357 -22.866  0.00  0.00    +0.068 C 
ATOM     17  C   UNL     1      32.095  -6.494 -20.144  0.00  0.00    -0.060 C 
ATOM     18  C   UNL     1      30.838  -6.130 -22.251  0.00  0.00    -0.060 C 
ATOM     19  H   UNL     1      32.616  -5.249 -21.701  0.00  0.00    -0.084 HD
ATOM     20  H   UNL     1      31.275  -4.742 -20.812  0.00  0.00    -0.084 HD
ENDBRANCH   6  13
BRANCH   9  23
ATOM     21  O   UNL     1      34.207 -16.264 -23.902  0.00  0.00    -0.240 OA
ATOM     22  O   UNL     1      33.345 -15.774 -25.963  0.00  0.00    -0.240 OA
ATOM     23  C   UNL     1      33.683 -15.514 -24.774  0.00  0.00    +0.392 C 
ENDBRANCH   9  23
BRANCH   3  24
ATOM     24  C   UNL     1      34.285 -10.752 -25.747  0.00  0.00    +0.077 C 
ATOM     25  C   UNL     1      35.685 -10.260 -25.584  0.00  0.00    +0.022 C 
ATOM     26  C   UNL     1      35.327 -11.149 -26.739  0.00  0.00    +0.022 C 
ENDBRANCH   3  24
TORSDOF 3
ENDMDL
MODEL 5
REMARK VINA RESULT:      -9.1      5.806      8.717
REMARK  Name = 4011971
REMARK  3 active torsions:
REMARK  status: ('A' for Active; 'I' for Inactive)
REMARK    1  A    between atoms: N_3  and  C_24
REMARK    2  A    between atoms: C_6  and  N_13
REMARK    3  A    between atoms: C_9  and  C_23
REMARK                            x       y       z     vdW  Elec       q    Type
REMARK                         _______ _______ _______ _____ _____    ______ ____
ROOT
ATOM      1  F   UNL     1      38.728 -22.869 -15.809  0.00  0.00    -0.203 F 
ATOM      2  O   UNL     1      36.321 -20.624 -19.623  0.00  0.00    -0.286 OA
ATOM      3  N   UNL     1      33.450 -22.728 -17.635  0.00  0.00    -0.287 N 
ATOM      4  C   UNL     1      34.787 -22.783 -17.146  0.00  0.00    +0.056 C 
ATOM      5  C   UNL     1      33.165 -21.973 -18.756  0.00  0.00    +0.075 C 
ATOM      6  C   UNL     1      36.471 -23.559 -15.563  0.00  0.00    +0.077 C 
ATOM      7  C   UNL     1      35.802 -22.065 -17.815  0.00  0.00    +0.055 C 
ATOM      8  C   UNL     1      35.148 -23.530 -16.013  0.00  0.00    +0.032 C 
ATOM      9  C   UNL     1      34.050 -21.260 -19.458  0.00  0.00    +0.133 C 
ATOM     10  C   UNL     1      35.467 -21.261 -19.020  0.00  0.00    +0.204 C 
ATOM     11  C   UNL     1      37.458 -22.844 -16.236  0.00  0.00    +0.153 C 
ATOM     12  C   UNL     1      37.127 -22.095 -17.363  0.00  0.00    +0.035 C 
ENDROOT
BRANCH   6  13
ATOM     13  N   UNL     1      36.803 -24.313 -14.431  0.00  0.00    -0.310 N 
ATOM     14  N   UNL     1      37.668 -25.816 -12.208  0.00  0.00    +0.386 N 
ATOM     15  C   UNL     1      37.492 -25.595 -14.646  0.00  0.00    +0.068 C 
ATOM     16  C   UNL     1      37.091 -23.628 -13.165  0.00  0.00    +0.068 C 
ATOM     17  C   UNL     1      37.276 -26.524 -13.460  0.00  0.00    -0.060 C 
ATOM     18  C   UNL     1      36.882 -24.569 -11.986  0.00  0.00    -0.060 C 
ATOM     19  H   UNL     1      38.658 -25.574 -12.264  0.00  0.00    -0.084 HD
ATOM     20  H   UNL     1      37.481 -26.444 -11.425  0.00  0.00    -0.084 HD
ENDBRANCH   6  13
BRANCH   9  23
ATOM     21  O   UNL     1      34.481 -19.951 -21.360  0.00  0.00    -0.240 OA
ATOM     22  O   UNL     1      32.317 -20.473 -20.832  0.00  0.00    -0.240 OA
ATOM     23  C   UNL     1      33.570 -20.487 -20.667  0.00  0.00    +0.392 C 
ENDBRANCH   9  23
BRANCH   3  24
ATOM     24  C   UNL     1      32.350 -23.461 -16.972  0.00  0.00    +0.077 C 
ATOM     25  C   UNL     1      31.961 -23.146 -15.566  0.00  0.00    +0.022 C 
ATOM     26  C   UNL     1      31.042 -22.796 -16.700  0.00  0.00    +0.022 C 
ENDBRANCH   3  24
TORSDOF 3
ENDMDL
MODEL 6
REMARK VINA RESULT:      -8.9      7.582     11.246
REMARK  Name = 4011971
REMARK  3 active torsions:
REMARK  status: ('A' for Active; 'I' for Inactive)
REMARK    1  A    between atoms: N_3  and  C_24
REMARK    2  A    between atoms: C_6  and  N_13
REMARK    3  A    between atoms: C_9  and  C_23
REMARK                            x       y       z     vdW  Elec       q    Type
REMARK                         _______ _______ _______ _____ _____    ______ ____
ROOT
ATOM      1  F   UNL     1      37.578 -21.272 -18.177  0.00  0.00    -0.203 F 
ATOM      2  O   UNL     1      38.306 -23.703 -13.825  0.00  0.00    -0.286 OA
ATOM      3  N   UNL     1      34.319 -24.064 -14.599  0.00  0.00    -0.287 N 
ATOM      4  C   UNL     1      35.125 -23.347 -15.530  0.00  0.00    +0.056 C 
ATOM      5  C   UNL     1      34.903 -24.612 -13.473  0.00  0.00    +0.075 C 
ATOM      6  C   UNL     1      35.422 -22.068 -17.584  0.00  0.00    +0.077 C 
ATOM      7  C   UNL     1      36.509 -23.205 -15.287  0.00  0.00    +0.055 C 
ATOM      8  C   UNL     1      34.600 -22.765 -16.694  0.00  0.00    +0.032 C 
ATOM      9  C   UNL     1      36.197 -24.535 -13.152  0.00  0.00    +0.133 C 
ATOM     10  C   UNL     1      37.110 -23.804 -14.066  0.00  0.00    +0.204 C 
ATOM     11  C   UNL     1      36.784 -21.940 -17.328  0.00  0.00    +0.153 C 
ATOM     12  C   UNL     1      37.332 -22.507 -16.179  0.00  0.00    +0.035 C 
ENDROOT
BRANCH   6  13
ATOM     13  N   UNL     1      34.871 -21.497 -18.737  0.00  0.00    -0.310 N 
ATOM     14  N   UNL     1      33.818 -20.513 -21.161  0.00  0.00    +0.386 N 
ATOM     15  C   UNL     1      35.771 -21.268 -19.880  0.00  0.00    +0.068 C 
ATOM     16  C   UNL     1      33.461 -21.741 -19.063  0.00  0.00    +0.068 C 
ATOM     17  C   UNL     1      35.220 -20.174 -20.783  0.00  0.00    -0.060 C 
ATOM     18  C   UNL     1      32.923 -20.647 -19.976  0.00  0.00    -0.060 C 
ATOM     19  H   UNL     1      33.820 -21.396 -21.671  0.00  0.00    -0.084 HD
ATOM     20  H   UNL     1      33.458 -19.750 -21.735  0.00  0.00    -0.084 HD
ENDBRANCH   6  13
BRANCH   9  23
ATOM     21  O   UNL     1      36.943 -26.422 -11.972  0.00  0.00    -0.240 OA
ATOM     22  O   UNL     1      36.743 -24.426 -10.872  0.00  0.00    -0.240 OA
ATOM     23  C   UNL     1      36.674 -25.191 -11.876  0.00  0.00    +0.392 C 
ENDBRANCH   9  23
BRANCH   3  24
ATOM     24  C   UNL     1      32.866 -24.242 -14.806  0.00  0.00    +0.077 C 
ATOM     25  C   UNL     1      32.005 -24.809 -13.726  0.00  0.00    +0.022 C 
ATOM     26  C   UNL     1      31.881 -23.363 -14.108  0.00  0.00    +0.022 C 
ENDBRANCH   3  24
TORSDOF 3
ENDMDL
MODEL 7
REMARK VINA RESULT:      -8.5      4.802      7.323
REMARK  Name = 4011971
REMARK  3 active torsions:
REMARK  status: ('A' for Active; 'I' for Inactive)
REMARK    1  A    between atoms: N_3  and  C_24
REMARK    2  A    between atoms: C_6  and  N_13
REMARK    3  A    between atoms: C_9  and  C_23
REMARK                            x       y       z     vdW  Elec       q    Type
REMARK                         _______ _______ _______ _____ _____    ______ ____
ROOT
ATOM      1  F   UNL     1      31.941 -14.614 -21.536  0.00  0.00    -0.203 F 
ATOM      2  O   UNL     1      31.239 -10.012 -19.610  0.00  0.00    -0.286 OA
ATOM      3  N   UNL     1      33.165  -9.408 -23.153  0.00  0.00    -0.287 N 
ATOM      4  C   UNL     1      32.866 -10.746 -22.767  0.00  0.00    +0.056 C 
ATOM      5  C   UNL     1      32.799  -8.363 -22.326  0.00  0.00    +0.075 C 
ATOM      6  C   UNL     1      32.897 -13.155 -23.145  0.00  0.00    +0.077 C 
ATOM      7  C   UNL     1      32.200 -10.986 -21.545  0.00  0.00    +0.055 C 
ATOM      8  C   UNL     1      33.208 -11.856 -23.556  0.00  0.00    +0.032 C 
ATOM      9  C   UNL     1      32.168  -8.482 -21.155  0.00  0.00    +0.133 C 
ATOM     10  C   UNL     1      31.819  -9.842 -20.675  0.00  0.00    +0.204 C 
ATOM     11  C   UNL     1      32.240 -13.370 -21.936  0.00  0.00    +0.153 C 
ATOM     12  C   UNL     1      31.890 -12.288 -21.133  0.00  0.00    +0.035 C 
ENDROOT
BRANCH   6  13
ATOM     13  N   UNL     1      33.251 -14.243 -23.951  0.00  0.00    -0.310 N 
ATOM     14  N   UNL     1      34.097 -16.312 -25.671  0.00  0.00    +0.386 N 
ATOM     15  C   UNL     1      33.048 -14.109 -25.403  0.00  0.00    +0.068 C 
ATOM     16  C   UNL     1      34.341 -15.131 -23.530  0.00  0.00    +0.068 C 
ATOM     17  C   UNL     1      32.921 -15.478 -26.054  0.00  0.00    -0.060 C 
ATOM     18  C   UNL     1      34.210 -16.495 -24.195  0.00  0.00    -0.060 C 
ATOM     19  H   UNL     1      34.945 -15.859 -26.010  0.00  0.00    -0.084 HD
ATOM     20  H   UNL     1      33.971 -17.235 -26.088  0.00  0.00    -0.084 HD
ENDBRANCH   6  13
BRANCH   9  23
ATOM     21  O   UNL     1      31.074  -6.414 -20.956  0.00  0.00    -0.240 OA
ATOM     22  O   UNL     1      32.377  -7.158 -19.229  0.00  0.00    -0.240 OA
ATOM     23  C   UNL     1      31.841  -7.231 -20.371  0.00  0.00    +0.392 C 
ENDBRANCH   9  23
BRANCH   3  24
ATOM     24  C   UNL     1      33.860  -9.103 -24.421  0.00  0.00    +0.077 C 
ATOM     25  C   UNL     1      34.855  -7.991 -24.499  0.00  0.00    +0.022 C 
ATOM     26  C   UNL     1      35.309  -9.418 -24.595  0.00  0.00    +0.022 C 
ENDBRANCH   3  24
TORSDOF 3
ENDMDL
MODEL 8
REMARK VINA RESULT:      -8.4      3.604      7.404
REMARK  Name = 4011971
REMARK  3 active torsions:
REMARK  status: ('A' for Active; 'I' for Inactive)
REMARK    1  A    between atoms: N_3  and  C_24
REMARK    2  A    between atoms: C_6  and  N_13
REMARK    3  A    between atoms: C_9  and  C_23
REMARK                            x       y       z     vdW  Elec       q    Type
REMARK                         _______ _______ _______ _____ _____    ______ ____
ROOT
ATOM      1  F   UNL     1      33.188 -11.495 -26.586  0.00  0.00    -0.203 F 
ATOM      2  O   UNL     1      33.918 -16.476 -26.406  0.00  0.00    -0.286 OA
ATOM      3  N   UNL     1      34.341 -15.193 -22.559  0.00  0.00    -0.287 N 
ATOM      4  C   UNL     1      34.047 -14.227 -23.564  0.00  0.00    +0.056 C 
ATOM      5  C   UNL     1      34.473 -16.522 -22.909  0.00  0.00    +0.075 C 
ATOM      6  C   UNL     1      33.610 -11.942 -24.293  0.00  0.00    +0.077 C 
ATOM      7  C   UNL     1      33.896 -14.643 -24.905  0.00  0.00    +0.055 C 
ATOM      8  C   UNL     1      33.899 -12.860 -23.280  0.00  0.00    +0.032 C 
ATOM      9  C   UNL     1      34.349 -17.017 -24.144  0.00  0.00    +0.133 C 
ATOM     10  C   UNL     1      34.044 -16.080 -25.254  0.00  0.00    +0.204 C 
ATOM     11  C   UNL     1      33.465 -12.371 -25.610  0.00  0.00    +0.153 C 
ATOM     12  C   UNL     1      33.607 -13.721 -25.920  0.00  0.00    +0.035 C 
ENDROOT
BRANCH   6  13
ATOM     13  N   UNL     1      33.469 -10.584 -23.982  0.00  0.00    -0.310 N 
ATOM     14  N   UNL     1      33.226  -7.897 -23.161  0.00  0.00    +0.386 N 
ATOM     15  C   UNL     1      32.424 -10.213 -23.015  0.00  0.00    +0.068 C 
ATOM     16  C   UNL     1      34.643  -9.704 -24.036  0.00  0.00    +0.068 C 
ATOM     17  C   UNL     1      32.011  -8.760 -23.205  0.00  0.00    -0.060 C 
ATOM     18  C   UNL     1      34.218  -8.253 -24.216  0.00  0.00    -0.060 C 
ATOM     19  H   UNL     1      33.669  -8.001 -22.248  0.00  0.00    -0.084 HD
ATOM     20  H   UNL     1      32.929  -6.935 -23.327  0.00  0.00    -0.084 HD
ENDBRANCH   6  13
BRANCH   9  23
ATOM     21  O   UNL     1      33.738 -19.026 -25.195  0.00  0.00    -0.240 OA
ATOM     22  O   UNL     1      35.442 -19.038 -23.669  0.00  0.00    -0.240 OA
ATOM     23  C   UNL     1      34.527 -18.503 -24.357  0.00  0.00    +0.392 C 
ENDBRANCH   9  23
BRANCH   3  24
ATOM     24  C   UNL     1      34.509 -14.810 -21.141  0.00  0.00    +0.077 C 
ATOM     25  C   UNL     1      33.372 -14.924 -20.179  0.00  0.00    +0.022 C 
ATOM     26  C   UNL     1      34.550 -15.848 -20.068  0.00  0.00    +0.022 C 
ENDBRANCH   3  24
TORSDOF 3
ENDMDL
MODEL 9
REMARK VINA RESULT:      -8.0      4.473      8.043
REMARK  Name = 4011971
REMARK  3 active torsions:
REMARK  status: ('A' for Active; 'I' for Inactive)
REMARK    1  A    between atoms: N_3  and  C_24
REMARK    2  A    between atoms: C_6  and  N_13
REMARK    3  A    between atoms: C_9  and  C_23
REMARK                            x       y       z     vdW  Elec       q    Type
REMARK                         _______ _______ _______ _____ _____    ______ ____
ROOT
ATOM      1  F   UNL     1      33.178  -8.514 -24.316  0.00  0.00    -0.203 F 
ATOM      2  O   UNL     1      33.761 -12.957 -26.617  0.00  0.00    -0.286 OA
ATOM      3  N   UNL     1      32.835 -13.867 -22.752  0.00  0.00    -0.287 N 
ATOM      4  C   UNL     1      32.915 -12.493 -23.121  0.00  0.00    +0.056 C 
ATOM      5  C   UNL     1      33.070 -14.843 -23.701  0.00  0.00    +0.075 C 
ATOM      6  C   UNL     1      32.776 -10.114 -22.609  0.00  0.00    +0.077 C 
ATOM      7  C   UNL     1      33.235 -12.149 -24.453  0.00  0.00    +0.055 C 
ATOM      8  C   UNL     1      32.688 -11.450 -22.210  0.00  0.00    +0.032 C 
ATOM      9  C   UNL     1      33.378 -14.623 -24.982  0.00  0.00    +0.133 C 
ATOM     10  C   UNL     1      33.484 -13.220 -25.454  0.00  0.00    +0.204 C 
ATOM     11  C   UNL     1      33.092  -9.794 -23.927  0.00  0.00    +0.153 C 
ATOM     12  C   UNL     1      33.323 -10.809 -24.852  0.00  0.00    +0.035 C 
ENDROOT
BRANCH   6  13
ATOM     13  N   UNL     1      32.546  -9.094 -21.679  0.00  0.00    -0.310 N 
ATOM     14  N   UNL     1      32.244  -7.107 -19.700  0.00  0.00    +0.386 N 
ATOM     15  C   UNL     1      32.259  -9.490 -20.291  0.00  0.00    +0.068 C 
ATOM     16  C   UNL     1      33.199  -7.791 -21.858  0.00  0.00    +0.068 C 
ATOM     17  C   UNL     1      31.495  -8.390 -19.568  0.00  0.00    -0.060 C 
ATOM     18  C   UNL     1      32.433  -6.700 -21.122  0.00  0.00    -0.060 C 
ATOM     19  H   UNL     1      33.160  -7.217 -19.266  0.00  0.00    -0.084 HD
ATOM     20  H   UNL     1      31.695  -6.380 -19.240  0.00  0.00    -0.084 HD
ENDBRANCH   6  13
BRANCH   9  23
ATOM     21  O   UNL     1      34.732 -16.373 -25.769  0.00  0.00    -0.240 OA
ATOM     22  O   UNL     1      32.645 -16.087 -26.663  0.00  0.00    -0.240 OA
ATOM     23  C   UNL     1      33.607 -15.809 -25.892  0.00  0.00    +0.392 C 
ENDBRANCH   9  23
BRANCH   3  24
ATOM     24  C   UNL     1      32.504 -14.282 -21.372  0.00  0.00    +0.077 C 
ATOM     25  C   UNL     1      32.447 -15.727 -21.002  0.00  0.00    +0.022 C 
ATOM     26  C   UNL     1      33.549 -14.856 -20.474  0.00  0.00    +0.022 C 
ENDBRANCH   3  24
TORSDOF 3
ENDMDL
