MODEL 1
REMARK VINA RESULT:     -10.5      0.000      0.000
REMARK  Name = 5729339
REMARK  4 active torsions:
REMARK  status: ('A' for Active; 'I' for Inactive)
REMARK    1  A    between atoms: C_2  and  C_16
REMARK    2  A    between atoms: C_3  and  C_10
REMARK    3  A    between atoms: C_17  and  S_22
REMARK    4  A    between atoms: S_22  and  N_25
REMARK                            x       y       z     vdW  Elec       q    Type
REMARK                         _______ _______ _______ _____ _____    ______ ____
ROOT
ATOM      1  O   UNL     1      34.447 -18.723 -22.569  0.00  0.00    -0.453 OA
ATOM      2  C   UNL     1      35.363 -19.119 -21.649  0.00  0.00    +0.145 C 
ATOM      3  C   UNL     1      35.062 -17.792 -23.344  0.00  0.00    +0.147 C 
ATOM      4  C   UNL     1      36.551 -18.458 -21.823  0.00  0.00    +0.041 C 
ATOM      5  C   UNL     1      36.357 -17.594 -22.925  0.00  0.00    +0.041 C 
ENDROOT
BRANCH   3  10
ATOM      6  S   UNL     1      34.240 -14.639 -23.300  0.00  0.00    -0.027 S 
ATOM      7  O   UNL     1      33.032 -15.898 -26.681  0.00  0.00    -0.209 OA
ATOM      8  N   UNL     1      33.047 -13.913 -25.484  0.00  0.00    -0.311 NA
ATOM      9  N   UNL     1      33.333 -12.191 -23.854  0.00  0.00    -0.327 N 
ATOM     10  C   UNL     1      34.400 -17.153 -24.418  0.00  0.00    +0.057 C 
ATOM     11  C   UNL     1      34.011 -15.839 -24.502  0.00  0.00    +0.131 C 
ATOM     12  C   UNL     1      33.316 -15.255 -25.679  0.00  0.00    +0.213 C 
ATOM     13  C   UNL     1      33.451 -13.460 -24.336  0.00  0.00    +0.222 C 
ATOM     14  H   UNL     1      33.683 -11.970 -22.961  0.00  0.00    +0.145 HD
ATOM     15  H   UNL     1      32.899 -11.497 -24.399  0.00  0.00    +0.145 HD
ENDBRANCH   3  10
BRANCH   2  16
ATOM     16  C   UNL     1      34.903 -20.119 -20.718  0.00  0.00    +0.035 C 
ATOM     17  C   UNL     1      34.012 -22.056 -18.917  0.00  0.00    +0.122 C 
ATOM     18  C   UNL     1      33.537 -20.270 -20.474  0.00  0.00    +0.004 C 
ATOM     19  C   UNL     1      35.822 -20.938 -20.062  0.00  0.00    +0.004 C 
ATOM     20  C   UNL     1      33.092 -21.238 -19.574  0.00  0.00    +0.020 C 
ATOM     21  C   UNL     1      35.377 -21.906 -19.161  0.00  0.00    +0.020 C 
BRANCH  17  22
ATOM     22  S   UNL     1      33.455 -23.267 -17.791  0.00  0.00    +0.057 S 
ATOM     23  O   UNL     1      32.200 -22.811 -17.208  0.00  0.00    -0.153 OA
ATOM     24  O   UNL     1      33.518 -24.568 -18.442  0.00  0.00    -0.153 OA
BRANCH  22  25
ATOM     25  N   UNL     1      34.677 -23.191 -16.599  0.00  0.00    -0.203 NA
ATOM     26  H   UNL     1      34.598 -23.996 -15.979  0.00  0.00    +0.144 HD
ATOM     27  H   UNL     1      34.571 -22.333 -16.058  0.00  0.00    +0.144 HD
ENDBRANCH  22  25
ENDBRANCH  17  22
ENDBRANCH   2  16
TORSDOF 4
ENDMDL
MODEL 2
REMARK VINA RESULT:     -10.2      1.717      2.083
REMARK  Name = 5729339
REMARK  4 active torsions:
REMARK  status: ('A' for Active; 'I' for Inactive)
REMARK    1  A    between atoms: C_2  and  C_16
REMARK    2  A    between atoms: C_3  and  C_10
REMARK    3  A    between atoms: C_17  and  S_22
REMARK    4  A    between atoms: S_22  and  N_25
REMARK                            x       y       z     vdW  Elec       q    Type
REMARK                         _______ _______ _______ _____ _____    ______ ____
ROOT
ATOM      1  O   UNL     1      34.318 -17.544 -21.879  0.00  0.00    -0.453 OA
ATOM      2  C   UNL     1      34.779 -18.779 -22.198  0.00  0.00    +0.145 C 
ATOM      3  C   UNL     1      34.649 -16.732 -22.917  0.00  0.00    +0.147 C 
ATOM      4  C   UNL     1      35.398 -18.772 -23.420  0.00  0.00    +0.041 C 
ATOM      5  C   UNL     1      35.315 -17.441 -23.890  0.00  0.00    +0.041 C 
ENDROOT
BRANCH   3  10
ATOM      6  S   UNL     1      33.673 -15.163 -25.601  0.00  0.00    -0.027 S 
ATOM      7  O   UNL     1      33.661 -12.506 -22.879  0.00  0.00    -0.209 OA
ATOM      8  N   UNL     1      33.186 -12.658 -25.142  0.00  0.00    -0.311 NA
ATOM      9  N   UNL     1      32.843 -13.371 -27.395  0.00  0.00    -0.327 N 
ATOM     10  C   UNL     1      34.322 -15.356 -22.930  0.00  0.00    +0.057 C 
ATOM     11  C   UNL     1      33.903 -14.603 -23.998  0.00  0.00    +0.131 C 
ATOM     12  C   UNL     1      33.581 -13.155 -23.913  0.00  0.00    +0.213 C 
ATOM     13  C   UNL     1      33.182 -13.549 -26.088  0.00  0.00    +0.222 C 
ATOM     14  H   UNL     1      32.881 -14.131 -28.020  0.00  0.00    +0.145 HD
ATOM     15  H   UNL     1      32.562 -12.484 -27.715  0.00  0.00    +0.145 HD
ENDBRANCH   3  10
BRANCH   2  16
ATOM     16  C   UNL     1      34.524 -19.801 -21.212  0.00  0.00    +0.035 C 
ATOM     17  C   UNL     1      34.032 -21.778 -19.306  0.00  0.00    +0.122 C 
ATOM     18  C   UNL     1      33.216 -20.068 -20.806  0.00  0.00    +0.004 C 
ATOM     19  C   UNL     1      35.585 -20.523 -20.666  0.00  0.00    +0.004 C 
ATOM     20  C   UNL     1      32.970 -21.056 -19.853  0.00  0.00    +0.020 C 
ATOM     21  C   UNL     1      35.339 -21.511 -19.713  0.00  0.00    +0.020 C 
BRANCH  17  22
ATOM     22  S   UNL     1      33.724 -23.015 -18.114  0.00  0.00    +0.057 S 
ATOM     23  O   UNL     1      33.679 -24.304 -18.791  0.00  0.00    -0.153 OA
ATOM     24  O   UNL     1      34.635 -22.817 -16.996  0.00  0.00    -0.153 OA
BRANCH  22  25
ATOM     25  N   UNL     1      32.143 -22.600 -17.613  0.00  0.00    -0.203 NA
ATOM     26  H   UNL     1      31.663 -23.434 -17.277  0.00  0.00    +0.144 HD
ATOM     27  H   UNL     1      31.630 -22.206 -18.401  0.00  0.00    +0.144 HD
ENDBRANCH  22  25
ENDBRANCH  17  22
ENDBRANCH   2  16
TORSDOF 4
ENDMDL
MODEL 3
REMARK VINA RESULT:     -10.1      1.528      1.717
REMARK  Name = 5729339
REMARK  4 active torsions:
REMARK  status: ('A' for Active; 'I' for Inactive)
REMARK    1  A    between atoms: C_2  and  C_16
REMARK    2  A    between atoms: C_3  and  C_10
REMARK    3  A    between atoms: C_17  and  S_22
REMARK    4  A    between atoms: S_22  and  N_25
REMARK                            x       y       z     vdW  Elec       q    Type
REMARK                         _______ _______ _______ _____ _____    ______ ____
ROOT
ATOM      1  O   UNL     1      34.159 -17.855 -22.109  0.00  0.00    -0.453 OA
ATOM      2  C   UNL     1      35.140 -18.728 -21.768  0.00  0.00    +0.145 C 
ATOM      3  C   UNL     1      34.727 -16.951 -22.950  0.00  0.00    +0.147 C 
ATOM      4  C   UNL     1      36.323 -18.399 -22.376  0.00  0.00    +0.041 C 
ATOM      5  C   UNL     1      36.057 -17.243 -23.146  0.00  0.00    +0.041 C 
ENDROOT
BRANCH   3  10
ATOM      6  S   UNL     1      33.303 -14.639 -21.150  0.00  0.00    -0.027 S 
ATOM      7  O   UNL     1      32.486 -13.695 -24.743  0.00  0.00    -0.209 OA
ATOM      8  N   UNL     1      32.070 -12.887 -22.611  0.00  0.00    -0.311 NA
ATOM      9  N   UNL     1      31.956 -12.516 -20.255  0.00  0.00    -0.327 N 
ATOM     10  C   UNL     1      33.992 -15.881 -23.511  0.00  0.00    +0.057 C 
ATOM     11  C   UNL     1      33.356 -14.860 -22.848  0.00  0.00    +0.131 C 
ATOM     12  C   UNL     1      32.603 -13.775 -23.528  0.00  0.00    +0.213 C 
ATOM     13  C   UNL     1      32.337 -13.190 -21.376  0.00  0.00    +0.222 C 
ATOM     14  H   UNL     1      32.224 -12.848 -19.368  0.00  0.00    +0.145 HD
ATOM     15  H   UNL     1      31.414 -11.698 -20.333  0.00  0.00    +0.145 HD
ENDBRANCH   3  10
BRANCH   2  16
ATOM     16  C   UNL     1      34.737 -19.781 -20.869  0.00  0.00    +0.035 C 
ATOM     17  C   UNL     1      33.957 -21.819 -19.129  0.00  0.00    +0.122 C 
ATOM     18  C   UNL     1      33.391 -19.941 -20.542  0.00  0.00    +0.004 C 
ATOM     19  C   UNL     1      35.694 -20.639 -20.327  0.00  0.00    +0.004 C 
ATOM     20  C   UNL     1      33.001 -20.960 -19.672  0.00  0.00    +0.020 C 
ATOM     21  C   UNL     1      35.304 -21.658 -19.457  0.00  0.00    +0.020 C 
BRANCH  17  22
ATOM     22  S   UNL     1      33.470 -23.094 -18.042  0.00  0.00    +0.057 S 
ATOM     23  O   UNL     1      32.174 -22.745 -17.477  0.00  0.00    -0.153 OA
ATOM     24  O   UNL     1      33.644 -24.371 -18.719  0.00  0.00    -0.153 OA
BRANCH  22  25
ATOM     25  N   UNL     1      34.658 -22.954 -16.822  0.00  0.00    -0.203 NA
ATOM     26  H   UNL     1      35.242 -23.790 -16.818  0.00  0.00    +0.144 HD
ATOM     27  H   UNL     1      34.203 -22.852 -15.915  0.00  0.00    +0.144 HD
ENDBRANCH  22  25
ENDBRANCH  17  22
ENDBRANCH   2  16
TORSDOF 4
ENDMDL
MODEL 4
REMARK VINA RESULT:     -10.1      3.458      8.540
REMARK  Name = 5729339
REMARK  4 active torsions:
REMARK  status: ('A' for Active; 'I' for Inactive)
REMARK    1  A    between atoms: C_2  and  C_16
REMARK    2  A    between atoms: C_3  and  C_10
REMARK    3  A    between atoms: C_17  and  S_22
REMARK    4  A    between atoms: S_22  and  N_25
REMARK                            x       y       z     vdW  Elec       q    Type
REMARK                         _______ _______ _______ _____ _____    ______ ____
ROOT
ATOM      1  O   UNL     1      34.683 -17.101 -21.654  0.00  0.00    -0.453 OA
ATOM      2  C   UNL     1      34.253 -16.332 -22.686  0.00  0.00    +0.145 C 
ATOM      3  C   UNL     1      35.290 -18.182 -22.208  0.00  0.00    +0.147 C 
ATOM      4  C   UNL     1      34.575 -16.902 -23.890  0.00  0.00    +0.041 C 
ATOM      5  C   UNL     1      35.250 -18.106 -23.581  0.00  0.00    +0.041 C 
ENDROOT
BRANCH   3  10
ATOM      6  S   UNL     1      33.518 -20.244 -20.414  0.00  0.00    -0.027 S 
ATOM      7  O   UNL     1      37.122 -21.308 -19.819  0.00  0.00    -0.209 OA
ATOM      8  N   UNL     1      35.000 -21.951 -19.143  0.00  0.00    -0.311 NA
ATOM      9  N   UNL     1      32.649 -22.177 -18.791  0.00  0.00    -0.327 N 
ATOM     10  C   UNL     1      35.864 -19.207 -21.422  0.00  0.00    +0.057 C 
ATOM     11  C   UNL     1      35.213 -20.125 -20.634  0.00  0.00    +0.131 C 
ATOM     12  C   UNL     1      35.906 -21.171 -19.839  0.00  0.00    +0.213 C 
ATOM     13  C   UNL     1      33.762 -21.606 -19.332  0.00  0.00    +0.222 C 
ATOM     14  H   UNL     1      31.758 -21.821 -19.013  0.00  0.00    +0.145 HD
ATOM     15  H   UNL     1      32.736 -22.942 -18.179  0.00  0.00    +0.145 HD
ENDBRANCH   3  10
BRANCH   2  16
ATOM     16  C   UNL     1      33.573 -15.119 -22.305  0.00  0.00    +0.035 C 
ATOM     17  C   UNL     1      32.258 -12.771 -21.567  0.00  0.00    +0.122 C 
ATOM     18  C   UNL     1      33.152 -14.940 -20.987  0.00  0.00    +0.004 C 
ATOM     19  C   UNL     1      33.337 -14.124 -23.253  0.00  0.00    +0.004 C 
ATOM     20  C   UNL     1      32.494 -13.766 -20.618  0.00  0.00    +0.020 C 
ATOM     21  C   UNL     1      32.680 -12.950 -22.885  0.00  0.00    +0.020 C 
BRANCH  17  22
ATOM     22  S   UNL     1      31.436 -11.303 -21.105  0.00  0.00    +0.057 S 
ATOM     23  O   UNL     1      32.093 -10.182 -21.763  0.00  0.00    -0.153 OA
ATOM     24  O   UNL     1      30.003 -11.501 -21.275  0.00  0.00    -0.153 OA
BRANCH  22  25
ATOM     25  N   UNL     1      31.786 -11.244 -19.434  0.00  0.00    -0.203 NA
ATOM     26  H   UNL     1      31.613 -10.303 -19.083  0.00  0.00    +0.144 HD
ATOM     27  H   UNL     1      32.764 -11.489 -19.283  0.00  0.00    +0.144 HD
ENDBRANCH  22  25
ENDBRANCH  17  22
ENDBRANCH   2  16
TORSDOF 4
ENDMDL
MODEL 5
REMARK VINA RESULT:     -10.0      3.028      4.058
REMARK  Name = 5729339
REMARK  4 active torsions:
REMARK  status: ('A' for Active; 'I' for Inactive)
REMARK    1  A    between atoms: C_2  and  C_16
REMARK    2  A    between atoms: C_3  and  C_10
REMARK    3  A    between atoms: C_17  and  S_22
REMARK    4  A    between atoms: S_22  and  N_25
REMARK                            x       y       z     vdW  Elec       q    Type
REMARK                         _______ _______ _______ _____ _____    ______ ____
ROOT
ATOM      1  O   UNL     1      35.052 -20.634 -20.141  0.00  0.00    -0.453 OA
ATOM      2  C   UNL     1      34.324 -21.289 -19.202  0.00  0.00    +0.145 C 
ATOM      3  C   UNL     1      34.161 -20.123 -21.030  0.00  0.00    +0.147 C 
ATOM      4  C   UNL     1      32.983 -21.205 -19.474  0.00  0.00    +0.041 C 
ATOM      5  C   UNL     1      32.875 -20.447 -20.664  0.00  0.00    +0.041 C 
ENDROOT
BRANCH   3  10
ATOM      6  S   UNL     1      34.224 -16.866 -21.060  0.00  0.00    -0.027 S 
ATOM      7  O   UNL     1      35.428 -17.881 -24.524  0.00  0.00    -0.209 OA
ATOM      8  N   UNL     1      35.040 -15.929 -23.336  0.00  0.00    -0.311 NA
ATOM      9  N   UNL     1      34.490 -14.287 -21.692  0.00  0.00    -0.327 N 
ATOM     10  C   UNL     1      34.569 -19.371 -22.156  0.00  0.00    +0.057 C 
ATOM     11  C   UNL     1      34.633 -18.005 -22.274  0.00  0.00    +0.131 C 
ATOM     12  C   UNL     1      35.077 -17.301 -23.505  0.00  0.00    +0.213 C 
ATOM     13  C   UNL     1      34.632 -15.559 -22.159  0.00  0.00    +0.222 C 
ATOM     14  H   UNL     1      34.169 -14.135 -20.773  0.00  0.00    +0.145 HD
ATOM     15  H   UNL     1      34.706 -13.522 -22.272  0.00  0.00    +0.145 HD
ENDBRANCH   3  10
BRANCH   2  16
ATOM     16  C   UNL     1      35.093 -21.910 -18.153  0.00  0.00    +0.035 C 
ATOM     17  C   UNL     1      36.583 -23.112 -16.122  0.00  0.00    +0.122 C 
ATOM     18  C   UNL     1      36.454 -21.631 -18.028  0.00  0.00    +0.004 C 
ATOM     19  C   UNL     1      34.477 -22.789 -17.263  0.00  0.00    +0.004 C 
ATOM     20  C   UNL     1      37.199 -22.232 -17.012  0.00  0.00    +0.020 C 
ATOM     21  C   UNL     1      35.221 -23.390 -16.248  0.00  0.00    +0.020 C 
BRANCH  17  22
ATOM     22  S   UNL     1      37.513 -23.863 -14.852  0.00  0.00    +0.057 S 
ATOM     23  O   UNL     1      37.581 -22.942 -13.725  0.00  0.00    -0.153 OA
ATOM     24  O   UNL     1      37.015 -25.216 -14.651  0.00  0.00    -0.153 OA
BRANCH  22  25
ATOM     25  N   UNL     1      39.055 -23.951 -15.585  0.00  0.00    -0.203 NA
ATOM     26  H   UNL     1      39.720 -24.361 -14.930  0.00  0.00    +0.144 HD
ATOM     27  H   UNL     1      39.363 -23.014 -15.841  0.00  0.00    +0.144 HD
ENDBRANCH  22  25
ENDBRANCH  17  22
ENDBRANCH   2  16
TORSDOF 4
ENDMDL
MODEL 6
REMARK VINA RESULT:     -10.0      4.355     10.756
REMARK  Name = 5729339
REMARK  4 active torsions:
REMARK  status: ('A' for Active; 'I' for Inactive)
REMARK    1  A    between atoms: C_2  and  C_16
REMARK    2  A    between atoms: C_3  and  C_10
REMARK    3  A    between atoms: C_17  and  S_22
REMARK    4  A    between atoms: S_22  and  N_25
REMARK                            x       y       z     vdW  Elec       q    Type
REMARK                         _______ _______ _______ _____ _____    ______ ____
ROOT
ATOM      1  O   UNL     1      35.222 -23.469 -16.920  0.00  0.00    -0.453 OA
ATOM      2  C   UNL     1      34.134 -22.845 -17.437  0.00  0.00    +0.145 C 
ATOM      3  C   UNL     1      34.764 -24.277 -15.928  0.00  0.00    +0.147 C 
ATOM      4  C   UNL     1      32.990 -23.239 -16.793  0.00  0.00    +0.041 C 
ATOM      5  C   UNL     1      33.398 -24.171 -15.811  0.00  0.00    +0.041 C 
ENDROOT
BRANCH   3  10
ATOM      6  S   UNL     1      35.678 -23.525 -12.893  0.00  0.00    -0.027 S 
ATOM      7  O   UNL     1      37.427 -26.821 -13.632  0.00  0.00    -0.209 OA
ATOM      8  N   UNL     1      37.269 -25.307 -11.884  0.00  0.00    -0.311 NA
ATOM      9  N   UNL     1      36.756 -23.466 -10.452  0.00  0.00    -0.327 N 
ATOM     10  C   UNL     1      35.631 -25.089 -15.161  0.00  0.00    +0.057 C 
ATOM     11  C   UNL     1      36.076 -24.867 -13.881  0.00  0.00    +0.131 C 
ATOM     12  C   UNL     1      36.991 -25.783 -13.153  0.00  0.00    +0.213 C 
ATOM     13  C   UNL     1      36.681 -24.182 -11.609  0.00  0.00    +0.222 C 
ATOM     14  H   UNL     1      36.260 -22.620 -10.365  0.00  0.00    +0.145 HD
ATOM     15  H   UNL     1      37.306 -23.794  -9.705  0.00  0.00    +0.145 HD
ENDBRANCH   3  10
BRANCH   2  16
ATOM     16  C   UNL     1      34.408 -21.931 -18.518  0.00  0.00    +0.035 C 
ATOM     17  C   UNL     1      34.939 -20.163 -20.611  0.00  0.00    +0.122 C 
ATOM     18  C   UNL     1      35.726 -21.619 -18.851  0.00  0.00    +0.004 C 
ATOM     19  C   UNL     1      33.355 -21.359 -19.233  0.00  0.00    +0.004 C 
ATOM     20  C   UNL     1      35.991 -20.735 -19.897  0.00  0.00    +0.020 C 
ATOM     21  C   UNL     1      33.620 -20.476 -20.279  0.00  0.00    +0.020 C 
BRANCH  17  22
ATOM     22  S   UNL     1      35.270 -19.058 -21.921  0.00  0.00    +0.057 S 
ATOM     23  O   UNL     1      36.657 -18.625 -21.816  0.00  0.00    -0.153 OA
ATOM     24  O   UNL     1      34.790 -19.652 -23.160  0.00  0.00    -0.153 OA
BRANCH  22  25
ATOM     25  N   UNL     1      34.251 -17.749 -21.509  0.00  0.00    -0.203 NA
ATOM     26  H   UNL     1      34.078 -17.180 -22.337  0.00  0.00    +0.144 HD
ATOM     27  H   UNL     1      34.701 -17.181 -20.792  0.00  0.00    +0.144 HD
ENDBRANCH  22  25
ENDBRANCH  17  22
ENDBRANCH   2  16
TORSDOF 4
ENDMDL
MODEL 7
REMARK VINA RESULT:      -9.9      4.425     10.622
REMARK  Name = 5729339
REMARK  4 active torsions:
REMARK  status: ('A' for Active; 'I' for Inactive)
REMARK    1  A    between atoms: C_2  and  C_16
REMARK    2  A    between atoms: C_3  and  C_10
REMARK    3  A    between atoms: C_17  and  S_22
REMARK    4  A    between atoms: S_22  and  N_25
REMARK                            x       y       z     vdW  Elec       q    Type
REMARK                         _______ _______ _______ _____ _____    ______ ____
ROOT
ATOM      1  O   UNL     1      36.129 -22.558 -17.064  0.00  0.00    -0.453 OA
ATOM      2  C   UNL     1      34.949 -22.425 -17.720  0.00  0.00    +0.145 C 
ATOM      3  C   UNL     1      35.897 -23.408 -16.029  0.00  0.00    +0.147 C 
ATOM      4  C   UNL     1      33.968 -23.174 -17.125  0.00  0.00    +0.041 C 
ATOM      5  C   UNL     1      34.583 -23.815 -16.024  0.00  0.00    +0.041 C 
ENDROOT
BRANCH   3  10
ATOM      6  S   UNL     1      35.353 -23.886 -12.853  0.00  0.00    -0.027 S 
ATOM      7  O   UNL     1      39.071 -24.553 -13.299  0.00  0.00    -0.209 OA
ATOM      8  N   UNL     1      37.512 -24.555 -11.584  0.00  0.00    -0.311 NA
ATOM      9  N   UNL     1      35.542 -24.408 -10.243  0.00  0.00    -0.327 N 
ATOM     10  C   UNL     1      36.915 -23.780 -15.121  0.00  0.00    +0.057 C 
ATOM     11  C   UNL     1      36.794 -24.006 -13.772  0.00  0.00    +0.131 C 
ATOM     12  C   UNL     1      37.927 -24.396 -12.894  0.00  0.00    +0.213 C 
ATOM     13  C   UNL     1      36.245 -24.333 -11.408  0.00  0.00    +0.222 C 
ATOM     14  H   UNL     1      34.577 -24.215 -10.238  0.00  0.00    +0.145 HD
ATOM     15  H   UNL     1      36.000 -24.654  -9.407  0.00  0.00    +0.145 HD
ENDBRANCH   3  10
BRANCH   2  16
ATOM     16  C   UNL     1      34.981 -21.552 -18.867  0.00  0.00    +0.035 C 
ATOM     17  C   UNL     1      35.044 -19.862 -21.087  0.00  0.00    +0.122 C 
ATOM     18  C   UNL     1      33.792 -21.181 -19.496  0.00  0.00    +0.004 C 
ATOM     19  C   UNL     1      36.201 -21.076 -19.348  0.00  0.00    +0.004 C 
ATOM     20  C   UNL     1      33.824 -20.336 -20.606  0.00  0.00    +0.020 C 
ATOM     21  C   UNL     1      36.233 -20.231 -20.458  0.00  0.00    +0.020 C 
BRANCH  17  22
ATOM     22  S   UNL     1      35.083 -18.804 -22.475  0.00  0.00    +0.057 S 
ATOM     23  O   UNL     1      34.827 -19.600 -23.667  0.00  0.00    -0.153 OA
ATOM     24  O   UNL     1      34.257 -17.639 -22.192  0.00  0.00    -0.153 OA
BRANCH  22  25
ATOM     25  N   UNL     1      36.724 -18.325 -22.474  0.00  0.00    -0.203 NA
ATOM     26  H   UNL     1      37.161 -18.606 -23.351  0.00  0.00    +0.144 HD
ATOM     27  H   UNL     1      37.207 -18.771 -21.694  0.00  0.00    +0.144 HD
ENDBRANCH  22  25
ENDBRANCH  17  22
ENDBRANCH   2  16
TORSDOF 4
ENDMDL
MODEL 8
REMARK VINA RESULT:      -9.9      2.357      2.947
REMARK  Name = 5729339
REMARK  4 active torsions:
REMARK  status: ('A' for Active; 'I' for Inactive)
REMARK    1  A    between atoms: C_2  and  C_16
REMARK    2  A    between atoms: C_3  and  C_10
REMARK    3  A    between atoms: C_17  and  S_22
REMARK    4  A    between atoms: S_22  and  N_25
REMARK                            x       y       z     vdW  Elec       q    Type
REMARK                         _______ _______ _______ _____ _____    ______ ____
ROOT
ATOM      1  O   UNL     1      33.280 -16.688 -21.235  0.00  0.00    -0.453 OA
ATOM      2  C   UNL     1      34.116 -17.635 -21.731  0.00  0.00    +0.145 C 
ATOM      3  C   UNL     1      33.429 -15.594 -22.026  0.00  0.00    +0.147 C 
ATOM      4  C   UNL     1      34.794 -17.166 -22.825  0.00  0.00    +0.041 C 
ATOM      5  C   UNL     1      34.349 -15.837 -23.019  0.00  0.00    +0.041 C 
ENDROOT
BRANCH   3  10
ATOM      6  S   UNL     1      33.942 -12.860 -23.722  0.00  0.00    -0.027 S 
ATOM      7  O   UNL     1      31.162 -11.967 -21.284  0.00  0.00    -0.209 OA
ATOM      8  N   UNL     1      32.380 -10.934 -22.963  0.00  0.00    -0.311 NA
ATOM      9  N   UNL     1      33.889 -10.390 -24.732  0.00  0.00    -0.327 N 
ATOM     10  C   UNL     1      32.704 -14.401 -21.802  0.00  0.00    +0.057 C 
ATOM     11  C   UNL     1      32.839 -13.201 -22.456  0.00  0.00    +0.131 C 
ATOM     12  C   UNL     1      32.027 -11.995 -22.148  0.00  0.00    +0.213 C 
ATOM     13  C   UNL     1      33.328 -11.217 -23.805  0.00  0.00    +0.222 C 
ATOM     14  H   UNL     1      34.607 -10.724 -25.317  0.00  0.00    +0.145 HD
ATOM     15  H   UNL     1      33.578  -9.460 -24.815  0.00  0.00    +0.145 HD
ENDBRANCH   3  10
BRANCH   2  16
ATOM     16  C   UNL     1      34.108 -18.891 -21.023  0.00  0.00    +0.035 C 
ATOM     17  C   UNL     1      34.092 -21.322 -19.654  0.00  0.00    +0.122 C 
ATOM     18  C   UNL     1      32.899 -19.448 -20.604  0.00  0.00    +0.004 C 
ATOM     19  C   UNL     1      35.308 -19.550 -20.758  0.00  0.00    +0.004 C 
ATOM     20  C   UNL     1      32.891 -20.663 -19.920  0.00  0.00    +0.020 C 
ATOM     21  C   UNL     1      35.300 -20.766 -20.074  0.00  0.00    +0.020 C 
BRANCH  17  22
ATOM     22  S   UNL     1      34.082 -22.843 -18.798  0.00  0.00    +0.057 S 
ATOM     23  O   UNL     1      34.039 -23.921 -19.777  0.00  0.00    -0.153 OA
ATOM     24  O   UNL     1      35.139 -22.818 -17.797  0.00  0.00    -0.153 OA
BRANCH  22  25
ATOM     25  N   UNL     1      32.572 -22.761 -18.002  0.00  0.00    -0.203 NA
ATOM     26  H   UNL     1      32.568 -21.967 -17.362  0.00  0.00    +0.144 HD
ATOM     27  H   UNL     1      32.417 -23.622 -17.479  0.00  0.00    +0.144 HD
ENDBRANCH  22  25
ENDBRANCH  17  22
ENDBRANCH   2  16
TORSDOF 4
ENDMDL
MODEL 9
REMARK VINA RESULT:      -9.8      3.653      9.267
REMARK  Name = 5729339
REMARK  4 active torsions:
REMARK  status: ('A' for Active; 'I' for Inactive)
REMARK    1  A    between atoms: C_2  and  C_16
REMARK    2  A    between atoms: C_3  and  C_10
REMARK    3  A    between atoms: C_17  and  S_22
REMARK    4  A    between atoms: S_22  and  N_25
REMARK                            x       y       z     vdW  Elec       q    Type
REMARK                         _______ _______ _______ _____ _____    ______ ____
ROOT
ATOM      1  O   UNL     1      34.599 -15.536 -22.611  0.00  0.00    -0.453 OA
ATOM      2  C   UNL     1      33.927 -14.928 -23.621  0.00  0.00    +0.145 C 
ATOM      3  C   UNL     1      34.963 -16.760 -23.076  0.00  0.00    +0.147 C 
ATOM      4  C   UNL     1      33.856 -15.740 -24.722  0.00  0.00    +0.041 C 
ATOM      5  C   UNL     1      34.530 -16.933 -24.370  0.00  0.00    +0.041 C 
ENDROOT
BRANCH   3  10
ATOM      6  S   UNL     1      33.532 -19.090 -21.305  0.00  0.00    -0.027 S 
ATOM      7  O   UNL     1      37.254 -19.550 -20.667  0.00  0.00    -0.209 OA
ATOM      8  N   UNL     1      35.258 -20.535 -20.018  0.00  0.00    -0.311 NA
ATOM      9  N   UNL     1      32.972 -21.143 -19.695  0.00  0.00    -0.327 N 
ATOM     10  C   UNL     1      35.688 -17.679 -22.283  0.00  0.00    +0.057 C 
ATOM     11  C   UNL     1      35.187 -18.693 -21.504  0.00  0.00    +0.131 C 
ATOM     12  C   UNL     1      36.032 -19.615 -20.702  0.00  0.00    +0.213 C 
ATOM     13  C   UNL     1      33.982 -20.397 -20.222  0.00  0.00    +0.222 C 
ATOM     14  H   UNL     1      32.037 -20.938 -19.928  0.00  0.00    +0.145 HD
ATOM     15  H   UNL     1      33.176 -21.886 -19.083  0.00  0.00    +0.145 HD
ENDBRANCH   3  10
BRANCH   2  16
ATOM     16  C   UNL     1      33.450 -13.599 -23.326  0.00  0.00    +0.035 C 
ATOM     17  C   UNL     1      32.526 -11.029 -22.755  0.00  0.00    +0.122 C 
ATOM     18  C   UNL     1      32.528 -13.401 -22.298  0.00  0.00    +0.004 C 
ATOM     19  C   UNL     1      33.910 -12.511 -24.068  0.00  0.00    +0.004 C 
ATOM     20  C   UNL     1      32.067 -12.116 -22.012  0.00  0.00    +0.020 C 
ATOM     21  C   UNL     1      33.449 -11.226 -23.783  0.00  0.00    +0.020 C 
BRANCH  17  22
ATOM     22  S   UNL     1      31.950  -9.421 -22.398  0.00  0.00    +0.057 S 
ATOM     23  O   UNL     1      30.904  -9.085 -23.354  0.00  0.00    -0.153 OA
ATOM     24  O   UNL     1      31.678  -9.333 -20.970  0.00  0.00    -0.153 OA
BRANCH  22  25
ATOM     25  N   UNL     1      33.339  -8.490 -22.750  0.00  0.00    -0.203 NA
ATOM     26  H   UNL     1      33.410  -8.352 -23.757  0.00  0.00    +0.144 HD
ATOM     27  H   UNL     1      34.169  -8.978 -22.413  0.00  0.00    +0.144 HD
ENDBRANCH  22  25
ENDBRANCH  17  22
ENDBRANCH   2  16
TORSDOF 4
ENDMDL
