MODEL 1
REMARK VINA RESULT:      -9.2      0.000      0.000
REMARK  Name = 5761
REMARK  3 active torsions:
REMARK  status: ('A' for Active; 'I' for Inactive)
REMARK    1  A    between atoms: C_6  and  C_22
REMARK    2  A    between atoms: N_21  and  C_23
REMARK    3  A    between atoms: N_21  and  C_25
REMARK                            x       y       z     vdW  Elec       q    Type
REMARK                         _______ _______ _______ _____ _____    ______ ____
ROOT
ATOM      1  N   UNL     1      33.673 -13.181 -26.334  0.00  0.00    +0.390 N 
ATOM      2  N   UNL     1      34.757 -18.295 -23.350  0.00  0.00    -0.312 N 
ATOM      3  C   UNL     1      34.189 -14.168 -25.345  0.00  0.00    -0.031 C 
ATOM      4  C   UNL     1      33.928 -13.793 -23.856  0.00  0.00    -0.045 C 
ATOM      5  C   UNL     1      33.811 -15.642 -25.735  0.00  0.00    +0.011 C 
ATOM      6  C   UNL     1      33.327 -11.471 -24.539  0.00  0.00    +0.078 C 
ATOM      7  C   UNL     1      33.974 -11.813 -25.886  0.00  0.00    -0.063 C 
ATOM      8  C   UNL     1      34.220 -16.586 -24.663  0.00  0.00    -0.008 C 
ATOM      9  C   UNL     1      34.215 -14.822 -22.828  0.00  0.00    -0.005 C 
ATOM     10  C   UNL     1      34.361 -16.121 -23.337  0.00  0.00    +0.010 C 
ATOM     11  C   UNL     1      33.501 -12.561 -23.520  0.00  0.00    -0.026 C 
ATOM     12  C   UNL     1      34.682 -17.196 -22.523  0.00  0.00    +0.048 C 
ATOM     13  C   UNL     1      32.257 -13.330 -26.667  0.00  0.00    -0.100 C 
ATOM     14  C   UNL     1      34.473 -17.937 -24.650  0.00  0.00    +0.058 C 
ATOM     15  C   UNL     1      34.395 -14.656 -21.449  0.00  0.00    -0.000 C 
ATOM     16  C   UNL     1      34.863 -17.045 -21.148  0.00  0.00    +0.015 C 
ATOM     17  C   UNL     1      34.710 -15.751 -20.630  0.00  0.00    +0.001 C 
ATOM     18  H   UNL     1      34.165 -13.378 -27.206  0.00  0.00    -0.079 HD
ATOM     19  H   UNL     1      34.981 -19.208 -23.054  0.00  0.00    +0.152 HD
ENDROOT
BRANCH   6  22
ATOM     20  O   UNL     1      35.165 -10.034 -24.182  0.00  0.00    -0.275 OA
ATOM     21  N   UNL     1      33.146  -9.394 -23.226  0.00  0.00    -0.279 N 
ATOM     22  C   UNL     1      33.967 -10.241 -23.971  0.00  0.00    +0.227 C 
BRANCH  21  23
ATOM     23  C   UNL     1      33.640  -8.164 -22.618  0.00  0.00    +0.093 C 
ATOM     24  C   UNL     1      33.502  -6.988 -23.570  0.00  0.00    +0.023 C 
ENDBRANCH  21  23
BRANCH  21  25
ATOM     25  C   UNL     1      31.731  -9.678 -23.001  0.00  0.00    +0.093 C 
ATOM     26  C   UNL     1      31.477 -10.099 -21.563  0.00  0.00    +0.023 C 
ENDBRANCH  21  25
ENDBRANCH   6  22
TORSDOF 3
ENDMDL
MODEL 2
REMARK VINA RESULT:      -8.8      3.766      8.285
REMARK  Name = 5761
REMARK  3 active torsions:
REMARK  status: ('A' for Active; 'I' for Inactive)
REMARK    1  A    between atoms: C_6  and  C_22
REMARK    2  A    between atoms: N_21  and  C_23
REMARK    3  A    between atoms: N_21  and  C_25
REMARK                            x       y       z     vdW  Elec       q    Type
REMARK                         _______ _______ _______ _____ _____    ______ ____
ROOT
ATOM      1  N   UNL     1      35.140 -18.503 -23.454  0.00  0.00    +0.390 N 
ATOM      2  N   UNL     1      33.192 -12.811 -23.636  0.00  0.00    -0.312 N 
ATOM      3  C   UNL     1      34.325 -17.273 -23.256  0.00  0.00    -0.031 C 
ATOM      4  C   UNL     1      33.994 -16.945 -21.770  0.00  0.00    -0.045 C 
ATOM      5  C   UNL     1      34.872 -16.064 -24.097  0.00  0.00    +0.011 C 
ATOM      6  C   UNL     1      34.727 -19.231 -21.094  0.00  0.00    +0.078 C 
ATOM      7  C   UNL     1      34.647 -19.582 -22.585  0.00  0.00    -0.063 C 
ATOM      8  C   UNL     1      34.124 -14.822 -23.774  0.00  0.00    -0.008 C 
ATOM      9  C   UNL     1      33.377 -15.628 -21.478  0.00  0.00    -0.005 C 
ATOM     10  C   UNL     1      33.479 -14.700 -22.524  0.00  0.00    +0.010 C 
ATOM     11  C   UNL     1      34.221 -17.848 -20.798  0.00  0.00    -0.026 C 
ATOM     12  C   UNL     1      32.913 -13.437 -22.441  0.00  0.00    +0.048 C 
ATOM     13  C   UNL     1      36.582 -18.315 -23.297  0.00  0.00    -0.100 C 
ATOM     14  C   UNL     1      33.931 -13.641 -24.450  0.00  0.00    +0.058 C 
ATOM     15  C   UNL     1      32.687 -15.220 -20.330  0.00  0.00    -0.000 C 
ATOM     16  C   UNL     1      32.222 -13.018 -21.304  0.00  0.00    +0.015 C 
ATOM     17  C   UNL     1      32.124 -13.937 -20.249  0.00  0.00    +0.001 C 
ATOM     18  H   UNL     1      35.020 -18.763 -24.433  0.00  0.00    -0.079 HD
ATOM     19  H   UNL     1      32.905 -11.899 -23.874  0.00  0.00    +0.152 HD
ENDROOT
BRANCH   6  22
ATOM     20  O   UNL     1      32.651 -20.057 -20.334  0.00  0.00    -0.275 OA
ATOM     21  N   UNL     1      34.549 -21.167 -19.581  0.00  0.00    -0.279 N 
ATOM     22  C   UNL     1      33.878 -20.182 -20.307  0.00  0.00    +0.227 C 
BRANCH  21  23
ATOM     23  C   UNL     1      33.846 -22.156 -18.773  0.00  0.00    +0.093 C 
ATOM     24  C   UNL     1      33.913 -23.533 -19.411  0.00  0.00    +0.023 C 
ENDBRANCH  21  23
BRANCH  21  25
ATOM     25  C   UNL     1      36.006 -21.277 -19.577  0.00  0.00    +0.093 C 
ATOM     26  C   UNL     1      36.530 -21.581 -18.184  0.00  0.00    +0.023 C 
ENDBRANCH  21  25
ENDBRANCH   6  22
TORSDOF 3
ENDMDL
MODEL 3
REMARK VINA RESULT:      -7.7      2.272      4.417
REMARK  Name = 5761
REMARK  3 active torsions:
REMARK  status: ('A' for Active; 'I' for Inactive)
REMARK    1  A    between atoms: C_6  and  C_22
REMARK    2  A    between atoms: N_21  and  C_23
REMARK    3  A    between atoms: N_21  and  C_25
REMARK                            x       y       z     vdW  Elec       q    Type
REMARK                         _______ _______ _______ _____ _____    ______ ____
ROOT
ATOM      1  N   UNL     1      31.349 -10.626 -20.325  0.00  0.00    +0.390 N 
ATOM      2  N   UNL     1      33.159 -16.102 -22.049  0.00  0.00    -0.312 N 
ATOM      3  C   UNL     1      31.635 -11.836 -21.145  0.00  0.00    -0.031 C 
ATOM      4  C   UNL     1      32.459 -11.565 -22.438  0.00  0.00    -0.045 C 
ATOM      5  C   UNL     1      32.149 -13.032 -20.266  0.00  0.00    +0.011 C 
ATOM      6  C   UNL     1      32.048  -9.118 -22.198  0.00  0.00    +0.078 C 
ATOM      7  C   UNL     1      30.955  -9.508 -21.195  0.00  0.00    -0.063 C 
ATOM      8  C   UNL     1      32.553 -14.175 -21.126  0.00  0.00    -0.008 C 
ATOM      9  C   UNL     1      32.968 -12.740 -23.187  0.00  0.00    -0.005 C 
ATOM     10  C   UNL     1      32.939 -13.942 -22.464  0.00  0.00    +0.010 C 
ATOM     11  C   UNL     1      32.662 -10.309 -22.876  0.00  0.00    -0.026 C 
ATOM     12  C   UNL     1      33.329 -15.146 -23.028  0.00  0.00    +0.048 C 
ATOM     13  C   UNL     1      32.425 -10.234 -19.415  0.00  0.00    -0.100 C 
ATOM     14  C   UNL     1      32.693 -15.522 -20.890  0.00  0.00    +0.058 C 
ATOM     15  C   UNL     1      33.423 -12.805 -24.510  0.00  0.00    -0.000 C 
ATOM     16  C   UNL     1      33.785 -15.225 -24.343  0.00  0.00    +0.015 C 
ATOM     17  C   UNL     1      33.825 -14.027 -25.071  0.00  0.00    +0.001 C 
ATOM     18  H   UNL     1      30.574 -10.880 -19.713  0.00  0.00    -0.079 HD
ATOM     19  H   UNL     1      33.344 -17.062 -22.163  0.00  0.00    +0.152 HD
ENDROOT
BRANCH   6  22
ATOM     20  O   UNL     1      30.350  -8.549 -23.736  0.00  0.00    -0.275 OA
ATOM     21  N   UNL     1      32.220  -7.169 -23.695  0.00  0.00    -0.279 N 
ATOM     22  C   UNL     1      31.458  -8.260 -23.276  0.00  0.00    +0.227 C 
BRANCH  21  23
ATOM     23  C   UNL     1      31.766  -6.254 -24.735  0.00  0.00    +0.093 C 
ATOM     24  C   UNL     1      31.180  -4.988 -24.134  0.00  0.00    +0.023 C 
ENDBRANCH  21  23
BRANCH  21  25
ATOM     25  C   UNL     1      33.529  -6.865 -23.123  0.00  0.00    +0.093 C 
ATOM     26  C   UNL     1      34.648  -7.242 -24.078  0.00  0.00    +0.023 C 
ENDBRANCH  21  25
ENDBRANCH   6  22
TORSDOF 3
ENDMDL
MODEL 4
REMARK VINA RESULT:      -7.6      2.755      7.518
REMARK  Name = 5761
REMARK  3 active torsions:
REMARK  status: ('A' for Active; 'I' for Inactive)
REMARK    1  A    between atoms: C_6  and  C_22
REMARK    2  A    between atoms: N_21  and  C_23
REMARK    3  A    between atoms: N_21  and  C_25
REMARK                            x       y       z     vdW  Elec       q    Type
REMARK                         _______ _______ _______ _____ _____    ______ ____
ROOT
ATOM      1  N   UNL     1      34.134 -14.732 -20.607  0.00  0.00    +0.390 N 
ATOM      2  N   UNL     1      33.224 -11.399 -25.535  0.00  0.00    -0.312 N 
ATOM      3  C   UNL     1      34.192 -14.210 -22.000  0.00  0.00    -0.031 C 
ATOM      4  C   UNL     1      33.858 -15.258 -23.102  0.00  0.00    -0.045 C 
ATOM      5  C   UNL     1      33.447 -12.834 -22.143  0.00  0.00    +0.011 C 
ATOM      6  C   UNL     1      34.076 -17.096 -21.431  0.00  0.00    +0.078 C 
ATOM      7  C   UNL     1      34.767 -16.058 -20.538  0.00  0.00    -0.063 C 
ATOM      8  C   UNL     1      33.405 -12.409 -23.566  0.00  0.00    -0.008 C 
ATOM      9  C   UNL     1      33.682 -14.764 -24.489  0.00  0.00    -0.005 C 
ATOM     10  C   UNL     1      33.499 -13.377 -24.589  0.00  0.00    +0.010 C 
ATOM     11  C   UNL     1      33.777 -16.569 -22.805  0.00  0.00    -0.026 C 
ATOM     12  C   UNL     1      33.371 -12.741 -25.813  0.00  0.00    +0.048 C 
ATOM     13  C   UNL     1      32.796 -14.753 -20.015  0.00  0.00    -0.100 C 
ATOM     14  C   UNL     1      33.238 -11.187 -24.175  0.00  0.00    +0.058 C 
ATOM     15  C   UNL     1      33.715 -15.489 -25.688  0.00  0.00    -0.000 C 
ATOM     16  C   UNL     1      33.402 -13.450 -27.014  0.00  0.00    +0.015 C 
ATOM     17  C   UNL     1      33.575 -14.839 -26.923  0.00  0.00    +0.001 C 
ATOM     18  H   UNL     1      34.657 -14.067 -20.038  0.00  0.00    -0.079 HD
ATOM     19  H   UNL     1      33.122 -10.692 -26.214  0.00  0.00    +0.152 HD
ENDROOT
BRANCH   6  22
ATOM     20  O   UNL     1      36.051 -18.142 -22.193  0.00  0.00    -0.275 OA
ATOM     21  N   UNL     1      34.519 -19.495 -21.085  0.00  0.00    -0.279 N 
ATOM     22  C   UNL     1      34.974 -18.283 -21.608  0.00  0.00    +0.227 C 
BRANCH  21  23
ATOM     23  C   UNL     1      35.291 -20.727 -21.188  0.00  0.00    +0.093 C 
ATOM     24  C   UNL     1      36.314 -20.827 -20.069  0.00  0.00    +0.023 C 
ENDBRANCH  21  23
BRANCH  21  25
ATOM     25  C   UNL     1      33.235 -19.617 -20.400  0.00  0.00    +0.093 C 
ATOM     26  C   UNL     1      32.959 -21.056 -20.000  0.00  0.00    +0.023 C 
ENDBRANCH  21  25
ENDBRANCH   6  22
TORSDOF 3
ENDMDL
MODEL 5
REMARK VINA RESULT:      -7.5      1.958      6.595
REMARK  Name = 5761
REMARK  3 active torsions:
REMARK  status: ('A' for Active; 'I' for Inactive)
REMARK    1  A    between atoms: C_6  and  C_22
REMARK    2  A    between atoms: N_21  and  C_23
REMARK    3  A    between atoms: N_21  and  C_25
REMARK                            x       y       z     vdW  Elec       q    Type
REMARK                         _______ _______ _______ _____ _____    ______ ____
ROOT
ATOM      1  N   UNL     1      34.024 -10.626 -25.443  0.00  0.00    +0.390 N 
ATOM      2  N   UNL     1      31.772  -7.973 -20.531  0.00  0.00    -0.312 N 
ATOM      3  C   UNL     1      33.188 -10.321 -24.249  0.00  0.00    -0.031 C 
ATOM      4  C   UNL     1      33.084 -11.480 -23.215  0.00  0.00    -0.045 C 
ATOM      5  C   UNL     1      33.526  -8.913 -23.639  0.00  0.00    +0.011 C 
ATOM      6  C   UNL     1      34.039 -13.066 -24.885  0.00  0.00    +0.078 C 
ATOM      7  C   UNL     1      33.736 -11.983 -25.928  0.00  0.00    -0.063 C 
ATOM      8  C   UNL     1      32.775  -8.698 -22.376  0.00  0.00    -0.008 C 
ATOM      9  C   UNL     1      32.454 -11.179 -21.906  0.00  0.00    -0.005 C 
ATOM     10  C   UNL     1      32.335  -9.810 -21.625  0.00  0.00    +0.010 C 
ATOM     11  C   UNL     1      33.514 -12.718 -23.522  0.00  0.00    -0.026 C 
ATOM     12  C   UNL     1      31.724  -9.350 -20.470  0.00  0.00    +0.048 C 
ATOM     13  C   UNL     1      35.460 -10.425 -25.252  0.00  0.00    -0.100 C 
ATOM     14  C   UNL     1      32.412  -7.568 -21.681  0.00  0.00    +0.058 C 
ATOM     15  C   UNL     1      31.938 -12.070 -20.957  0.00  0.00    -0.000 C 
ATOM     16  C   UNL     1      31.206 -10.226 -19.516  0.00  0.00    +0.015 C 
ATOM     17  C   UNL     1      31.329 -11.597 -19.785  0.00  0.00    +0.001 C 
ATOM     18  H   UNL     1      33.760  -9.940 -26.151  0.00  0.00    -0.079 HD
ATOM     19  H   UNL     1      31.402  -7.367 -19.849  0.00  0.00    +0.152 HD
ENDROOT
BRANCH   6  22
ATOM     20  O   UNL     1      32.411 -14.317 -26.051  0.00  0.00    -0.275 OA
ATOM     21  N   UNL     1      33.921 -15.524 -24.761  0.00  0.00    -0.279 N 
ATOM     22  C   UNL     1      33.380 -14.351 -25.288  0.00  0.00    +0.227 C 
BRANCH  21  23
ATOM     23  C   UNL     1      33.378 -16.841 -25.071  0.00  0.00    +0.093 C 
ATOM     24  C   UNL     1      34.487 -17.869 -25.224  0.00  0.00    +0.023 C 
ENDBRANCH  21  23
BRANCH  21  25
ATOM     25  C   UNL     1      35.070 -15.518 -23.859  0.00  0.00    +0.093 C 
ATOM     26  C   UNL     1      34.653 -15.839 -22.435  0.00  0.00    +0.023 C 
ENDBRANCH  21  25
ENDBRANCH   6  22
TORSDOF 3
ENDMDL
MODEL 6
REMARK VINA RESULT:      -7.3     11.026     13.806
REMARK  Name = 5761
REMARK  3 active torsions:
REMARK  status: ('A' for Active; 'I' for Inactive)
REMARK    1  A    between atoms: C_6  and  C_22
REMARK    2  A    between atoms: N_21  and  C_23
REMARK    3  A    between atoms: N_21  and  C_25
REMARK                            x       y       z     vdW  Elec       q    Type
REMARK                         _______ _______ _______ _____ _____    ______ ____
ROOT
ATOM      1  N   UNL     1      33.348 -24.631 -13.663  0.00  0.00    +0.390 N 
ATOM      2  N   UNL     1      37.869 -22.360 -16.924  0.00  0.00    -0.312 N 
ATOM      3  C   UNL     1      34.215 -24.231 -14.805  0.00  0.00    -0.031 C 
ATOM      4  C   UNL     1      33.497 -23.395 -15.906  0.00  0.00    -0.045 C 
ATOM      5  C   UNL     1      35.593 -23.650 -14.322  0.00  0.00    +0.011 C 
ATOM      6  C   UNL     1      31.283 -24.000 -14.931  0.00  0.00    +0.078 C 
ATOM      7  C   UNL     1      32.040 -25.087 -14.157  0.00  0.00    -0.063 C 
ATOM      8  C   UNL     1      36.376 -23.137 -15.475  0.00  0.00    -0.008 C 
ATOM      9  C   UNL     1      34.340 -22.778 -16.959  0.00  0.00    -0.005 C 
ATOM     10  C   UNL     1      35.707 -22.734 -16.651  0.00  0.00    +0.010 C 
ATOM     11  C   UNL     1      32.156 -23.279 -15.918  0.00  0.00    -0.026 C 
ATOM     12  C   UNL     1      36.644 -22.238 -17.545  0.00  0.00    +0.048 C 
ATOM     13  C   UNL     1      33.196 -23.613 -12.624  0.00  0.00    -0.100 C 
ATOM     14  C   UNL     1      37.717 -22.900 -15.667  0.00  0.00    +0.058 C 
ATOM     15  C   UNL     1      33.954 -22.284 -18.211  0.00  0.00    -0.000 C 
ATOM     16  C   UNL     1      36.273 -21.742 -18.794  0.00  0.00    +0.015 C 
ATOM     17  C   UNL     1      34.906 -21.774 -19.106  0.00  0.00    +0.001 C 
ATOM     18  H   UNL     1      33.832 -25.400 -13.201  0.00  0.00    -0.079 HD
ATOM     19  H   UNL     1      38.730 -22.098 -17.325  0.00  0.00    +0.152 HD
ENDROOT
BRANCH   6  22
ATOM     20  O   UNL     1      30.190 -25.840 -15.927  0.00  0.00    -0.275 OA
ATOM     21  N   UNL     1      29.160 -23.770 -16.160  0.00  0.00    -0.279 N 
ATOM     22  C   UNL     1      30.169 -24.625 -15.714  0.00  0.00    +0.227 C 
BRANCH  21  23
ATOM     23  C   UNL     1      28.018 -24.245 -16.932  0.00  0.00    +0.093 C 
ATOM     24  C   UNL     1      27.427 -23.130 -17.777  0.00  0.00    +0.023 C 
ENDBRANCH  21  23
BRANCH  21  25
ATOM     25  C   UNL     1      29.176 -22.335 -15.886  0.00  0.00    +0.093 C 
ATOM     26  C   UNL     1      28.221 -21.979 -14.760  0.00  0.00    +0.023 C 
ENDBRANCH  21  25
ENDBRANCH   6  22
TORSDOF 3
ENDMDL
MODEL 7
REMARK VINA RESULT:      -7.3      1.975      2.720
REMARK  Name = 5761
REMARK  3 active torsions:
REMARK  status: ('A' for Active; 'I' for Inactive)
REMARK    1  A    between atoms: C_6  and  C_22
REMARK    2  A    between atoms: N_21  and  C_23
REMARK    3  A    between atoms: N_21  and  C_25
REMARK                            x       y       z     vdW  Elec       q    Type
REMARK                         _______ _______ _______ _____ _____    ______ ____
ROOT
ATOM      1  N   UNL     1      33.883 -11.014 -24.677  0.00  0.00    +0.390 N 
ATOM      2  N   UNL     1      34.286 -16.665 -22.644  0.00  0.00    -0.312 N 
ATOM      3  C   UNL     1      33.989 -12.197 -23.780  0.00  0.00    -0.031 C 
ATOM      4  C   UNL     1      32.896 -12.274 -22.673  0.00  0.00    -0.045 C 
ATOM      5  C   UNL     1      34.214 -13.527 -24.586  0.00  0.00    +0.011 C 
ATOM      6  C   UNL     1      32.262  -9.904 -23.125  0.00  0.00    +0.078 C 
ATOM      7  C   UNL     1      33.588  -9.808 -23.890  0.00  0.00    -0.063 C 
ATOM      8  C   UNL     1      34.178 -14.701 -23.675  0.00  0.00    -0.008 C 
ATOM      9  C   UNL     1      32.803 -13.526 -21.884  0.00  0.00    -0.005 C 
ATOM     10  C   UNL     1      33.480 -14.616 -22.451  0.00  0.00    +0.010 C 
ATOM     11  C   UNL     1      32.097 -11.220 -22.419  0.00  0.00    -0.026 C 
ATOM     12  C   UNL     1      33.540 -15.849 -21.821  0.00  0.00    +0.048 C 
ATOM     13  C   UNL     1      32.940 -11.167 -25.785  0.00  0.00    -0.100 C 
ATOM     14  C   UNL     1      34.674 -15.979 -23.774  0.00  0.00    +0.058 C 
ATOM     15  C   UNL     1      32.174 -13.740 -20.652  0.00  0.00    -0.000 C 
ATOM     16  C   UNL     1      32.918 -16.076 -20.594  0.00  0.00    +0.015 C 
ATOM     17  C   UNL     1      32.231 -14.994 -20.024  0.00  0.00    +0.001 C 
ATOM     18  H   UNL     1      34.794 -10.922 -25.126  0.00  0.00    -0.079 HD
ATOM     19  H   UNL     1      34.510 -17.605 -22.452  0.00  0.00    +0.152 HD
ENDROOT
BRANCH   6  22
ATOM     20  O   UNL     1      32.480  -9.132 -20.904  0.00  0.00    -0.275 OA
ATOM     21  N   UNL     1      31.854  -7.558 -22.495  0.00  0.00    -0.279 N 
ATOM     22  C   UNL     1      32.211  -8.839 -22.072  0.00  0.00    +0.227 C 
BRANCH  21  23
ATOM     23  C   UNL     1      31.765  -6.429 -21.577  0.00  0.00    +0.093 C 
ATOM     24  C   UNL     1      30.508  -5.614 -21.831  0.00  0.00    +0.023 C 
ENDBRANCH  21  23
BRANCH  21  25
ATOM     25  C   UNL     1      31.542  -7.254 -23.890  0.00  0.00    +0.093 C 
ATOM     26  C   UNL     1      32.580  -6.325 -24.496  0.00  0.00    +0.023 C 
ENDBRANCH  21  25
ENDBRANCH   6  22
TORSDOF 3
ENDMDL
MODEL 8
REMARK VINA RESULT:      -7.2      9.243     13.086
REMARK  Name = 5761
REMARK  3 active torsions:
REMARK  status: ('A' for Active; 'I' for Inactive)
REMARK    1  A    between atoms: C_6  and  C_22
REMARK    2  A    between atoms: N_21  and  C_23
REMARK    3  A    between atoms: N_21  and  C_25
REMARK                            x       y       z     vdW  Elec       q    Type
REMARK                         _______ _______ _______ _____ _____    ______ ____
ROOT
ATOM      1  N   UNL     1      35.952 -23.806 -14.690  0.00  0.00    +0.390 N 
ATOM      2  N   UNL     1      30.113 -24.611 -13.472  0.00  0.00    -0.312 N 
ATOM      3  C   UNL     1      34.481 -23.603 -14.588  0.00  0.00    -0.031 C 
ATOM      4  C   UNL     1      33.772 -23.292 -15.939  0.00  0.00    -0.045 C 
ATOM      5  C   UNL     1      33.794 -24.717 -13.718  0.00  0.00    +0.011 C 
ATOM      6  C   UNL     1      35.983 -22.859 -17.008  0.00  0.00    +0.078 C 
ATOM      7  C   UNL     1      36.541 -22.794 -15.581  0.00  0.00    -0.063 C 
ATOM      8  C   UNL     1      32.316 -24.565 -13.749  0.00  0.00    -0.008 C 
ATOM      9  C   UNL     1      32.289 -23.294 -15.954  0.00  0.00    -0.005 C 
ATOM     10  C   UNL     1      31.703 -23.909 -14.838  0.00  0.00    +0.010 C 
ATOM     11  C   UNL     1      34.487 -22.988 -17.039  0.00  0.00    -0.026 C 
ATOM     12  C   UNL     1      30.328 -23.955 -14.665  0.00  0.00    +0.048 C 
ATOM     13  C   UNL     1      36.360 -25.155 -15.079  0.00  0.00    -0.100 C 
ATOM     14  C   UNL     1      31.312 -24.990 -12.911  0.00  0.00    +0.058 C 
ATOM     15  C   UNL     1      31.422 -22.736 -16.901  0.00  0.00    -0.000 C 
ATOM     16  C   UNL     1      29.453 -23.403 -15.600  0.00  0.00    +0.015 C 
ATOM     17  C   UNL     1      30.031 -22.794 -16.724  0.00  0.00    +0.001 C 
ATOM     18  H   UNL     1      36.316 -23.689 -13.744  0.00  0.00    -0.079 HD
ATOM     19  H   UNL     1      29.227 -24.785 -13.078  0.00  0.00    +0.152 HD
ENDROOT
BRANCH   6  22
ATOM     20  O   UNL     1      37.155 -20.825 -17.253  0.00  0.00    -0.275 OA
ATOM     21  N   UNL     1      35.666 -21.376 -18.949  0.00  0.00    -0.279 N 
ATOM     22  C   UNL     1      36.325 -21.597 -17.739  0.00  0.00    +0.227 C 
BRANCH  21  23
ATOM     23  C   UNL     1      35.903 -20.190 -19.762  0.00  0.00    +0.093 C 
ATOM     24  C   UNL     1      37.147 -20.352 -20.619  0.00  0.00    +0.023 C 
ENDBRANCH  21  23
BRANCH  21  25
ATOM     25  C   UNL     1      34.688 -22.318 -19.489  0.00  0.00    +0.093 C 
ATOM     26  C   UNL     1      33.406 -21.610 -19.893  0.00  0.00    +0.023 C 
ENDBRANCH  21  25
ENDBRANCH   6  22
TORSDOF 3
ENDMDL
MODEL 9
REMARK VINA RESULT:      -7.0      3.332      6.273
REMARK  Name = 5761
REMARK  3 active torsions:
REMARK  status: ('A' for Active; 'I' for Inactive)
REMARK    1  A    between atoms: C_6  and  C_22
REMARK    2  A    between atoms: N_21  and  C_23
REMARK    3  A    between atoms: N_21  and  C_25
REMARK                            x       y       z     vdW  Elec       q    Type
REMARK                         _______ _______ _______ _____ _____    ______ ____
ROOT
ATOM      1  N   UNL     1      31.304  -7.202 -21.742  0.00  0.00    +0.390 N 
ATOM      2  N   UNL     1      32.424 -13.095 -22.237  0.00  0.00    -0.312 N 
ATOM      3  C   UNL     1      31.546  -8.560 -22.302  0.00  0.00    -0.031 C 
ATOM      4  C   UNL     1      32.687  -8.635 -23.358  0.00  0.00    -0.045 C 
ATOM      5  C   UNL     1      31.607  -9.655 -21.177  0.00  0.00    +0.011 C 
ATOM      6  C   UNL     1      32.690  -6.148 -23.541  0.00  0.00    +0.078 C 
ATOM      7  C   UNL     1      31.339  -6.199 -22.818  0.00  0.00    -0.063 C 
ATOM      8  C   UNL     1      31.984 -10.973 -21.752  0.00  0.00    -0.008 C 
ATOM      9  C   UNL     1      33.131  -9.980 -23.795  0.00  0.00    -0.005 C 
ATOM     10  C   UNL     1      32.711 -11.026 -22.961  0.00  0.00    +0.010 C 
ATOM     11  C   UNL     1      33.216  -7.513 -23.882  0.00  0.00    -0.026 C 
ATOM     12  C   UNL     1      32.993 -12.352 -23.249  0.00  0.00    +0.048 C 
ATOM     13  C   UNL     1      32.188  -6.826 -20.640  0.00  0.00    -0.100 C 
ATOM     14  C   UNL     1      31.813 -12.267 -21.321  0.00  0.00    +0.058 C 
ATOM     15  C   UNL     1      33.866 -10.333 -24.935  0.00  0.00    -0.000 C 
ATOM     16  C   UNL     1      33.724 -12.717 -24.379  0.00  0.00    +0.015 C 
ATOM     17  C   UNL     1      34.156 -11.676 -25.215  0.00  0.00    +0.001 C 
ATOM     18  H   UNL     1      30.373  -7.233 -21.327  0.00  0.00    -0.079 HD
ATOM     19  H   UNL     1      32.450 -14.078 -22.178  0.00  0.00    +0.152 HD
ENDROOT
BRANCH   6  22
ATOM     20  O   UNL     1      32.882  -5.953 -25.886  0.00  0.00    -0.275 OA
ATOM     21  N   UNL     1      32.012  -4.116 -24.759  0.00  0.00    -0.279 N 
ATOM     22  C   UNL     1      32.541  -5.406 -24.834  0.00  0.00    +0.227 C 
BRANCH  21  23
ATOM     23  C   UNL     1      31.813  -3.284 -25.939  0.00  0.00    +0.093 C 
ATOM     24  C   UNL     1      33.135  -2.740 -26.455  0.00  0.00    +0.023 C 
ENDBRANCH  21  23
BRANCH  21  25
ATOM     25  C   UNL     1      31.621  -3.506 -23.490  0.00  0.00    +0.093 C 
ATOM     26  C   UNL     1      30.848  -2.218 -23.715  0.00  0.00    +0.023 C 
ENDBRANCH  21  25
ENDBRANCH   6  22
TORSDOF 3
ENDMDL
