MODEL 1
REMARK VINA RESULT:      -5.4      0.000      0.000
REMARK  Name = 12717
REMARK  4 active torsions:
REMARK  status: ('A' for Active; 'I' for Inactive)
REMARK    1  A    between atoms: N_2  and  O_4
REMARK    2  A    between atoms: N_2  and  C_6
REMARK    3  A    between atoms: C_6  and  C_8
REMARK    4  A    between atoms: C_8  and  O_9
REMARK                            x       y       z     vdW  Elec       q    Type
REMARK                         _______ _______ _______ _____ _____    ______ ____
ROOT
ATOM      1  O   UNL     1      37.455 -26.144 -12.094  0.00  0.00    -0.263 OA
ATOM      2  N   UNL     1      37.946 -26.021 -14.356  0.00  0.00    -0.153 N 
ATOM      3  C   UNL     1      37.208 -26.397 -13.268  0.00  0.00    +0.327 C 
ENDROOT
BRANCH   2   4
ATOM      4  O   UNL     1      37.590 -26.357 -15.672  0.00  0.00    -0.291 OA
ATOM      5  H   UNL     1      38.226 -27.000 -16.026  0.00  0.00    +0.242 HD
ENDBRANCH   2   4
BRANCH   2   6
ATOM      6  C   UNL     1      39.152 -25.251 -14.251  0.00  0.00    +0.233 C 
BRANCH   6   8
ATOM      7  O   UNL     1      41.168 -26.553 -14.060  0.00  0.00    -0.248 OA
ATOM      8  C   UNL     1      40.361 -25.979 -14.782  0.00  0.00    +0.337 C 
BRANCH   8   9
ATOM      9  O   UNL     1      40.470 -25.937 -16.129  0.00  0.00    -0.479 OA
ATOM     10  H   UNL     1      40.903 -26.631 -16.587  0.00  0.00    +0.295 HD
ENDBRANCH   8   9
ENDBRANCH   6   8
ENDBRANCH   2   6
TORSDOF 4
ENDMDL
MODEL 2
REMARK VINA RESULT:      -5.3      1.529      1.759
REMARK  Name = 12717
REMARK  4 active torsions:
REMARK  status: ('A' for Active; 'I' for Inactive)
REMARK    1  A    between atoms: N_2  and  O_4
REMARK    2  A    between atoms: N_2  and  C_6
REMARK    3  A    between atoms: C_6  and  C_8
REMARK    4  A    between atoms: C_8  and  O_9
REMARK                            x       y       z     vdW  Elec       q    Type
REMARK                         _______ _______ _______ _____ _____    ______ ____
ROOT
ATOM      1  O   UNL     1      37.788 -23.074 -14.439  0.00  0.00    -0.263 OA
ATOM      2  N   UNL     1      38.021 -25.328 -14.924  0.00  0.00    -0.153 N 
ATOM      3  C   UNL     1      37.472 -24.083 -15.059  0.00  0.00    +0.327 C 
ENDROOT
BRANCH   2   4
ATOM      4  O   UNL     1      37.596 -26.434 -15.678  0.00  0.00    -0.291 OA
ATOM      5  H   UNL     1      38.334 -27.055 -15.786  0.00  0.00    +0.242 HD
ENDBRANCH   2   4
BRANCH   2   6
ATOM      6  C   UNL     1      39.081 -25.617 -14.002  0.00  0.00    +0.233 C 
BRANCH   6   8
ATOM      7  O   UNL     1      41.247 -26.664 -14.096  0.00  0.00    -0.248 OA
ATOM      8  C   UNL     1      40.342 -26.084 -14.684  0.00  0.00    +0.337 C 
BRANCH   8   9
ATOM      9  O   UNL     1      40.377 -25.802 -16.006  0.00  0.00    -0.479 OA
ATOM     10  H   UNL     1      39.697 -25.288 -16.395  0.00  0.00    +0.295 HD
ENDBRANCH   8   9
ENDBRANCH   6   8
ENDBRANCH   2   6
TORSDOF 4
ENDMDL
MODEL 3
REMARK VINA RESULT:      -5.1      1.752      3.539
REMARK  Name = 12717
REMARK  4 active torsions:
REMARK  status: ('A' for Active; 'I' for Inactive)
REMARK    1  A    between atoms: N_2  and  O_4
REMARK    2  A    between atoms: N_2  and  C_6
REMARK    3  A    between atoms: C_6  and  C_8
REMARK    4  A    between atoms: C_8  and  O_9
REMARK                            x       y       z     vdW  Elec       q    Type
REMARK                         _______ _______ _______ _____ _____    ______ ____
ROOT
ATOM      1  O   UNL     1      40.889 -26.623 -14.620  0.00  0.00    -0.263 OA
ATOM      2  N   UNL     1      39.008 -25.300 -14.913  0.00  0.00    -0.153 N 
ATOM      3  C   UNL     1      40.347 -25.574 -14.950  0.00  0.00    +0.327 C 
ENDROOT
BRANCH   2   4
ATOM      4  O   UNL     1      38.471 -24.066 -15.311  0.00  0.00    -0.291 OA
ATOM      5  H   UNL     1      38.045 -23.638 -14.550  0.00  0.00    +0.242 HD
ENDBRANCH   2   4
BRANCH   2   6
ATOM      6  C   UNL     1      38.031 -26.250 -14.463  0.00  0.00    +0.233 C 
BRANCH   6   8
ATOM      7  O   UNL     1      35.882 -25.573 -15.311  0.00  0.00    -0.248 OA
ATOM      8  C   UNL     1      36.836 -26.339 -15.378  0.00  0.00    +0.337 C 
BRANCH   8   9
ATOM      9  O   UNL     1      36.917 -27.346 -16.277  0.00  0.00    -0.479 OA
ATOM     10  H   UNL     1      36.203 -27.945 -16.377  0.00  0.00    +0.295 HD
ENDBRANCH   8   9
ENDBRANCH   6   8
ENDBRANCH   2   6
TORSDOF 4
ENDMDL
MODEL 4
REMARK VINA RESULT:      -5.0      0.809      1.907
REMARK  Name = 12717
REMARK  4 active torsions:
REMARK  status: ('A' for Active; 'I' for Inactive)
REMARK    1  A    between atoms: N_2  and  O_4
REMARK    2  A    between atoms: N_2  and  C_6
REMARK    3  A    between atoms: C_6  and  C_8
REMARK    4  A    between atoms: C_8  and  O_9
REMARK                            x       y       z     vdW  Elec       q    Type
REMARK                         _______ _______ _______ _____ _____    ______ ____
ROOT
ATOM      1  O   UNL     1      36.870 -27.115 -15.977  0.00  0.00    -0.263 OA
ATOM      2  N   UNL     1      37.857 -26.282 -14.053  0.00  0.00    -0.153 N 
ATOM      3  C   UNL     1      36.993 -27.073 -14.758  0.00  0.00    +0.327 C 
ENDROOT
BRANCH   2   4
ATOM      4  O   UNL     1      37.933 -26.296 -12.651  0.00  0.00    -0.291 OA
ATOM      5  H   UNL     1      37.216 -25.755 -12.283  0.00  0.00    +0.242 HD
ENDBRANCH   2   4
BRANCH   2   6
ATOM      6  C   UNL     1      38.765 -25.365 -14.682  0.00  0.00    +0.233 C 
BRANCH   6   8
ATOM      7  O   UNL     1      40.839 -26.309 -13.905  0.00  0.00    -0.248 OA
ATOM      8  C   UNL     1      40.151 -25.933 -14.847  0.00  0.00    +0.337 C 
BRANCH   8   9
ATOM      9  O   UNL     1      40.563 -25.988 -16.135  0.00  0.00    -0.479 OA
ATOM     10  H   UNL     1      40.314 -26.711 -16.677  0.00  0.00    +0.295 HD
ENDBRANCH   8   9
ENDBRANCH   6   8
ENDBRANCH   2   6
TORSDOF 4
ENDMDL
MODEL 5
REMARK VINA RESULT:      -5.0      1.413      3.498
REMARK  Name = 12717
REMARK  4 active torsions:
REMARK  status: ('A' for Active; 'I' for Inactive)
REMARK    1  A    between atoms: N_2  and  O_4
REMARK    2  A    between atoms: N_2  and  C_6
REMARK    3  A    between atoms: C_6  and  C_8
REMARK    4  A    between atoms: C_8  and  O_9
REMARK                            x       y       z     vdW  Elec       q    Type
REMARK                         _______ _______ _______ _____ _____    ______ ____
ROOT
ATOM      1  O   UNL     1      40.795 -24.701 -14.255  0.00  0.00    -0.263 OA
ATOM      2  N   UNL     1      38.860 -25.976 -14.317  0.00  0.00    -0.153 N 
ATOM      3  C   UNL     1      40.191 -25.735 -14.518  0.00  0.00    +0.327 C 
ENDROOT
BRANCH   2   4
ATOM      4  O   UNL     1      38.246 -27.194 -14.649  0.00  0.00    -0.291 OA
ATOM      5  H   UNL     1      37.291 -27.057 -14.755  0.00  0.00    +0.242 HD
ENDBRANCH   2   4
BRANCH   2   6
ATOM      6  C   UNL     1      37.969 -25.005 -13.748  0.00  0.00    +0.233 C 
BRANCH   6   8
ATOM      7  O   UNL     1      37.935 -24.601 -11.375  0.00  0.00    -0.248 OA
ATOM      8  C   UNL     1      37.605 -25.311 -12.317  0.00  0.00    +0.337 C 
BRANCH   8   9
ATOM      9  O   UNL     1      36.880 -26.444 -12.174  0.00  0.00    -0.479 OA
ATOM     10  H   UNL     1      35.958 -26.394 -12.012  0.00  0.00    +0.295 HD
ENDBRANCH   8   9
ENDBRANCH   6   8
ENDBRANCH   2   6
TORSDOF 4
ENDMDL
MODEL 6
REMARK VINA RESULT:      -4.8      2.064      2.841
REMARK  Name = 12717
REMARK  4 active torsions:
REMARK  status: ('A' for Active; 'I' for Inactive)
REMARK    1  A    between atoms: N_2  and  O_4
REMARK    2  A    between atoms: N_2  and  C_6
REMARK    3  A    between atoms: C_6  and  C_8
REMARK    4  A    between atoms: C_8  and  O_9
REMARK                            x       y       z     vdW  Elec       q    Type
REMARK                         _______ _______ _______ _____ _____    ______ ____
ROOT
ATOM      1  O   UNL     1      38.294 -22.903 -11.664  0.00  0.00    -0.263 OA
ATOM      2  N   UNL     1      37.423 -24.871 -12.525  0.00  0.00    -0.153 N 
ATOM      3  C   UNL     1      37.440 -23.781 -11.699  0.00  0.00    +0.327 C 
ENDROOT
BRANCH   2   4
ATOM      4  O   UNL     1      36.401 -25.833 -12.497  0.00  0.00    -0.291 OA
ATOM      5  H   UNL     1      36.743 -26.658 -12.116  0.00  0.00    +0.242 HD
ENDBRANCH   2   4
BRANCH   2   6
ATOM      6  C   UNL     1      38.449 -25.130 -13.494  0.00  0.00    +0.233 C 
BRANCH   6   8
ATOM      7  O   UNL     1      38.307 -27.226 -14.671  0.00  0.00    -0.248 OA
ATOM      8  C   UNL     1      37.991 -26.044 -14.602  0.00  0.00    +0.337 C 
BRANCH   8   9
ATOM      9  O   UNL     1      37.199 -25.434 -15.514  0.00  0.00    -0.479 OA
ATOM     10  H   UNL     1      36.274 -25.380 -15.371  0.00  0.00    +0.295 HD
ENDBRANCH   8   9
ENDBRANCH   6   8
ENDBRANCH   2   6
TORSDOF 4
ENDMDL
MODEL 7
REMARK VINA RESULT:      -4.8      2.503      4.864
REMARK  Name = 12717
REMARK  4 active torsions:
REMARK  status: ('A' for Active; 'I' for Inactive)
REMARK    1  A    between atoms: N_2  and  O_4
REMARK    2  A    between atoms: N_2  and  C_6
REMARK    3  A    between atoms: C_6  and  C_8
REMARK    4  A    between atoms: C_8  and  O_9
REMARK                            x       y       z     vdW  Elec       q    Type
REMARK                         _______ _______ _______ _____ _____    ______ ____
ROOT
ATOM      1  O   UNL     1      39.139 -24.513 -14.013  0.00  0.00    -0.263 OA
ATOM      2  N   UNL     1      37.655 -25.420 -12.481  0.00  0.00    -0.153 N 
ATOM      3  C   UNL     1      38.663 -25.465 -13.405  0.00  0.00    +0.327 C 
ENDROOT
BRANCH   2   4
ATOM      4  O   UNL     1      37.168 -26.564 -11.829  0.00  0.00    -0.291 OA
ATOM      5  H   UNL     1      37.778 -27.304 -11.974  0.00  0.00    +0.242 HD
ENDBRANCH   2   4
BRANCH   2   6
ATOM      6  C   UNL     1      37.006 -24.200 -12.094  0.00  0.00    +0.233 C 
BRANCH   6   8
ATOM      7  O   UNL     1      34.755 -24.806 -11.491  0.00  0.00    -0.248 OA
ATOM      8  C   UNL     1      35.863 -24.423 -11.136  0.00  0.00    +0.337 C 
BRANCH   8   9
ATOM      9  O   UNL     1      36.179 -24.159  -9.847  0.00  0.00    -0.479 OA
ATOM     10  H   UNL     1      35.644 -24.495  -9.155  0.00  0.00    +0.295 HD
ENDBRANCH   8   9
ENDBRANCH   6   8
ENDBRANCH   2   6
TORSDOF 4
ENDMDL
MODEL 8
REMARK VINA RESULT:      -4.7     11.433     12.247
REMARK  Name = 12717
REMARK  4 active torsions:
REMARK  status: ('A' for Active; 'I' for Inactive)
REMARK    1  A    between atoms: N_2  and  O_4
REMARK    2  A    between atoms: N_2  and  C_6
REMARK    3  A    between atoms: C_6  and  C_8
REMARK    4  A    between atoms: C_8  and  O_9
REMARK                            x       y       z     vdW  Elec       q    Type
REMARK                         _______ _______ _______ _____ _____    ______ ____
ROOT
ATOM      1  O   UNL     1      40.862 -14.152 -18.496  0.00  0.00    -0.263 OA
ATOM      2  N   UNL     1      42.137 -14.993 -16.753  0.00  0.00    -0.153 N 
ATOM      3  C   UNL     1      41.603 -15.000 -18.012  0.00  0.00    +0.327 C 
ENDROOT
BRANCH   2   4
ATOM      4  O   UNL     1      42.981 -16.010 -16.277  0.00  0.00    -0.291 OA
ATOM      5  H   UNL     1      43.732 -15.614 -15.807  0.00  0.00    +0.242 HD
ENDBRANCH   2   4
BRANCH   2   6
ATOM      6  C   UNL     1      41.884 -13.947 -15.804  0.00  0.00    +0.233 C 
BRANCH   6   8
ATOM      7  O   UNL     1      40.533 -13.595 -13.843  0.00  0.00    -0.248 OA
ATOM      8  C   UNL     1      40.874 -14.339 -14.755  0.00  0.00    +0.337 C 
BRANCH   8   9
ATOM      9  O   UNL     1      40.383 -15.589 -14.918  0.00  0.00    -0.479 OA
ATOM     10  H   UNL     1      40.450 -16.015 -15.750  0.00  0.00    +0.295 HD
ENDBRANCH   8   9
ENDBRANCH   6   8
ENDBRANCH   2   6
TORSDOF 4
ENDMDL
MODEL 9
REMARK VINA RESULT:      -4.7      2.295      2.690
REMARK  Name = 12717
REMARK  4 active torsions:
REMARK  status: ('A' for Active; 'I' for Inactive)
REMARK    1  A    between atoms: N_2  and  O_4
REMARK    2  A    between atoms: N_2  and  C_6
REMARK    3  A    between atoms: C_6  and  C_8
REMARK    4  A    between atoms: C_8  and  O_9
REMARK                            x       y       z     vdW  Elec       q    Type
REMARK                         _______ _______ _______ _____ _____    ______ ____
ROOT
ATOM      1  O   UNL     1      36.160 -25.475 -11.580  0.00  0.00    -0.263 OA
ATOM      2  N   UNL     1      37.314 -24.844 -13.488  0.00  0.00    -0.153 N 
ATOM      3  C   UNL     1      37.056 -24.858 -12.145  0.00  0.00    +0.327 C 
ENDROOT
BRANCH   2   4
ATOM      4  O   UNL     1      38.366 -24.106 -14.054  0.00  0.00    -0.291 OA
ATOM      5  H   UNL     1      39.160 -24.662 -14.107  0.00  0.00    +0.242 HD
ENDBRANCH   2   4
BRANCH   2   6
ATOM      6  C   UNL     1      36.535 -25.582 -14.440  0.00  0.00    +0.233 C 
BRANCH   6   8
ATOM      7  O   UNL     1      38.349 -27.154 -14.623  0.00  0.00    -0.248 OA
ATOM      8  C   UNL     1      37.306 -26.706 -15.084  0.00  0.00    +0.337 C 
BRANCH   8   9
ATOM      9  O   UNL     1      36.737 -27.171 -16.220  0.00  0.00    -0.479 OA
ATOM     10  H   UNL     1      35.971 -26.756 -16.565  0.00  0.00    +0.295 HD
ENDBRANCH   8   9
ENDBRANCH   6   8
ENDBRANCH   2   6
TORSDOF 4
ENDMDL
