MODEL 1
REMARK VINA RESULT:      -6.9      0.000      0.000
REMARK  Name = 62787
REMARK  5 active torsions:
REMARK  status: ('A' for Active; 'I' for Inactive)
REMARK    1  A    between atoms: C_1  and  C_11
REMARK    2  A    between atoms: C_2  and  O_7
REMARK    3  A    between atoms: C_4  and  O_9
REMARK    4  A    between atoms: C_11  and  C_12
REMARK    5  A    between atoms: C_12  and  N_14
REMARK                            x       y       z     vdW  Elec       q    Type
REMARK                         _______ _______ _______ _____ _____    ______ ____
ROOT
ATOM      1  C   UNL     1      34.586 -15.780 -22.687  0.00  0.00    +0.013 C 
ATOM      2  C   UNL     1      35.043 -17.071 -22.463  0.00  0.00    +0.135 C 
ATOM      3  C   UNL     1      34.167 -15.374 -23.945  0.00  0.00    +0.036 C 
ATOM      4  C   UNL     1      34.204 -16.281 -25.004  0.00  0.00    +0.139 C 
ATOM      5  C   UNL     1      35.079 -17.977 -23.523  0.00  0.00    +0.040 C 
ATOM      6  C   UNL     1      34.660 -17.582 -24.794  0.00  0.00    +0.040 C 
ENDROOT
BRANCH   2   7
ATOM      7  O   UNL     1      35.456 -17.472 -21.229  0.00  0.00    -0.472 OA
ATOM      8  C   UNL     1      36.144 -18.719 -21.151  0.00  0.00    +0.252 C 
ENDBRANCH   2   7
BRANCH   4   9
ATOM      9  O   UNL     1      33.794 -15.897 -26.244  0.00  0.00    -0.471 OA
ATOM     10  C   UNL     1      32.886 -14.798 -26.315  0.00  0.00    +0.252 C 
ENDBRANCH   4   9
BRANCH   1  11
ATOM     11  C   UNL     1      34.541 -14.786 -21.552  0.00  0.00    +0.008 C 
BRANCH  11  12
ATOM     12  C   UNL     1      33.129 -14.576 -20.973  0.00  0.00    -0.061 C 
ATOM     13  C   UNL     1      32.365 -15.890 -20.802  0.00  0.00    -0.024 C 
BRANCH  12  14
ATOM     14  N   UNL     1      32.359 -13.707 -21.866  0.00  0.00    +0.382 N 
ATOM     15  H   UNL     1      31.503 -14.182 -22.149  0.00  0.00    -0.089 HD
ATOM     16  H   UNL     1      32.916 -13.490 -22.692  0.00  0.00    -0.089 HD
ATOM     17  H   UNL     1      32.122 -12.842 -21.380  0.00  0.00    -0.089 HD
ENDBRANCH  12  14
ENDBRANCH  11  12
ENDBRANCH   1  11
TORSDOF 5
ENDMDL
MODEL 2
REMARK VINA RESULT:      -6.7      1.477      3.876
REMARK  Name = 62787
REMARK  5 active torsions:
REMARK  status: ('A' for Active; 'I' for Inactive)
REMARK    1  A    between atoms: C_1  and  C_11
REMARK    2  A    between atoms: C_2  and  O_7
REMARK    3  A    between atoms: C_4  and  O_9
REMARK    4  A    between atoms: C_11  and  C_12
REMARK    5  A    between atoms: C_12  and  N_14
REMARK                            x       y       z     vdW  Elec       q    Type
REMARK                         _______ _______ _______ _____ _____    ______ ____
ROOT
ATOM      1  C   UNL     1      34.559 -16.449 -23.531  0.00  0.00    +0.013 C 
ATOM      2  C   UNL     1      34.470 -16.838 -24.859  0.00  0.00    +0.135 C 
ATOM      3  C   UNL     1      34.714 -17.384 -22.518  0.00  0.00    +0.036 C 
ATOM      4  C   UNL     1      34.781 -18.739 -22.841  0.00  0.00    +0.139 C 
ATOM      5  C   UNL     1      34.538 -18.193 -25.182  0.00  0.00    +0.040 C 
ATOM      6  C   UNL     1      34.693 -19.144 -24.172  0.00  0.00    +0.040 C 
ENDROOT
BRANCH   2   7
ATOM      7  O   UNL     1      34.318 -15.922 -25.856  0.00  0.00    -0.472 OA
ATOM      8  C   UNL     1      32.983 -15.558 -26.202  0.00  0.00    +0.252 C 
ENDBRANCH   2   7
BRANCH   4   9
ATOM      9  O   UNL     1      34.934 -19.667 -21.857  0.00  0.00    -0.471 OA
ATOM     10  C   UNL     1      33.835 -19.855 -20.966  0.00  0.00    +0.252 C 
ENDBRANCH   4   9
BRANCH   1  11
ATOM     11  C   UNL     1      34.487 -14.987 -23.163  0.00  0.00    +0.008 C 
BRANCH  11  12
ATOM     12  C   UNL     1      33.144 -14.576 -22.531  0.00  0.00    -0.061 C 
ATOM     13  C   UNL     1      32.544 -13.333 -23.188  0.00  0.00    -0.024 C 
BRANCH  12  14
ATOM     14  N   UNL     1      33.341 -14.295 -21.106  0.00  0.00    +0.382 N 
ATOM     15  H   UNL     1      33.735 -15.117 -20.648  0.00  0.00    -0.089 HD
ATOM     16  H   UNL     1      32.444 -14.066 -20.678  0.00  0.00    -0.089 HD
ATOM     17  H   UNL     1      33.980 -13.507 -20.999  0.00  0.00    -0.089 HD
ENDBRANCH  12  14
ENDBRANCH  11  12
ENDBRANCH   1  11
TORSDOF 5
ENDMDL
MODEL 3
REMARK VINA RESULT:      -6.6      1.692      3.949
REMARK  Name = 62787
REMARK  5 active torsions:
REMARK  status: ('A' for Active; 'I' for Inactive)
REMARK    1  A    between atoms: C_1  and  C_11
REMARK    2  A    between atoms: C_2  and  O_7
REMARK    3  A    between atoms: C_4  and  O_9
REMARK    4  A    between atoms: C_11  and  C_12
REMARK    5  A    between atoms: C_12  and  N_14
REMARK                            x       y       z     vdW  Elec       q    Type
REMARK                         _______ _______ _______ _____ _____    ______ ____
ROOT
ATOM      1  C   UNL     1      34.619 -16.631 -22.260  0.00  0.00    +0.013 C 
ATOM      2  C   UNL     1      34.873 -17.098 -23.541  0.00  0.00    +0.135 C 
ATOM      3  C   UNL     1      34.510 -17.502 -21.187  0.00  0.00    +0.036 C 
ATOM      4  C   UNL     1      34.657 -18.873 -21.400  0.00  0.00    +0.139 C 
ATOM      5  C   UNL     1      35.021 -18.468 -23.753  0.00  0.00    +0.040 C 
ATOM      6  C   UNL     1      34.912 -19.357 -22.682  0.00  0.00    +0.040 C 
ENDROOT
BRANCH   2   7
ATOM      7  O   UNL     1      34.981 -16.245 -24.598  0.00  0.00    -0.472 OA
ATOM      8  C   UNL     1      33.867 -16.169 -25.485  0.00  0.00    +0.252 C 
ENDBRANCH   2   7
BRANCH   4   9
ATOM      9  O   UNL     1      34.553 -19.739 -20.355  0.00  0.00    -0.471 OA
ATOM     10  C   UNL     1      33.333 -20.471 -20.238  0.00  0.00    +0.252 C 
ENDBRANCH   4   9
BRANCH   1  11
ATOM     11  C   UNL     1      34.456 -15.151 -22.012  0.00  0.00    +0.008 C 
BRANCH  11  12
ATOM     12  C   UNL     1      32.986 -14.697 -21.937  0.00  0.00    -0.061 C 
ATOM     13  C   UNL     1      32.651 -13.626 -22.977  0.00  0.00    -0.024 C 
BRANCH  12  14
ATOM     14  N   UNL     1      32.711 -14.150 -20.606  0.00  0.00    +0.382 N 
ATOM     15  H   UNL     1      32.003 -13.419 -20.678  0.00  0.00    -0.089 HD
ATOM     16  H   UNL     1      33.568 -13.756 -20.217  0.00  0.00    -0.089 HD
ATOM     17  H   UNL     1      32.371 -14.894 -19.996  0.00  0.00    -0.089 HD
ENDBRANCH  12  14
ENDBRANCH  11  12
ENDBRANCH   1  11
TORSDOF 5
ENDMDL
MODEL 4
REMARK VINA RESULT:      -6.6      0.952      3.630
REMARK  Name = 62787
REMARK  5 active torsions:
REMARK  status: ('A' for Active; 'I' for Inactive)
REMARK    1  A    between atoms: C_1  and  C_11
REMARK    2  A    between atoms: C_2  and  O_7
REMARK    3  A    between atoms: C_4  and  O_9
REMARK    4  A    between atoms: C_11  and  C_12
REMARK    5  A    between atoms: C_12  and  N_14
REMARK                            x       y       z     vdW  Elec       q    Type
REMARK                         _______ _______ _______ _____ _____    ______ ____
ROOT
ATOM      1  C   UNL     1      34.519 -15.548 -23.107  0.00  0.00    +0.013 C 
ATOM      2  C   UNL     1      34.074 -15.703 -24.411  0.00  0.00    +0.135 C 
ATOM      3  C   UNL     1      35.102 -16.601 -22.417  0.00  0.00    +0.036 C 
ATOM      4  C   UNL     1      35.243 -17.837 -23.047  0.00  0.00    +0.139 C 
ATOM      5  C   UNL     1      34.216 -16.940 -25.040  0.00  0.00    +0.040 C 
ATOM      6  C   UNL     1      34.800 -18.007 -24.358  0.00  0.00    +0.040 C 
ENDROOT
BRANCH   2   7
ATOM      7  O   UNL     1      33.501 -14.671 -25.092  0.00  0.00    -0.472 OA
ATOM      8  C   UNL     1      32.887 -14.982 -26.341  0.00  0.00    +0.252 C 
ENDBRANCH   2   7
BRANCH   4   9
ATOM      9  O   UNL     1      35.814 -18.878 -22.382  0.00  0.00    -0.471 OA
ATOM     10  C   UNL     1      35.171 -19.315 -21.185  0.00  0.00    +0.252 C 
ENDBRANCH   4   9
BRANCH   1  11
ATOM     11  C   UNL     1      34.373 -14.217 -22.410  0.00  0.00    +0.008 C 
BRANCH  11  12
ATOM     12  C   UNL     1      33.018 -14.037 -21.701  0.00  0.00    -0.061 C 
ATOM     13  C   UNL     1      32.464 -15.354 -21.153  0.00  0.00    -0.024 C 
BRANCH  12  14
ATOM     14  N   UNL     1      32.043 -13.484 -22.645  0.00  0.00    +0.382 N 
ATOM     15  H   UNL     1      31.179 -14.024 -22.598  0.00  0.00    -0.089 HD
ATOM     16  H   UNL     1      32.421 -13.531 -23.591  0.00  0.00    -0.089 HD
ATOM     17  H   UNL     1      31.849 -12.512 -22.405  0.00  0.00    -0.089 HD
ENDBRANCH  12  14
ENDBRANCH  11  12
ENDBRANCH   1  11
TORSDOF 5
ENDMDL
MODEL 5
REMARK VINA RESULT:      -6.6      8.978     10.825
REMARK  Name = 62787
REMARK  5 active torsions:
REMARK  status: ('A' for Active; 'I' for Inactive)
REMARK    1  A    between atoms: C_1  and  C_11
REMARK    2  A    between atoms: C_2  and  O_7
REMARK    3  A    between atoms: C_4  and  O_9
REMARK    4  A    between atoms: C_11  and  C_12
REMARK    5  A    between atoms: C_12  and  N_14
REMARK                            x       y       z     vdW  Elec       q    Type
REMARK                         _______ _______ _______ _____ _____    ______ ____
ROOT
ATOM      1  C   UNL     1      31.904 -23.427 -15.309  0.00  0.00    +0.013 C 
ATOM      2  C   UNL     1      33.133 -23.593 -14.687  0.00  0.00    +0.135 C 
ATOM      3  C   UNL     1      31.819 -23.114 -16.657  0.00  0.00    +0.036 C 
ATOM      4  C   UNL     1      32.990 -22.963 -17.400  0.00  0.00    +0.139 C 
ATOM      5  C   UNL     1      34.303 -23.443 -15.431  0.00  0.00    +0.040 C 
ATOM      6  C   UNL     1      34.231 -23.128 -16.788  0.00  0.00    +0.040 C 
ENDROOT
BRANCH   2   7
ATOM      7  O   UNL     1      33.220 -23.901 -13.362  0.00  0.00    -0.472 OA
ATOM      8  C   UNL     1      34.515 -24.214 -12.855  0.00  0.00    +0.252 C 
ENDBRANCH   2   7
BRANCH   4   9
ATOM      9  O   UNL     1      32.921 -22.657 -18.725  0.00  0.00    -0.471 OA
ATOM     10  C   UNL     1      34.012 -21.924 -19.280  0.00  0.00    +0.252 C 
ENDBRANCH   4   9
BRANCH   1  11
ATOM     11  C   UNL     1      30.628 -23.585 -14.519  0.00  0.00    +0.008 C 
BRANCH  11  12
ATOM     12  C   UNL     1      29.525 -24.349 -15.277  0.00  0.00    -0.061 C 
ATOM     13  C   UNL     1      28.368 -23.441 -15.698  0.00  0.00    -0.024 C 
BRANCH  12  14
ATOM     14  N   UNL     1      28.990 -25.411 -14.420  0.00  0.00    +0.382 N 
ATOM     15  H   UNL     1      29.345 -26.313 -14.735  0.00  0.00    -0.089 HD
ATOM     16  H   UNL     1      27.972 -25.409 -14.473  0.00  0.00    -0.089 HD
ATOM     17  H   UNL     1      29.280 -25.249 -13.455  0.00  0.00    -0.089 HD
ENDBRANCH  12  14
ENDBRANCH  11  12
ENDBRANCH   1  11
TORSDOF 5
ENDMDL
MODEL 6
REMARK VINA RESULT:      -6.6      2.227      3.731
REMARK  Name = 62787
REMARK  5 active torsions:
REMARK  status: ('A' for Active; 'I' for Inactive)
REMARK    1  A    between atoms: C_1  and  C_11
REMARK    2  A    between atoms: C_2  and  O_7
REMARK    3  A    between atoms: C_4  and  O_9
REMARK    4  A    between atoms: C_11  and  C_12
REMARK    5  A    between atoms: C_12  and  N_14
REMARK                            x       y       z     vdW  Elec       q    Type
REMARK                         _______ _______ _______ _____ _____    ______ ____
ROOT
ATOM      1  C   UNL     1      33.977 -14.742 -23.457  0.00  0.00    +0.013 C 
ATOM      2  C   UNL     1      33.381 -13.762 -24.237  0.00  0.00    +0.135 C 
ATOM      3  C   UNL     1      34.267 -15.995 -23.976  0.00  0.00    +0.036 C 
ATOM      4  C   UNL     1      33.953 -16.274 -25.307  0.00  0.00    +0.139 C 
ATOM      5  C   UNL     1      33.069 -14.041 -25.567  0.00  0.00    +0.040 C 
ATOM      6  C   UNL     1      33.354 -15.298 -26.102  0.00  0.00    +0.040 C 
ENDROOT
BRANCH   2   7
ATOM      7  O   UNL     1      33.095 -12.530 -23.729  0.00  0.00    -0.472 OA
ATOM      8  C   UNL     1      33.823 -11.426 -24.262  0.00  0.00    +0.252 C 
ENDBRANCH   2   7
BRANCH   4   9
ATOM      9  O   UNL     1      34.233 -17.499 -25.829  0.00  0.00    -0.471 OA
ATOM     10  C   UNL     1      34.416 -18.572 -24.907  0.00  0.00    +0.252 C 
ENDBRANCH   4   9
BRANCH   1  11
ATOM     11  C   UNL     1      34.322 -14.458 -22.015  0.00  0.00    +0.008 C 
BRANCH  11  12
ATOM     12  C   UNL     1      33.739 -15.486 -21.028  0.00  0.00    -0.061 C 
ATOM     13  C   UNL     1      32.624 -14.900 -20.161  0.00  0.00    -0.024 C 
BRANCH  12  14
ATOM     14  N   UNL     1      34.803 -15.971 -20.144  0.00  0.00    +0.382 N 
ATOM     15  H   UNL     1      35.394 -16.629 -20.652  0.00  0.00    -0.089 HD
ATOM     16  H   UNL     1      34.389 -16.439 -19.338  0.00  0.00    -0.089 HD
ATOM     17  H   UNL     1      35.368 -15.183 -19.826  0.00  0.00    -0.089 HD
ENDBRANCH  12  14
ENDBRANCH  11  12
ENDBRANCH   1  11
TORSDOF 5
ENDMDL
MODEL 7
REMARK VINA RESULT:      -6.5      2.669      4.307
REMARK  Name = 62787
REMARK  5 active torsions:
REMARK  status: ('A' for Active; 'I' for Inactive)
REMARK    1  A    between atoms: C_1  and  C_11
REMARK    2  A    between atoms: C_2  and  O_7
REMARK    3  A    between atoms: C_4  and  O_9
REMARK    4  A    between atoms: C_11  and  C_12
REMARK    5  A    between atoms: C_12  and  N_14
REMARK                            x       y       z     vdW  Elec       q    Type
REMARK                         _______ _______ _______ _____ _____    ______ ____
ROOT
ATOM      1  C   UNL     1      34.385 -16.244 -21.711  0.00  0.00    +0.013 C 
ATOM      2  C   UNL     1      34.607 -15.817 -23.011  0.00  0.00    +0.135 C 
ATOM      3  C   UNL     1      33.646 -15.479 -20.820  0.00  0.00    +0.036 C 
ATOM      4  C   UNL     1      33.117 -14.259 -21.241  0.00  0.00    +0.139 C 
ATOM      5  C   UNL     1      34.078 -14.597 -23.431  0.00  0.00    +0.040 C 
ATOM      6  C   UNL     1      33.333 -13.817 -22.546  0.00  0.00    +0.040 C 
ENDROOT
BRANCH   2   7
ATOM      7  O   UNL     1      35.333 -16.566 -23.888  0.00  0.00    -0.472 OA
ATOM      8  C   UNL     1      34.758 -16.795 -25.173  0.00  0.00    +0.252 C 
ENDBRANCH   2   7
BRANCH   4   9
ATOM      9  O   UNL     1      32.389 -13.499 -20.378  0.00  0.00    -0.471 OA
ATOM     10  C   UNL     1      31.791 -12.314 -20.901  0.00  0.00    +0.252 C 
ENDBRANCH   4   9
BRANCH   1  11
ATOM     11  C   UNL     1      34.950 -17.561 -21.239  0.00  0.00    +0.008 C 
BRANCH  11  12
ATOM     12  C   UNL     1      34.141 -18.784 -21.708  0.00  0.00    -0.061 C 
ATOM     13  C   UNL     1      33.978 -19.836 -20.611  0.00  0.00    -0.024 C 
BRANCH  12  14
ATOM     14  N   UNL     1      34.816 -19.408 -22.849  0.00  0.00    +0.382 N 
ATOM     15  H   UNL     1      34.289 -19.219 -23.702  0.00  0.00    -0.089 HD
ATOM     16  H   UNL     1      34.872 -20.416 -22.701  0.00  0.00    -0.089 HD
ATOM     17  H   UNL     1      35.757 -19.025 -22.939  0.00  0.00    -0.089 HD
ENDBRANCH  12  14
ENDBRANCH  11  12
ENDBRANCH   1  11
TORSDOF 5
ENDMDL
MODEL 8
REMARK VINA RESULT:      -6.5      6.807      9.413
REMARK  Name = 62787
REMARK  5 active torsions:
REMARK  status: ('A' for Active; 'I' for Inactive)
REMARK    1  A    between atoms: C_1  and  C_11
REMARK    2  A    between atoms: C_2  and  O_7
REMARK    3  A    between atoms: C_4  and  O_9
REMARK    4  A    between atoms: C_11  and  C_12
REMARK    5  A    between atoms: C_12  and  N_14
REMARK                            x       y       z     vdW  Elec       q    Type
REMARK                         _______ _______ _______ _____ _____    ______ ____
ROOT
ATOM      1  C   UNL     1      33.777 -22.745 -17.895  0.00  0.00    +0.013 C 
ATOM      2  C   UNL     1      34.899 -22.737 -17.080  0.00  0.00    +0.135 C 
ATOM      3  C   UNL     1      32.530 -23.090 -17.397  0.00  0.00    +0.036 C 
ATOM      4  C   UNL     1      32.402 -23.435 -16.051  0.00  0.00    +0.139 C 
ATOM      5  C   UNL     1      34.770 -23.081 -15.734  0.00  0.00    +0.040 C 
ATOM      6  C   UNL     1      33.521 -23.430 -15.220  0.00  0.00    +0.040 C 
ENDROOT
BRANCH   2   7
ATOM      7  O   UNL     1      36.126 -22.399 -17.566  0.00  0.00    -0.472 OA
ATOM      8  C   UNL     1      37.082 -21.909 -16.628  0.00  0.00    +0.252 C 
ENDBRANCH   2   7
BRANCH   4   9
ATOM      9  O   UNL     1      31.183 -23.774 -15.549  0.00  0.00    -0.471 OA
ATOM     10  C   UNL     1      30.763 -23.108 -14.359  0.00  0.00    +0.252 C 
ENDBRANCH   4   9
BRANCH   1  11
ATOM     11  C   UNL     1      33.898 -22.376 -19.354  0.00  0.00    +0.008 C 
BRANCH  11  12
ATOM     12  C   UNL     1      34.001 -20.859 -19.599  0.00  0.00    -0.061 C 
ATOM     13  C   UNL     1      33.012 -20.369 -20.658  0.00  0.00    -0.024 C 
BRANCH  12  14
ATOM     14  N   UNL     1      35.357 -20.527 -20.045  0.00  0.00    +0.382 N 
ATOM     15  H   UNL     1      36.036 -20.998 -19.448  0.00  0.00    -0.089 HD
ATOM     16  H   UNL     1      35.496 -19.518 -19.987  0.00  0.00    -0.089 HD
ATOM     17  H   UNL     1      35.483 -20.832 -21.010  0.00  0.00    -0.089 HD
ENDBRANCH  12  14
ENDBRANCH  11  12
ENDBRANCH   1  11
TORSDOF 5
ENDMDL
MODEL 9
REMARK VINA RESULT:      -6.4      6.154      7.636
REMARK  Name = 62787
REMARK  5 active torsions:
REMARK  status: ('A' for Active; 'I' for Inactive)
REMARK    1  A    between atoms: C_1  and  C_11
REMARK    2  A    between atoms: C_2  and  O_7
REMARK    3  A    between atoms: C_4  and  O_9
REMARK    4  A    between atoms: C_11  and  C_12
REMARK    5  A    between atoms: C_12  and  N_14
REMARK                            x       y       z     vdW  Elec       q    Type
REMARK                         _______ _______ _______ _____ _____    ______ ____
ROOT
ATOM      1  C   UNL     1      32.716  -9.294 -22.560  0.00  0.00    +0.013 C 
ATOM      2  C   UNL     1      33.411  -8.109 -22.748  0.00  0.00    +0.135 C 
ATOM      3  C   UNL     1      33.041 -10.438 -23.273  0.00  0.00    +0.036 C 
ATOM      4  C   UNL     1      34.087 -10.396 -24.196  0.00  0.00    +0.139 C 
ATOM      5  C   UNL     1      34.457  -8.067 -23.670  0.00  0.00    +0.040 C 
ATOM      6  C   UNL     1      34.795  -9.211 -24.394  0.00  0.00    +0.040 C 
ENDROOT
BRANCH   2   7
ATOM      7  O   UNL     1      33.093  -6.983 -22.050  0.00  0.00    -0.472 OA
ATOM      8  C   UNL     1      32.226  -6.048 -22.689  0.00  0.00    +0.252 C 
ENDBRANCH   2   7
BRANCH   4   9
ATOM      9  O   UNL     1      34.418 -11.512 -24.901  0.00  0.00    -0.471 OA
ATOM     10  C   UNL     1      33.674 -12.698 -24.627  0.00  0.00    +0.252 C 
ENDBRANCH   4   9
BRANCH   1  11
ATOM     11  C   UNL     1      31.581  -9.358 -21.568  0.00  0.00    +0.008 C 
BRANCH  11  12
ATOM     12  C   UNL     1      32.044  -9.565 -20.113  0.00  0.00    -0.061 C 
ATOM     13  C   UNL     1      31.125 -10.507 -19.334  0.00  0.00    -0.024 C 
BRANCH  12  14
ATOM     14  N   UNL     1      32.075  -8.273 -19.422  0.00  0.00    +0.382 N 
ATOM     15  H   UNL     1      32.990  -7.841 -19.548  0.00  0.00    -0.089 HD
ATOM     16  H   UNL     1      31.901  -8.416 -18.427  0.00  0.00    -0.089 HD
ATOM     17  H   UNL     1      31.354  -7.663 -19.808  0.00  0.00    -0.089 HD
ENDBRANCH  12  14
ENDBRANCH  11  12
ENDBRANCH   1  11
TORSDOF 5
ENDMDL
