MODEL 1
REMARK VINA RESULT:     -11.5      0.000      0.000
REMARK  Name = 5288527
REMARK  4 active torsions:
REMARK  status: ('A' for Active; 'I' for Inactive)
REMARK    1  A    between atoms: N_1  and  C_18
REMARK    2  A    between atoms: C_4  and  C_11
REMARK    3  A    between atoms: C_19  and  S_24
REMARK    4  A    between atoms: S_24  and  N_27
REMARK                            x       y       z     vdW  Elec       q    Type
REMARK                         _______ _______ _______ _____ _____    ______ ____
ROOT
ATOM      1  N   UNL     1      32.671 -24.556 -13.131  0.00  0.00    -0.247 N 
ATOM      2  N   UNL     1      34.447 -23.701 -14.404  0.00  0.00    -0.336 NA
ATOM      3  N   UNL     1      34.856 -24.862 -12.333  0.00  0.00    -0.170 NA
ATOM      4  C   UNL     1      35.779 -23.538 -14.527  0.00  0.00    +0.161 C 
ATOM      5  C   UNL     1      34.060 -24.363 -13.298  0.00  0.00    +0.149 C 
ATOM      6  C   UNL     1      36.701 -23.998 -13.614  0.00  0.00    +0.056 C 
ATOM      7  C   UNL     1      36.176 -24.661 -12.524  0.00  0.00    +0.114 C 
ATOM      8  H   UNL     1      32.434 -25.045 -12.310  0.00  0.00    +0.165 HD
ENDROOT
BRANCH   4  11
ATOM      9  N   UNL     1      35.417 -22.656 -16.836  0.00  0.00    -0.246 N 
ATOM     10  N   UNL     1      37.363 -21.629 -17.243  0.00  0.00    -0.227 NA
ATOM     11  C   UNL     1      36.189 -22.826 -15.714  0.00  0.00    +0.107 C 
ATOM     12  C   UNL     1      36.178 -21.919 -17.740  0.00  0.00    +0.139 C 
ATOM     13  C   UNL     1      37.375 -22.187 -15.990  0.00  0.00    +0.118 C 
ATOM     14  C   UNL     1      34.124 -23.099 -17.097  0.00  0.00    +0.071 C 
ATOM     15  C   UNL     1      35.574 -21.616 -18.996  0.00  0.00    +0.035 C 
ATOM     16  C   UNL     1      33.563 -22.810 -18.282  0.00  0.00    +0.017 C 
ATOM     17  C   UNL     1      34.323 -22.042 -19.256  0.00  0.00    +0.004 C 
ENDBRANCH   4  11
BRANCH   1  18
ATOM     18  C   UNL     1      31.558 -24.188 -13.910  0.00  0.00    +0.058 C 
ATOM     19  C   UNL     1      29.351 -23.455 -15.456  0.00  0.00    +0.122 C 
ATOM     20  C   UNL     1      30.592 -25.138 -14.246  0.00  0.00    +0.017 C 
ATOM     21  C   UNL     1      31.417 -22.870 -14.350  0.00  0.00    +0.017 C 
ATOM     22  C   UNL     1      29.490 -24.773 -15.018  0.00  0.00    +0.021 C 
ATOM     23  C   UNL     1      30.315 -22.504 -15.121  0.00  0.00    +0.021 C 
BRANCH  19  24
ATOM     24  S   UNL     1      27.971 -22.997 -16.423  0.00  0.00    +0.057 S 
ATOM     25  O   UNL     1      26.817 -22.871 -15.544  0.00  0.00    -0.153 OA
ATOM     26  O   UNL     1      28.354 -21.883 -17.278  0.00  0.00    -0.153 OA
BRANCH  24  27
ATOM     27  N   UNL     1      27.776 -24.390 -17.393  0.00  0.00    -0.203 NA
ATOM     28  H   UNL     1      27.902 -24.141 -18.374  0.00  0.00    +0.144 HD
ATOM     29  H   UNL     1      26.839 -24.772 -17.256  0.00  0.00    +0.144 HD
ENDBRANCH  24  27
ENDBRANCH  19  24
ENDBRANCH   1  18
TORSDOF 4
ENDMDL
MODEL 2
REMARK VINA RESULT:     -11.3      4.992      7.000
REMARK  Name = 5288527
REMARK  4 active torsions:
REMARK  status: ('A' for Active; 'I' for Inactive)
REMARK    1  A    between atoms: N_1  and  C_18
REMARK    2  A    between atoms: C_4  and  C_11
REMARK    3  A    between atoms: C_19  and  S_24
REMARK    4  A    between atoms: S_24  and  N_27
REMARK                            x       y       z     vdW  Elec       q    Type
REMARK                         _______ _______ _______ _____ _____    ______ ____
ROOT
ATOM      1  N   UNL     1      34.918 -24.879 -13.021  0.00  0.00    -0.247 N 
ATOM      2  N   UNL     1      34.065 -23.901 -14.976  0.00  0.00    -0.336 NA
ATOM      3  N   UNL     1      32.643 -24.308 -13.073  0.00  0.00    -0.170 NA
ATOM      4  C   UNL     1      32.994 -23.389 -15.614  0.00  0.00    +0.161 C 
ATOM      5  C   UNL     1      33.821 -24.336 -13.725  0.00  0.00    +0.149 C 
ATOM      6  C   UNL     1      31.735 -23.301 -15.063  0.00  0.00    +0.056 C 
ATOM      7  C   UNL     1      31.617 -23.782 -13.775  0.00  0.00    +0.114 C 
ATOM      8  H   UNL     1      34.693 -25.184 -12.112  0.00  0.00    +0.165 HD
ENDROOT
BRANCH   4  11
ATOM      9  N   UNL     1      34.484 -22.511 -17.416  0.00  0.00    -0.246 N 
ATOM     10  N   UNL     1      33.061 -22.314 -19.131  0.00  0.00    -0.227 NA
ATOM     11  C   UNL     1      33.260 -22.925 -16.955  0.00  0.00    +0.107 C 
ATOM     12  C   UNL     1      34.310 -22.148 -18.749  0.00  0.00    +0.139 C 
ATOM     13  C   UNL     1      32.406 -22.795 -18.025  0.00  0.00    +0.118 C 
ATOM     14  C   UNL     1      35.703 -22.437 -16.749  0.00  0.00    +0.071 C 
ATOM     15  C   UNL     1      35.462 -21.679 -19.447  0.00  0.00    +0.035 C 
ATOM     16  C   UNL     1      36.783 -21.994 -17.413  0.00  0.00    +0.017 C 
ATOM     17  C   UNL     1      36.646 -21.604 -18.807  0.00  0.00    +0.004 C 
ENDBRANCH   4  11
BRANCH   1  18
ATOM     18  C   UNL     1      36.269 -25.070 -13.364  0.00  0.00    +0.058 C 
ATOM     19  C   UNL     1      38.951 -25.449 -14.045  0.00  0.00    +0.122 C 
ATOM     20  C   UNL     1      37.279 -24.535 -12.560  0.00  0.00    +0.017 C 
ATOM     21  C   UNL     1      36.606 -25.795 -14.509  0.00  0.00    +0.017 C 
ATOM     22  C   UNL     1      38.617 -24.724 -12.901  0.00  0.00    +0.021 C 
ATOM     23  C   UNL     1      37.944 -25.984 -14.850  0.00  0.00    +0.021 C 
BRANCH  19  24
ATOM     24  S   UNL     1      40.627 -25.686 -14.472  0.00  0.00    +0.057 S 
ATOM     25  O   UNL     1      41.318 -24.410 -14.344  0.00  0.00    -0.153 OA
ATOM     26  O   UNL     1      41.126 -26.853 -13.760  0.00  0.00    -0.153 OA
BRANCH  24  27
ATOM     27  N   UNL     1      40.490 -26.074 -16.131  0.00  0.00    -0.203 NA
ATOM     28  H   UNL     1      41.109 -25.472 -16.673  0.00  0.00    +0.144 HD
ATOM     29  H   UNL     1      39.525 -25.933 -16.434  0.00  0.00    +0.144 HD
ENDBRANCH  24  27
ENDBRANCH  19  24
ENDBRANCH   1  18
TORSDOF 4
ENDMDL
MODEL 3
REMARK VINA RESULT:     -10.8      4.383      6.822
REMARK  Name = 5288527
REMARK  4 active torsions:
REMARK  status: ('A' for Active; 'I' for Inactive)
REMARK    1  A    between atoms: N_1  and  C_18
REMARK    2  A    between atoms: C_4  and  C_11
REMARK    3  A    between atoms: C_19  and  S_24
REMARK    4  A    between atoms: S_24  and  N_27
REMARK                            x       y       z     vdW  Elec       q    Type
REMARK                         _______ _______ _______ _____ _____    ______ ____
ROOT
ATOM      1  N   UNL     1      32.582 -21.960 -18.637  0.00  0.00    -0.247 N 
ATOM      2  N   UNL     1      34.202 -22.710 -17.115  0.00  0.00    -0.336 NA
ATOM      3  N   UNL     1      31.895 -23.367 -16.891  0.00  0.00    -0.170 NA
ATOM      4  C   UNL     1      34.474 -23.444 -16.018  0.00  0.00    +0.161 C 
ATOM      5  C   UNL     1      32.909 -22.716 -17.491  0.00  0.00    +0.149 C 
ATOM      6  C   UNL     1      33.531 -24.157 -15.312  0.00  0.00    +0.056 C 
ATOM      7  C   UNL     1      32.242 -24.081 -15.800  0.00  0.00    +0.114 C 
ATOM      8  H   UNL     1      31.628 -21.993 -18.875  0.00  0.00    +0.165 HD
ENDROOT
BRANCH   4  11
ATOM      9  N   UNL     1      36.576 -24.538 -15.229  0.00  0.00    -0.246 N 
ATOM     10  N   UNL     1      37.980 -22.800 -15.110  0.00  0.00    -0.227 NA
ATOM     11  C   UNL     1      35.861 -23.434 -15.618  0.00  0.00    +0.107 C 
ATOM     12  C   UNL     1      37.863 -24.100 -14.929  0.00  0.00    +0.139 C 
ATOM     13  C   UNL     1      36.744 -22.383 -15.536  0.00  0.00    +0.118 C 
ATOM     14  C   UNL     1      36.171 -25.866 -15.127  0.00  0.00    +0.071 C 
ATOM     15  C   UNL     1      38.798 -25.086 -14.496  0.00  0.00    +0.035 C 
ATOM     16  C   UNL     1      37.056 -26.788 -14.718  0.00  0.00    +0.017 C 
ATOM     17  C   UNL     1      38.412 -26.372 -14.394  0.00  0.00    +0.004 C 
ENDBRANCH   4  11
BRANCH   1  18
ATOM     18  C   UNL     1      33.354 -21.167 -19.508  0.00  0.00    +0.058 C 
ATOM     19  C   UNL     1      34.884 -19.594 -21.235  0.00  0.00    +0.122 C 
ATOM     20  C   UNL     1      34.729 -21.384 -19.620  0.00  0.00    +0.017 C 
ATOM     21  C   UNL     1      32.747 -20.160 -20.262  0.00  0.00    +0.017 C 
ATOM     22  C   UNL     1      35.493 -20.599 -20.482  0.00  0.00    +0.021 C 
ATOM     23  C   UNL     1      33.511 -19.375 -21.124  0.00  0.00    +0.021 C 
BRANCH  19  24
ATOM     24  S   UNL     1      35.841 -18.609 -22.314  0.00  0.00    +0.057 S 
ATOM     25  O   UNL     1      37.231 -18.678 -21.886  0.00  0.00    -0.153 OA
ATOM     26  O   UNL     1      35.488 -18.948 -23.685  0.00  0.00    -0.153 OA
BRANCH  24  27
ATOM     27  N   UNL     1      35.232 -17.052 -21.960  0.00  0.00    -0.203 NA
ATOM     28  H   UNL     1      34.575 -17.113 -21.183  0.00  0.00    +0.144 HD
ATOM     29  H   UNL     1      34.754 -16.679 -22.781  0.00  0.00    +0.144 HD
ENDBRANCH  24  27
ENDBRANCH  19  24
ENDBRANCH   1  18
TORSDOF 4
ENDMDL
MODEL 4
REMARK VINA RESULT:     -10.1      5.123      7.084
REMARK  Name = 5288527
REMARK  4 active torsions:
REMARK  status: ('A' for Active; 'I' for Inactive)
REMARK    1  A    between atoms: N_1  and  C_18
REMARK    2  A    between atoms: C_4  and  C_11
REMARK    3  A    between atoms: C_19  and  S_24
REMARK    4  A    between atoms: S_24  and  N_27
REMARK                            x       y       z     vdW  Elec       q    Type
REMARK                         _______ _______ _______ _____ _____    ______ ____
ROOT
ATOM      1  N   UNL     1      34.537 -24.547 -15.157  0.00  0.00    -0.247 N 
ATOM      2  N   UNL     1      34.582 -23.158 -17.047  0.00  0.00    -0.336 NA
ATOM      3  N   UNL     1      32.498 -23.736 -15.986  0.00  0.00    -0.170 NA
ATOM      4  C   UNL     1      33.879 -22.430 -17.937  0.00  0.00    +0.161 C 
ATOM      5  C   UNL     1      33.838 -23.776 -16.111  0.00  0.00    +0.149 C 
ATOM      6  C   UNL     1      32.507 -22.307 -17.922  0.00  0.00    +0.056 C 
ATOM      7  C   UNL     1      31.861 -22.990 -16.912  0.00  0.00    +0.114 C 
ATOM      8  H   UNL     1      33.953 -24.981 -14.493  0.00  0.00    +0.165 HD
ENDROOT
BRANCH   4  11
ATOM      9  N   UNL     1      34.205 -20.876 -19.865  0.00  0.00    -0.246 N 
ATOM     10  N   UNL     1      36.402 -21.070 -20.242  0.00  0.00    -0.227 NA
ATOM     11  C   UNL     1      34.681 -21.770 -18.940  0.00  0.00    +0.107 C 
ATOM     12  C   UNL     1      35.293 -20.477 -20.637  0.00  0.00    +0.139 C 
ATOM     13  C   UNL     1      36.029 -21.870 -19.192  0.00  0.00    +0.118 C 
ATOM     14  C   UNL     1      32.908 -20.409 -20.060  0.00  0.00    +0.071 C 
ATOM     15  C   UNL     1      35.038 -19.537 -21.678  0.00  0.00    +0.035 C 
ATOM     16  C   UNL     1      32.676 -19.524 -21.043  0.00  0.00    +0.017 C 
ATOM     17  C   UNL     1      33.785 -19.081 -21.873  0.00  0.00    +0.004 C 
ENDBRANCH   4  11
BRANCH   1  18
ATOM     18  C   UNL     1      35.906 -24.819 -14.970  0.00  0.00    +0.058 C 
ATOM     19  C   UNL     1      38.621 -25.355 -14.597  0.00  0.00    +0.122 C 
ATOM     20  C   UNL     1      36.379 -26.130 -15.055  0.00  0.00    +0.017 C 
ATOM     21  C   UNL     1      36.795 -23.777 -14.698  0.00  0.00    +0.017 C 
ATOM     22  C   UNL     1      37.734 -26.398 -14.869  0.00  0.00    +0.021 C 
ATOM     23  C   UNL     1      38.150 -24.044 -14.512  0.00  0.00    +0.021 C 
BRANCH  19  24
ATOM     24  S   UNL     1      40.318 -25.690 -14.364  0.00  0.00    +0.057 S 
ATOM     25  O   UNL     1      40.985 -24.447 -14.002  0.00  0.00    -0.153 OA
ATOM     26  O   UNL     1      40.446 -26.857 -13.502  0.00  0.00    -0.153 OA
BRANCH  24  27
ATOM     27  N   UNL     1      40.786 -26.126 -15.949  0.00  0.00    -0.203 NA
ATOM     28  H   UNL     1      41.671 -25.675 -16.177  0.00  0.00    +0.144 HD
ATOM     29  H   UNL     1      40.069 -25.824 -16.610  0.00  0.00    +0.144 HD
ENDBRANCH  24  27
ENDBRANCH  19  24
ENDBRANCH   1  18
TORSDOF 4
ENDMDL
MODEL 5
REMARK VINA RESULT:      -9.7      1.575      2.392
REMARK  Name = 5288527
REMARK  4 active torsions:
REMARK  status: ('A' for Active; 'I' for Inactive)
REMARK    1  A    between atoms: N_1  and  C_18
REMARK    2  A    between atoms: C_4  and  C_11
REMARK    3  A    between atoms: C_19  and  S_24
REMARK    4  A    between atoms: S_24  and  N_27
REMARK                            x       y       z     vdW  Elec       q    Type
REMARK                         _______ _______ _______ _____ _____    ______ ____
ROOT
ATOM      1  N   UNL     1      33.914 -23.706 -14.788  0.00  0.00    -0.247 N 
ATOM      2  N   UNL     1      35.048 -22.621 -16.532  0.00  0.00    -0.336 NA
ATOM      3  N   UNL     1      36.259 -23.690 -14.744  0.00  0.00    -0.170 NA
ATOM      4  C   UNL     1      36.233 -22.272 -17.070  0.00  0.00    +0.161 C 
ATOM      5  C   UNL     1      35.134 -23.320 -15.384  0.00  0.00    +0.149 C 
ATOM      6  C   UNL     1      37.455 -22.587 -16.518  0.00  0.00    +0.056 C 
ATOM      7  C   UNL     1      37.407 -23.305 -15.341  0.00  0.00    +0.114 C 
ATOM      8  H   UNL     1      34.024 -24.214 -13.952  0.00  0.00    +0.165 HD
ENDROOT
BRANCH   4  11
ATOM      9  N   UNL     1      34.972 -21.282 -18.985  0.00  0.00    -0.246 N 
ATOM     10  N   UNL     1      36.608 -20.297 -20.150  0.00  0.00    -0.227 NA
ATOM     11  C   UNL     1      36.136 -21.522 -18.300  0.00  0.00    +0.107 C 
ATOM     12  C   UNL     1      35.313 -20.530 -20.107  0.00  0.00    +0.139 C 
ATOM     13  C   UNL     1      37.123 -20.908 -19.035  0.00  0.00    +0.118 C 
ATOM     14  C   UNL     1      33.670 -21.674 -18.686  0.00  0.00    +0.071 C 
ATOM     15  C   UNL     1      34.250 -20.155 -20.981  0.00  0.00    +0.035 C 
ATOM     16  C   UNL     1      32.676 -21.318 -19.514  0.00  0.00    +0.017 C 
ATOM     17  C   UNL     1      32.988 -20.532 -20.698  0.00  0.00    +0.004 C 
ENDBRANCH   4  11
BRANCH   1  18
ATOM     18  C   UNL     1      32.569 -23.507 -15.155  0.00  0.00    +0.058 C 
ATOM     19  C   UNL     1      29.903 -23.114 -15.885  0.00  0.00    +0.122 C 
ATOM     20  C   UNL     1      31.613 -23.211 -14.181  0.00  0.00    +0.017 C 
ATOM     21  C   UNL     1      32.187 -23.607 -16.495  0.00  0.00    +0.017 C 
ATOM     22  C   UNL     1      30.282 -23.015 -14.546  0.00  0.00    +0.021 C 
ATOM     23  C   UNL     1      30.856 -23.411 -16.859  0.00  0.00    +0.021 C 
BRANCH  19  24
ATOM     24  S   UNL     1      28.235 -22.870 -16.341  0.00  0.00    +0.057 S 
ATOM     25  O   UNL     1      27.420 -22.898 -15.135  0.00  0.00    -0.153 OA
ATOM     26  O   UNL     1      28.164 -21.723 -17.235  0.00  0.00    -0.153 OA
BRANCH  24  27
ATOM     27  N   UNL     1      27.933 -24.289 -17.245  0.00  0.00    -0.203 NA
ATOM     28  H   UNL     1      26.928 -24.456 -17.287  0.00  0.00    +0.144 HD
ATOM     29  H   UNL     1      28.393 -25.082 -16.796  0.00  0.00    +0.144 HD
ENDBRANCH  24  27
ENDBRANCH  19  24
ENDBRANCH   1  18
TORSDOF 4
ENDMDL
MODEL 6
REMARK VINA RESULT:      -9.6      3.822      7.207
REMARK  Name = 5288527
REMARK  4 active torsions:
REMARK  status: ('A' for Active; 'I' for Inactive)
REMARK    1  A    between atoms: N_1  and  C_18
REMARK    2  A    between atoms: C_4  and  C_11
REMARK    3  A    between atoms: C_19  and  S_24
REMARK    4  A    between atoms: S_24  and  N_27
REMARK                            x       y       z     vdW  Elec       q    Type
REMARK                         _______ _______ _______ _____ _____    ______ ____
ROOT
ATOM      1  N   UNL     1      36.822 -21.790 -18.078  0.00  0.00    -0.247 N 
ATOM      2  N   UNL     1      34.823 -22.563 -17.124  0.00  0.00    -0.336 NA
ATOM      3  N   UNL     1      36.958 -23.190 -16.200  0.00  0.00    -0.170 NA
ATOM      4  C   UNL     1      34.236 -23.300 -16.160  0.00  0.00    +0.161 C 
ATOM      5  C   UNL     1      36.168 -22.552 -17.085  0.00  0.00    +0.149 C 
ATOM      6  C   UNL     1      34.926 -24.000 -15.195  0.00  0.00    +0.056 C 
ATOM      7  C   UNL     1      36.301 -23.907 -15.265  0.00  0.00    +0.114 C 
ATOM      8  H   UNL     1      37.804 -21.811 -18.011  0.00  0.00    +0.165 HD
ENDROOT
BRANCH   4  11
ATOM      9  N   UNL     1      31.981 -23.920 -15.284  0.00  0.00    -0.246 N 
ATOM     10  N   UNL     1      30.628 -22.987 -16.803  0.00  0.00    -0.227 NA
ATOM     11  C   UNL     1      32.793 -23.310 -16.206  0.00  0.00    +0.107 C 
ATOM     12  C   UNL     1      30.668 -23.694 -15.693  0.00  0.00    +0.139 C 
ATOM     13  C   UNL     1      31.940 -22.746 -17.125  0.00  0.00    +0.118 C 
ATOM     14  C   UNL     1      32.320 -24.639 -14.142  0.00  0.00    +0.071 C 
ATOM     15  C   UNL     1      29.635 -24.242 -14.878  0.00  0.00    +0.035 C 
ATOM     16  C   UNL     1      31.341 -25.152 -13.380  0.00  0.00    +0.017 C 
ATOM     17  C   UNL     1      29.956 -24.940 -13.771  0.00  0.00    +0.004 C 
ENDBRANCH   4  11
BRANCH   1  18
ATOM     18  C   UNL     1      36.344 -21.006 -19.145  0.00  0.00    +0.058 C 
ATOM     19  C   UNL     1      35.396 -19.451 -21.262  0.00  0.00    +0.122 C 
ATOM     20  C   UNL     1      37.196 -20.108 -19.791  0.00  0.00    +0.017 C 
ATOM     21  C   UNL     1      35.016 -21.125 -19.562  0.00  0.00    +0.017 C 
ATOM     22  C   UNL     1      36.723 -19.332 -20.848  0.00  0.00    +0.021 C 
ATOM     23  C   UNL     1      34.543 -20.348 -20.618  0.00  0.00    +0.021 C 
BRANCH  19  24
ATOM     24  S   UNL     1      34.802 -18.479 -22.585  0.00  0.00    +0.057 S 
ATOM     25  O   UNL     1      34.374 -19.371 -23.654  0.00  0.00    -0.153 OA
ATOM     26  O   UNL     1      33.875 -17.490 -22.053  0.00  0.00    -0.153 OA
BRANCH  24  27
ATOM     27  N   UNL     1      36.233 -17.682 -23.072  0.00  0.00    -0.203 NA
ATOM     28  H   UNL     1      36.393 -17.849 -24.065  0.00  0.00    +0.144 HD
ATOM     29  H   UNL     1      37.022 -18.042 -22.534  0.00  0.00    +0.144 HD
ENDBRANCH  24  27
ENDBRANCH  19  24
ENDBRANCH   1  18
TORSDOF 4
ENDMDL
MODEL 7
REMARK VINA RESULT:      -9.3     11.232     14.109
REMARK  Name = 5288527
REMARK  4 active torsions:
REMARK  status: ('A' for Active; 'I' for Inactive)
REMARK    1  A    between atoms: N_1  and  C_18
REMARK    2  A    between atoms: C_4  and  C_11
REMARK    3  A    between atoms: C_19  and  S_24
REMARK    4  A    between atoms: S_24  and  N_27
REMARK                            x       y       z     vdW  Elec       q    Type
REMARK                         _______ _______ _______ _____ _____    ______ ____
ROOT
ATOM      1  N   UNL     1      32.971 -11.173 -24.818  0.00  0.00    -0.247 N 
ATOM      2  N   UNL     1      33.647 -13.163 -23.777  0.00  0.00    -0.336 NA
ATOM      3  N   UNL     1      33.342 -13.058 -26.165  0.00  0.00    -0.170 NA
ATOM      4  C   UNL     1      33.993 -14.458 -23.921  0.00  0.00    +0.161 C 
ATOM      5  C   UNL     1      33.338 -12.532 -24.925  0.00  0.00    +0.149 C 
ATOM      6  C   UNL     1      34.037 -15.116 -25.129  0.00  0.00    +0.056 C 
ATOM      7  C   UNL     1      33.698 -14.358 -26.231  0.00  0.00    +0.114 C 
ATOM      8  H   UNL     1      32.753 -10.752 -25.682  0.00  0.00    +0.165 HD
ENDROOT
BRANCH   4  11
ATOM      9  N   UNL     1      34.706 -16.444 -22.585  0.00  0.00    -0.246 N 
ATOM     10  N   UNL     1      34.709 -15.621 -20.505  0.00  0.00    -0.227 NA
ATOM     11  C   UNL     1      34.323 -15.131 -22.687  0.00  0.00    +0.107 C 
ATOM     12  C   UNL     1      34.930 -16.695 -21.234  0.00  0.00    +0.139 C 
ATOM     13  C   UNL     1      34.334 -14.650 -21.399  0.00  0.00    +0.118 C 
ATOM     14  C   UNL     1      34.864 -17.401 -23.584  0.00  0.00    +0.071 C 
ATOM     15  C   UNL     1      35.343 -18.014 -20.881  0.00  0.00    +0.035 C 
ATOM     16  C   UNL     1      35.253 -18.640 -23.243  0.00  0.00    +0.017 C 
ATOM     17  C   UNL     1      35.497 -18.945 -21.842  0.00  0.00    +0.004 C 
ENDBRANCH   4  11
BRANCH   1  18
ATOM     18  C   UNL     1      32.855 -10.301 -23.719  0.00  0.00    +0.058 C 
ATOM     19  C   UNL     1      32.625  -8.572 -21.539  0.00  0.00    +0.122 C 
ATOM     20  C   UNL     1      33.639  -9.147 -23.655  0.00  0.00    +0.017 C 
ATOM     21  C   UNL     1      31.956 -10.587 -22.690  0.00  0.00    +0.017 C 
ATOM     22  C   UNL     1      33.524  -8.284 -22.566  0.00  0.00    +0.021 C 
ATOM     23  C   UNL     1      31.841  -9.724 -21.601  0.00  0.00    +0.021 C 
BRANCH  19  24
ATOM     24  S   UNL     1      32.481  -7.492 -20.174  0.00  0.00    +0.057 S 
ATOM     25  O   UNL     1      31.609  -8.112 -19.188  0.00  0.00    -0.153 OA
ATOM     26  O   UNL     1      33.815  -7.055 -19.787  0.00  0.00    -0.153 OA
BRANCH  24  27
ATOM     27  N   UNL     1      31.659  -6.174 -20.887  0.00  0.00    -0.203 NA
ATOM     28  H   UNL     1      31.685  -6.266 -21.902  0.00  0.00    +0.144 HD
ATOM     29  H   UNL     1      32.111  -5.302 -20.612  0.00  0.00    +0.144 HD
ENDBRANCH  24  27
ENDBRANCH  19  24
ENDBRANCH   1  18
TORSDOF 4
ENDMDL
MODEL 8
REMARK VINA RESULT:      -9.3      3.930      6.261
REMARK  Name = 5288527
REMARK  4 active torsions:
REMARK  status: ('A' for Active; 'I' for Inactive)
REMARK    1  A    between atoms: N_1  and  C_18
REMARK    2  A    between atoms: C_4  and  C_11
REMARK    3  A    between atoms: C_19  and  S_24
REMARK    4  A    between atoms: S_24  and  N_27
REMARK                            x       y       z     vdW  Elec       q    Type
REMARK                         _______ _______ _______ _____ _____    ______ ____
ROOT
ATOM      1  N   UNL     1      32.096 -22.809 -17.644  0.00  0.00    -0.247 N 
ATOM      2  N   UNL     1      33.534 -23.408 -15.890  0.00  0.00    -0.336 NA
ATOM      3  N   UNL     1      31.235 -24.126 -15.904  0.00  0.00    -0.170 NA
ATOM      4  C   UNL     1      33.688 -24.062 -14.722  0.00  0.00    +0.161 C 
ATOM      5  C   UNL     1      32.298 -23.481 -16.419  0.00  0.00    +0.149 C 
ATOM      6  C   UNL     1      32.683 -24.759 -14.089  0.00  0.00    +0.056 C 
ATOM      7  C   UNL     1      31.463 -24.757 -14.734  0.00  0.00    +0.114 C 
ATOM      8  H   UNL     1      31.179 -22.889 -17.993  0.00  0.00    +0.165 HD
ENDROOT
BRANCH   4  11
ATOM      9  N   UNL     1      36.025 -24.878 -14.392  0.00  0.00    -0.246 N 
ATOM     10  N   UNL     1      36.859 -23.332 -13.007  0.00  0.00    -0.227 NA
ATOM     11  C   UNL     1      35.015 -23.980 -14.158  0.00  0.00    +0.107 C 
ATOM     12  C   UNL     1      37.130 -24.439 -13.667  0.00  0.00    +0.139 C 
ATOM     13  C   UNL     1      35.552 -23.043 -13.308  0.00  0.00    +0.118 C 
ATOM     14  C   UNL     1      36.028 -26.024 -15.181  0.00  0.00    +0.071 C 
ATOM     15  C   UNL     1      38.316 -25.225 -13.756  0.00  0.00    +0.035 C 
ATOM     16  C   UNL     1      37.148 -26.759 -15.260  0.00  0.00    +0.017 C 
ATOM     17  C   UNL     1      38.325 -26.336 -14.518  0.00  0.00    +0.004 C 
ENDBRANCH   4  11
BRANCH   1  18
ATOM     18  C   UNL     1      32.949 -22.048 -18.465  0.00  0.00    +0.058 C 
ATOM     19  C   UNL     1      34.639 -20.536 -20.095  0.00  0.00    +0.122 C 
ATOM     20  C   UNL     1      34.326 -22.274 -18.446  0.00  0.00    +0.017 C 
ATOM     21  C   UNL     1      32.419 -21.063 -19.303  0.00  0.00    +0.017 C 
ATOM     22  C   UNL     1      35.170 -21.519 -19.260  0.00  0.00    +0.021 C 
ATOM     23  C   UNL     1      33.263 -20.308 -20.116  0.00  0.00    +0.021 C 
BRANCH  19  24
ATOM     24  S   UNL     1      35.696 -19.590 -21.114  0.00  0.00    +0.057 S 
ATOM     25  O   UNL     1      35.382 -19.891 -22.504  0.00  0.00    -0.153 OA
ATOM     26  O   UNL     1      35.674 -18.211 -20.649  0.00  0.00    -0.153 OA
BRANCH  24  27
ATOM     27  N   UNL     1      37.215 -20.274 -20.731  0.00  0.00    -0.203 NA
ATOM     28  H   UNL     1      37.374 -21.095 -21.314  0.00  0.00    +0.144 HD
ATOM     29  H   UNL     1      37.227 -20.546 -19.748  0.00  0.00    +0.144 HD
ENDBRANCH  24  27
ENDBRANCH  19  24
ENDBRANCH   1  18
TORSDOF 4
ENDMDL
MODEL 9
REMARK VINA RESULT:      -9.3      9.612     12.772
REMARK  Name = 5288527
REMARK  4 active torsions:
REMARK  status: ('A' for Active; 'I' for Inactive)
REMARK    1  A    between atoms: N_1  and  C_18
REMARK    2  A    between atoms: C_4  and  C_11
REMARK    3  A    between atoms: C_19  and  S_24
REMARK    4  A    between atoms: S_24  and  N_27
REMARK                            x       y       z     vdW  Elec       q    Type
REMARK                         _______ _______ _______ _____ _____    ______ ____
ROOT
ATOM      1  N   UNL     1      34.536 -16.858 -25.241  0.00  0.00    -0.247 N 
ATOM      2  N   UNL     1      33.551 -14.996 -24.209  0.00  0.00    -0.336 NA
ATOM      3  N   UNL     1      33.805 -15.093 -26.603  0.00  0.00    -0.170 NA
ATOM      4  C   UNL     1      32.980 -13.785 -24.360  0.00  0.00    +0.161 C 
ATOM      5  C   UNL     1      33.934 -15.586 -25.357  0.00  0.00    +0.149 C 
ATOM      6  C   UNL     1      32.788 -13.168 -25.576  0.00  0.00    +0.056 C 
ATOM      7  C   UNL     1      33.225 -13.877 -26.677  0.00  0.00    +0.114 C 
ATOM      8  H   UNL     1      34.801 -17.251 -26.105  0.00  0.00    +0.165 HD
ENDROOT
BRANCH   4  11
ATOM      9  N   UNL     1      32.521 -11.802 -22.913  0.00  0.00    -0.246 N 
ATOM     10  N   UNL     1      31.856 -12.769 -21.009  0.00  0.00    -0.227 NA
ATOM     11  C   UNL     1      32.571 -13.156 -23.127  0.00  0.00    +0.107 C 
ATOM     12  C   UNL     1      32.079 -11.616 -21.605  0.00  0.00    +0.139 C 
ATOM     13  C   UNL     1      32.158 -13.725 -21.945  0.00  0.00    +0.118 C 
ATOM     14  C   UNL     1      32.834 -10.756 -23.777  0.00  0.00    +0.071 C 
ATOM     15  C   UNL     1      31.948 -10.271 -21.152  0.00  0.00    +0.035 C 
ATOM     16  C   UNL     1      32.708  -9.492 -23.343  0.00  0.00    +0.017 C 
ATOM     17  C   UNL     1      32.249  -9.254 -21.983  0.00  0.00    +0.004 C 
ENDBRANCH   4  11
BRANCH   1  18
ATOM     18  C   UNL     1      34.832 -17.675 -24.134  0.00  0.00    +0.058 C 
ATOM     19  C   UNL     1      35.420 -19.295 -21.936  0.00  0.00    +0.122 C 
ATOM     20  C   UNL     1      34.590 -19.049 -24.192  0.00  0.00    +0.017 C 
ATOM     21  C   UNL     1      35.370 -17.114 -22.973  0.00  0.00    +0.017 C 
ATOM     22  C   UNL     1      34.884 -19.858 -23.095  0.00  0.00    +0.021 C 
ATOM     23  C   UNL     1      35.663 -17.922 -21.876  0.00  0.00    +0.021 C 
BRANCH  19  24
ATOM     24  S   UNL     1      35.787 -20.307 -20.562  0.00  0.00    +0.057 S 
ATOM     25  O   UNL     1      36.099 -21.644 -21.047  0.00  0.00    -0.153 OA
ATOM     26  O   UNL     1      36.738 -19.606 -19.711  0.00  0.00    -0.153 OA
BRANCH  24  27
ATOM     27  N   UNL     1      34.271 -20.347 -19.773  0.00  0.00    -0.203 NA
ATOM     28  H   UNL     1      34.411 -20.272 -18.766  0.00  0.00    +0.144 HD
ATOM     29  H   UNL     1      33.800 -21.226 -19.987  0.00  0.00    +0.144 HD
ENDBRANCH  24  27
ENDBRANCH  19  24
ENDBRANCH   1  18
TORSDOF 4
ENDMDL
