MODEL 1
REMARK VINA RESULT:      -9.7      0.000      0.000
REMARK  Name = 444865
REMARK  1 active torsions:
REMARK  status: ('A' for Active; 'I' for Inactive)
REMARK    1  A    between atoms: C_19  and  O_20
REMARK                            x       y       z     vdW  Elec       q    Type
REMARK                         _______ _______ _______ _____ _____    ______ ____
ROOT
ATOM      1  O   UNL     1      36.836 -26.415 -11.934  0.00  0.00    -0.296 OA
ATOM      2  C   UNL     1      36.469 -25.251 -14.038  0.00  0.00    +0.056 C 
ATOM      3  C   UNL     1      37.182 -23.915 -14.330  0.00  0.00    +0.029 C 
ATOM      4  C   UNL     1      34.999 -24.919 -13.826  0.00  0.00    +0.012 C 
ATOM      5  C   UNL     1      38.660 -24.231 -14.099  0.00  0.00    +0.012 C 
ATOM      6  C   UNL     1      37.252 -25.660 -12.803  0.00  0.00    +0.150 C 
ATOM      7  C   UNL     1      36.688 -23.291 -15.605  0.00  0.00    -0.026 C 
ATOM      8  C   UNL     1      38.638 -25.042 -12.795  0.00  0.00    +0.065 C 
ATOM      9  C   UNL     1      34.388 -24.280 -15.088  0.00  0.00    +0.026 C 
ATOM     10  C   UNL     1      35.315 -23.413 -15.943  0.00  0.00    -0.026 C 
ATOM     11  C   UNL     1      36.668 -26.363 -15.084  0.00  0.00    +0.008 C 
ATOM     12  C   UNL     1      37.535 -22.525 -16.408  0.00  0.00    -0.005 C 
ATOM     13  C   UNL     1      34.813 -22.774 -17.116  0.00  0.00    -0.004 C 
ATOM     14  C   UNL     1      35.700 -22.011 -17.916  0.00  0.00    +0.003 C 
ATOM     15  C   UNL     1      37.047 -21.899 -17.551  0.00  0.00    -0.000 C 
ATOM     16  C   UNL     1      33.464 -22.856 -17.539  0.00  0.00    +0.003 C 
ATOM     17  C   UNL     1      35.234 -21.370 -19.076  0.00  0.00    +0.037 C 
ATOM     18  C   UNL     1      33.015 -22.213 -18.695  0.00  0.00    +0.037 C 
ATOM     19  C   UNL     1      33.900 -21.469 -19.462  0.00  0.00    +0.134 C 
ENDROOT
BRANCH  19  20
ATOM     20  O   UNL     1      33.467 -20.842 -20.589  0.00  0.00    -0.506 OA
ATOM     21  H   UNL     1      32.565 -20.894 -20.838  0.00  0.00    +0.292 HD
ENDBRANCH  19  20
TORSDOF 1
ENDMDL
MODEL 2
REMARK VINA RESULT:      -9.3      3.026      4.241
REMARK  Name = 444865
REMARK  1 active torsions:
REMARK  status: ('A' for Active; 'I' for Inactive)
REMARK    1  A    between atoms: C_19  and  O_20
REMARK                            x       y       z     vdW  Elec       q    Type
REMARK                         _______ _______ _______ _____ _____    ______ ____
ROOT
ATOM      1  O   UNL     1      38.267 -23.971 -13.588  0.00  0.00    -0.296 OA
ATOM      2  C   UNL     1      36.019 -24.095 -14.509  0.00  0.00    +0.056 C 
ATOM      3  C   UNL     1      35.480 -22.970 -15.416  0.00  0.00    +0.029 C 
ATOM      4  C   UNL     1      35.260 -23.991 -13.193  0.00  0.00    +0.012 C 
ATOM      5  C   UNL     1      36.541 -22.839 -16.508  0.00  0.00    +0.012 C 
ATOM      6  C   UNL     1      37.480 -23.681 -14.479  0.00  0.00    +0.150 C 
ATOM      7  C   UNL     1      34.024 -23.165 -15.735  0.00  0.00    -0.026 C 
ATOM      8  C   UNL     1      37.856 -22.887 -15.716  0.00  0.00    +0.065 C 
ATOM      9  C   UNL     1      33.748 -24.190 -13.409  0.00  0.00    +0.026 C 
ATOM     10  C   UNL     1      33.167 -23.700 -14.737  0.00  0.00    -0.026 C 
ATOM     11  C   UNL     1      35.967 -25.516 -15.098  0.00  0.00    +0.008 C 
ATOM     12  C   UNL     1      33.493 -22.750 -16.957  0.00  0.00    -0.005 C 
ATOM     13  C   UNL     1      31.771 -23.834 -14.999  0.00  0.00    -0.004 C 
ATOM     14  C   UNL     1      31.263 -23.412 -16.253  0.00  0.00    +0.003 C 
ATOM     15  C   UNL     1      32.131 -22.877 -17.213  0.00  0.00    -0.000 C 
ATOM     16  C   UNL     1      30.846 -24.371 -14.071  0.00  0.00    +0.003 C 
ATOM     17  C   UNL     1      29.892 -23.531 -16.538  0.00  0.00    +0.037 C 
ATOM     18  C   UNL     1      29.486 -24.483 -14.369  0.00  0.00    +0.037 C 
ATOM     19  C   UNL     1      29.009 -24.062 -15.601  0.00  0.00    +0.134 C 
ENDROOT
BRANCH  19  20
ATOM     20  O   UNL     1      27.685 -24.169 -15.895  0.00  0.00    -0.506 OA
ATOM     21  H   UNL     1      27.416 -24.470 -16.741  0.00  0.00    +0.292 HD
ENDBRANCH  19  20
TORSDOF 1
ENDMDL
MODEL 3
REMARK VINA RESULT:      -8.8      3.150      7.781
REMARK  Name = 444865
REMARK  1 active torsions:
REMARK  status: ('A' for Active; 'I' for Inactive)
REMARK    1  A    between atoms: C_19  and  O_20
REMARK                            x       y       z     vdW  Elec       q    Type
REMARK                         _______ _______ _______ _____ _____    ______ ____
ROOT
ATOM      1  O   UNL     1      34.181 -17.512 -23.777  0.00  0.00    -0.296 OA
ATOM      2  C   UNL     1      34.435 -18.779 -21.717  0.00  0.00    +0.056 C 
ATOM      3  C   UNL     1      35.650 -19.706 -21.510  0.00  0.00    +0.029 C 
ATOM      4  C   UNL     1      33.224 -19.686 -21.892  0.00  0.00    +0.012 C 
ATOM      5  C   UNL     1      36.852 -18.799 -21.778  0.00  0.00    +0.012 C 
ATOM      6  C   UNL     1      34.915 -18.049 -22.958  0.00  0.00    +0.150 C 
ATOM      7  C   UNL     1      35.523 -20.513 -20.249  0.00  0.00    -0.026 C 
ATOM      8  C   UNL     1      36.430 -18.036 -23.042  0.00  0.00    +0.065 C 
ATOM      9  C   UNL     1      32.997 -20.554 -20.640  0.00  0.00    +0.026 C 
ATOM     10  C   UNL     1      34.241 -20.981 -19.858  0.00  0.00    -0.026 C 
ATOM     11  C   UNL     1      34.209 -17.714 -20.629  0.00  0.00    +0.008 C 
ATOM     12  C   UNL     1      36.651 -20.879 -19.512  0.00  0.00    -0.005 C 
ATOM     13  C   UNL     1      34.108 -21.802 -18.698  0.00  0.00    -0.004 C 
ATOM     14  C   UNL     1      35.271 -22.149 -17.965  0.00  0.00    +0.003 C 
ATOM     15  C   UNL     1      36.523 -21.682 -18.382  0.00  0.00    -0.000 C 
ATOM     16  C   UNL     1      32.870 -22.299 -18.226  0.00  0.00    +0.003 C 
ATOM     17  C   UNL     1      35.171 -22.957 -16.820  0.00  0.00    +0.037 C 
ATOM     18  C   UNL     1      32.786 -23.101 -17.085  0.00  0.00    +0.037 C 
ATOM     19  C   UNL     1      33.936 -23.431 -16.383  0.00  0.00    +0.134 C 
ENDROOT
BRANCH  19  20
ATOM     20  O   UNL     1      33.859 -24.211 -15.272  0.00  0.00    -0.506 OA
ATOM     21  H   UNL     1      33.293 -24.958 -15.262  0.00  0.00    +0.292 HD
ENDBRANCH  19  20
TORSDOF 1
ENDMDL
MODEL 4
REMARK VINA RESULT:      -8.7     12.415     16.560
REMARK  Name = 444865
REMARK  1 active torsions:
REMARK  status: ('A' for Active; 'I' for Inactive)
REMARK    1  A    between atoms: C_19  and  O_20
REMARK                            x       y       z     vdW  Elec       q    Type
REMARK                         _______ _______ _______ _____ _____    ______ ____
ROOT
ATOM      1  O   UNL     1      32.337  -5.175 -24.096  0.00  0.00    -0.296 OA
ATOM      2  C   UNL     1      31.967  -7.417 -23.230  0.00  0.00    +0.056 C 
ATOM      3  C   UNL     1      32.270  -7.749 -21.755  0.00  0.00    +0.029 C 
ATOM      4  C   UNL     1      33.027  -8.128 -24.060  0.00  0.00    +0.012 C 
ATOM      5  C   UNL     1      31.486  -6.695 -20.973  0.00  0.00    +0.012 C 
ATOM      6  C   UNL     1      32.075  -5.905 -23.149  0.00  0.00    +0.150 C 
ATOM      7  C   UNL     1      32.130  -9.219 -21.477  0.00  0.00    -0.026 C 
ATOM      8  C   UNL     1      31.783  -5.403 -21.748  0.00  0.00    +0.065 C 
ATOM      9  C   UNL     1      32.960  -9.653 -23.856  0.00  0.00    +0.026 C 
ATOM     10  C   UNL     1      32.525 -10.149 -22.475  0.00  0.00    -0.026 C 
ATOM     11  C   UNL     1      30.540  -7.740 -23.711  0.00  0.00    +0.008 C 
ATOM     12  C   UNL     1      31.702  -9.679 -20.230  0.00  0.00    -0.005 C 
ATOM     13  C   UNL     1      32.459 -11.549 -22.207  0.00  0.00    -0.004 C 
ATOM     14  C   UNL     1      32.011 -11.985 -20.935  0.00  0.00    +0.003 C 
ATOM     15  C   UNL     1      31.639 -11.044 -19.966  0.00  0.00    -0.000 C 
ATOM     16  C   UNL     1      32.815 -12.546 -23.147  0.00  0.00    +0.003 C 
ATOM     17  C   UNL     1      31.937 -13.357 -20.642  0.00  0.00    +0.037 C 
ATOM     18  C   UNL     1      32.735 -13.907 -22.842  0.00  0.00    +0.037 C 
ATOM     19  C   UNL     1      32.298 -14.312 -21.589  0.00  0.00    +0.134 C 
ENDROOT
BRANCH  19  20
ATOM     20  O   UNL     1      32.219 -15.636 -21.288  0.00  0.00    -0.506 OA
ATOM     21  H   UNL     1      31.382 -16.048 -21.202  0.00  0.00    +0.292 HD
ENDBRANCH  19  20
TORSDOF 1
ENDMDL
MODEL 5
REMARK VINA RESULT:      -8.7      2.594      3.640
REMARK  Name = 444865
REMARK  1 active torsions:
REMARK  status: ('A' for Active; 'I' for Inactive)
REMARK    1  A    between atoms: C_19  and  O_20
REMARK                            x       y       z     vdW  Elec       q    Type
REMARK                         _______ _______ _______ _____ _____    ______ ____
ROOT
ATOM      1  O   UNL     1      38.738 -25.038 -12.765  0.00  0.00    -0.296 OA
ATOM      2  C   UNL     1      36.583 -24.797 -13.866  0.00  0.00    +0.056 C 
ATOM      3  C   UNL     1      36.313 -23.609 -14.812  0.00  0.00    +0.029 C 
ATOM      4  C   UNL     1      35.748 -24.553 -12.616  0.00  0.00    +0.012 C 
ATOM      5  C   UNL     1      37.466 -23.669 -15.814  0.00  0.00    +0.012 C 
ATOM      6  C   UNL     1      38.084 -24.631 -13.716  0.00  0.00    +0.150 C 
ATOM      7  C   UNL     1      34.876 -23.563 -15.249  0.00  0.00    -0.026 C 
ATOM      8  C   UNL     1      38.686 -23.925 -14.917  0.00  0.00    +0.065 C 
ATOM      9  C   UNL     1      34.246 -24.501 -12.955  0.00  0.00    +0.026 C 
ATOM     10  C   UNL     1      33.864 -23.936 -14.325  0.00  0.00    -0.026 C 
ATOM     11  C   UNL     1      36.343 -26.197 -14.460  0.00  0.00    +0.008 C 
ATOM     12  C   UNL     1      34.521 -23.080 -16.509  0.00  0.00    -0.005 C 
ATOM     13  C   UNL     1      32.491 -23.840 -14.699  0.00  0.00    -0.004 C 
ATOM     14  C   UNL     1      32.163 -23.354 -15.990  0.00  0.00    +0.003 C 
ATOM     15  C   UNL     1      33.182 -22.983 -16.875  0.00  0.00    -0.000 C 
ATOM     16  C   UNL     1      31.418 -24.204 -13.851  0.00  0.00    +0.003 C 
ATOM     17  C   UNL     1      30.819 -23.247 -16.386  0.00  0.00    +0.037 C 
ATOM     18  C   UNL     1      30.086 -24.093 -14.258  0.00  0.00    +0.037 C 
ATOM     19  C   UNL     1      29.787 -23.613 -15.525  0.00  0.00    +0.134 C 
ENDROOT
BRANCH  19  20
ATOM     20  O   UNL     1      28.492 -23.502 -15.926  0.00  0.00    -0.506 OA
ATOM     21  H   UNL     1      28.292 -23.330 -16.825  0.00  0.00    +0.292 HD
ENDBRANCH  19  20
TORSDOF 1
ENDMDL
MODEL 6
REMARK VINA RESULT:      -8.6     17.459     21.558
REMARK  Name = 444865
REMARK  1 active torsions:
REMARK  status: ('A' for Active; 'I' for Inactive)
REMARK    1  A    between atoms: C_19  and  O_20
REMARK                            x       y       z     vdW  Elec       q    Type
REMARK                         _______ _______ _______ _____ _____    ______ ____
ROOT
ATOM      1  O   UNL     1      31.374  -1.797 -28.360  0.00  0.00    -0.296 OA
ATOM      2  C   UNL     1      32.152  -3.200 -26.532  0.00  0.00    +0.056 C 
ATOM      3  C   UNL     1      32.735  -4.600 -26.812  0.00  0.00    +0.029 C 
ATOM      4  C   UNL     1      30.803  -3.420 -25.863  0.00  0.00    +0.012 C 
ATOM      5  C   UNL     1      33.833  -4.341 -27.844  0.00  0.00    +0.012 C 
ATOM      6  C   UNL     1      32.120  -2.679 -27.958  0.00  0.00    +0.150 C 
ATOM      7  C   UNL     1      32.998  -5.356 -25.540  0.00  0.00    -0.026 C 
ATOM      8  C   UNL     1      33.159  -3.368 -28.823  0.00  0.00    +0.065 C 
ATOM      9  C   UNL     1      30.962  -4.181 -24.533  0.00  0.00    +0.026 C 
ATOM     10  C   UNL     1      32.099  -5.202 -24.451  0.00  0.00    -0.026 C 
ATOM     11  C   UNL     1      33.052  -2.247 -25.726  0.00  0.00    +0.008 C 
ATOM     12  C   UNL     1      34.053  -6.265 -25.446  0.00  0.00    -0.005 C 
ATOM     13  C   UNL     1      32.295  -5.958 -23.257  0.00  0.00    -0.004 C 
ATOM     14  C   UNL     1      33.381  -6.867 -23.189  0.00  0.00    +0.003 C 
ATOM     15  C   UNL     1      34.244  -7.006 -24.283  0.00  0.00    -0.000 C 
ATOM     16  C   UNL     1      31.461  -5.857 -22.118  0.00  0.00    +0.003 C 
ATOM     17  C   UNL     1      33.598  -7.625 -22.027  0.00  0.00    +0.037 C 
ATOM     18  C   UNL     1      31.689  -6.618 -20.968  0.00  0.00    +0.037 C 
ATOM     19  C   UNL     1      32.756  -7.503 -20.924  0.00  0.00    +0.134 C 
ENDROOT
BRANCH  19  20
ATOM     20  O   UNL     1      32.982  -8.246 -19.807  0.00  0.00    -0.506 OA
ATOM     21  H   UNL     1      33.734  -8.802 -19.757  0.00  0.00    +0.292 HD
ENDBRANCH  19  20
TORSDOF 1
ENDMDL
MODEL 7
REMARK VINA RESULT:      -8.6      2.989      6.300
REMARK  Name = 444865
REMARK  1 active torsions:
REMARK  status: ('A' for Active; 'I' for Inactive)
REMARK    1  A    between atoms: C_19  and  O_20
REMARK                            x       y       z     vdW  Elec       q    Type
REMARK                         _______ _______ _______ _____ _____    ______ ____
ROOT
ATOM      1  O   UNL     1      28.572 -24.057 -14.875  0.00  0.00    -0.296 OA
ATOM      2  C   UNL     1      30.969 -23.716 -14.640  0.00  0.00    +0.056 C 
ATOM      3  C   UNL     1      31.890 -23.734 -15.877  0.00  0.00    +0.029 C 
ATOM      4  C   UNL     1      31.273 -24.984 -13.855  0.00  0.00    +0.012 C 
ATOM      5  C   UNL     1      31.254 -22.713 -16.821  0.00  0.00    +0.012 C 
ATOM      6  C   UNL     1      29.630 -23.670 -15.354  0.00  0.00    +0.150 C 
ATOM      7  C   UNL     1      33.340 -23.670 -15.490  0.00  0.00    -0.026 C 
ATOM      8  C   UNL     1      29.758 -23.048 -16.732  0.00  0.00    +0.065 C 
ATOM      9  C   UNL     1      32.744 -25.012 -13.397  0.00  0.00    +0.026 C 
ATOM     10  C   UNL     1      33.769 -24.345 -14.317  0.00  0.00    -0.026 C 
ATOM     11  C   UNL     1      31.051 -22.455 -13.759  0.00  0.00    +0.008 C 
ATOM     12  C   UNL     1      34.277 -23.035 -16.307  0.00  0.00    -0.005 C 
ATOM     13  C   UNL     1      35.152 -24.350 -13.966  0.00  0.00    -0.004 C 
ATOM     14  C   UNL     1      36.078 -23.688 -14.811  0.00  0.00    +0.003 C 
ATOM     15  C   UNL     1      35.627 -23.040 -15.968  0.00  0.00    -0.000 C 
ATOM     16  C   UNL     1      35.667 -24.982 -12.808  0.00  0.00    +0.003 C 
ATOM     17  C   UNL     1      37.446 -23.677 -14.492  0.00  0.00    +0.037 C 
ATOM     18  C   UNL     1      37.030 -24.962 -12.503  0.00  0.00    +0.037 C 
ATOM     19  C   UNL     1      37.919 -24.311 -13.346  0.00  0.00    +0.134 C 
ENDROOT
BRANCH  19  20
ATOM     20  O   UNL     1      39.247 -24.289 -13.053  0.00  0.00    -0.506 OA
ATOM     21  H   UNL     1      39.689 -25.082 -12.820  0.00  0.00    +0.292 HD
ENDBRANCH  19  20
TORSDOF 1
ENDMDL
MODEL 8
REMARK VINA RESULT:      -8.5     10.222     13.765
REMARK  Name = 444865
REMARK  1 active torsions:
REMARK  status: ('A' for Active; 'I' for Inactive)
REMARK    1  A    between atoms: C_19  and  O_20
REMARK                            x       y       z     vdW  Elec       q    Type
REMARK                         _______ _______ _______ _____ _____    ______ ____
ROOT
ATOM      1  O   UNL     1      34.106 -17.033 -22.645  0.00  0.00    -0.296 OA
ATOM      2  C   UNL     1      33.684 -14.673 -22.236  0.00  0.00    +0.056 C 
ATOM      3  C   UNL     1      32.336 -14.206 -21.650  0.00  0.00    +0.029 C 
ATOM      4  C   UNL     1      33.706 -14.213 -23.688  0.00  0.00    +0.012 C 
ATOM      5  C   UNL     1      32.179 -15.046 -20.382  0.00  0.00    +0.012 C 
ATOM      6  C   UNL     1      33.529 -16.165 -22.004  0.00  0.00    +0.150 C 
ATOM      7  C   UNL     1      32.226 -12.708 -21.635  0.00  0.00    -0.026 C 
ATOM      8  C   UNL     1      32.589 -16.451 -20.847  0.00  0.00    +0.065 C 
ATOM      9  C   UNL     1      33.611 -12.679 -23.784  0.00  0.00    +0.026 C 
ATOM     10  C   UNL     1      32.791 -11.967 -22.706  0.00  0.00    -0.026 C 
ATOM     11  C   UNL     1      34.941 -14.227 -21.467  0.00  0.00    +0.008 C 
ATOM     12  C   UNL     1      31.508 -12.048 -20.637  0.00  0.00    -0.005 C 
ATOM     13  C   UNL     1      32.643 -10.548 -22.744  0.00  0.00    -0.004 C 
ATOM     14  C   UNL     1      31.915  -9.906 -21.710  0.00  0.00    +0.003 C 
ATOM     15  C   UNL     1      31.360 -10.664 -20.673  0.00  0.00    -0.000 C 
ATOM     16  C   UNL     1      33.185  -9.728 -23.762  0.00  0.00    +0.003 C 
ATOM     17  C   UNL     1      31.752  -8.511 -21.721  0.00  0.00    +0.037 C 
ATOM     18  C   UNL     1      33.015  -8.341 -23.759  0.00  0.00    +0.037 C 
ATOM     19  C   UNL     1      32.297  -7.733 -22.740  0.00  0.00    +0.134 C 
ENDROOT
BRANCH  19  20
ATOM     20  O   UNL     1      32.129  -6.383 -22.734  0.00  0.00    -0.506 OA
ATOM     21  H   UNL     1      32.858  -5.819 -22.901  0.00  0.00    +0.292 HD
ENDBRANCH  19  20
TORSDOF 1
ENDMDL
MODEL 9
REMARK VINA RESULT:      -8.3      8.115     11.057
REMARK  Name = 444865
REMARK  1 active torsions:
REMARK  status: ('A' for Active; 'I' for Inactive)
REMARK    1  A    between atoms: C_19  and  O_20
REMARK                            x       y       z     vdW  Elec       q    Type
REMARK                         _______ _______ _______ _____ _____    ______ ____
ROOT
ATOM      1  O   UNL     1      36.145 -19.325 -20.794  0.00  0.00    -0.296 OA
ATOM      2  C   UNL     1      34.718 -17.469 -21.453  0.00  0.00    +0.056 C 
ATOM      3  C   UNL     1      35.048 -16.631 -22.705  0.00  0.00    +0.029 C 
ATOM      4  C   UNL     1      34.989 -16.574 -20.251  0.00  0.00    +0.012 C 
ATOM      5  C   UNL     1      35.185 -17.672 -23.816  0.00  0.00    +0.012 C 
ATOM      6  C   UNL     1      35.695 -18.609 -21.679  0.00  0.00    +0.150 C 
ATOM      7  C   UNL     1      34.139 -15.442 -22.833  0.00  0.00    -0.026 C 
ATOM      8  C   UNL     1      36.021 -18.776 -23.151  0.00  0.00    +0.065 C 
ATOM      9  C   UNL     1      34.092 -15.323 -20.279  0.00  0.00    +0.026 C 
ATOM     10  C   UNL     1      33.723 -14.765 -21.655  0.00  0.00    -0.026 C 
ATOM     11  C   UNL     1      33.309 -18.087 -21.411  0.00  0.00    +0.008 C 
ATOM     12  C   UNL     1      33.771 -14.946 -24.085  0.00  0.00    -0.005 C 
ATOM     13  C   UNL     1      32.911 -13.596 -21.758  0.00  0.00    -0.004 C 
ATOM     14  C   UNL     1      32.547 -13.123 -23.044  0.00  0.00    +0.003 C 
ATOM     15  C   UNL     1      32.981 -13.805 -24.187  0.00  0.00    -0.000 C 
ATOM     16  C   UNL     1      32.438 -12.868 -20.640  0.00  0.00    +0.003 C 
ATOM     17  C   UNL     1      31.750 -11.974 -23.175  0.00  0.00    +0.037 C 
ATOM     18  C   UNL     1      31.645 -11.727 -20.786  0.00  0.00    +0.037 C 
ATOM     19  C   UNL     1      31.302 -11.279 -22.054  0.00  0.00    +0.134 C 
ENDROOT
BRANCH  19  20
ATOM     20  O   UNL     1      30.531 -10.169 -22.201  0.00  0.00    -0.506 OA
ATOM     21  H   UNL     1      29.621 -10.197 -21.977  0.00  0.00    +0.292 HD
ENDBRANCH  19  20
TORSDOF 1
ENDMDL
