MODEL 1
REMARK VINA RESULT:      -6.5      0.000      0.000
REMARK  Name = 71668376
REMARK  5 active torsions:
REMARK  status: ('A' for Active; 'I' for Inactive)
REMARK    1  A    between atoms: C_1  and  CA_11
REMARK    2  A    between atoms: C_4  and  O_7
REMARK    3  A    between atoms: C_5  and  O_9
REMARK    4  A    between atoms: CA_11  and  N_12
REMARK    5  A    between atoms: CA_11  and  C_18
REMARK                            x       y       z     vdW  Elec       q    Type
REMARK                         _______ _______ _______ _____ _____    ______ ____
ROOT
ATOM      1  C   UNL     1      37.180 -24.630 -13.221  0.00  0.00    -0.026 C 
ATOM      2  C   UNL     1      36.445 -25.326 -14.182  0.00  0.00    +0.031 C 
ATOM      3  C   UNL     1      38.549 -24.858 -13.089  0.00  0.00    +0.031 C 
ATOM      4  C   UNL     1      39.185 -25.782 -13.919  0.00  0.00    +0.136 C 
ATOM      5  C   UNL     1      37.082 -26.249 -15.012  0.00  0.00    +0.136 C 
ATOM      6  C   UNL     1      38.452 -26.477 -14.880  0.00  0.00    +0.073 C 
ENDROOT
BRANCH   4   7
ATOM      7  O   UNL     1      40.522 -26.005 -13.791  0.00  0.00    -0.505 OA
ATOM      8  H   UNL     1      40.924 -26.716 -14.250  0.00  0.00    +0.292 HD
ENDBRANCH   4   7
BRANCH   5   9
ATOM      9  O   UNL     1      36.366 -26.928 -15.950  0.00  0.00    -0.505 OA
ATOM     10  H   UNL     1      35.482 -27.180 -15.772  0.00  0.00    +0.292 HD
ENDBRANCH   5   9
BRANCH   1  11
ATOM     11  CA  UNL     1      36.500 -23.642 -12.334  0.00  0.00    +0.064 C 
BRANCH  11  12
ATOM     12  N   UNL     1      37.405 -23.039 -11.292  0.00  0.00    +0.391 N 
ATOM     13  H1  UNL     1      37.061 -23.280 -10.363  0.00  0.00    -0.088 HD
ATOM     14  H2  UNL     1      37.416 -22.024 -11.398  0.00  0.00    -0.088 HD
ATOM     15  H3  UNL     1      38.350 -23.404 -11.410  0.00  0.00    -0.088 HD
ENDBRANCH  11  12
BRANCH  11  18
ATOM     16  O   UNL     1      35.437 -25.096 -10.774  0.00  0.00    -0.248 OA
ATOM     17  OXT UNL     1      34.151 -23.919 -12.249  0.00  0.00    -0.248 OA
ATOM     18  C   UNL     1      35.241 -24.287 -11.723  0.00  0.00    +0.349 C 
ENDBRANCH  11  18
ENDBRANCH   1  11
TORSDOF 5
ENDMDL
MODEL 2
REMARK VINA RESULT:      -6.5      9.761     10.585
REMARK  Name = 71668376
REMARK  5 active torsions:
REMARK  status: ('A' for Active; 'I' for Inactive)
REMARK    1  A    between atoms: C_1  and  CA_11
REMARK    2  A    between atoms: C_4  and  O_7
REMARK    3  A    between atoms: C_5  and  O_9
REMARK    4  A    between atoms: CA_11  and  N_12
REMARK    5  A    between atoms: CA_11  and  C_18
REMARK                            x       y       z     vdW  Elec       q    Type
REMARK                         _______ _______ _______ _____ _____    ______ ____
ROOT
ATOM      1  C   UNL     1      34.635 -18.961 -21.257  0.00  0.00    -0.026 C 
ATOM      2  C   UNL     1      35.867 -19.551 -20.975  0.00  0.00    +0.031 C 
ATOM      3  C   UNL     1      33.461 -19.526 -20.760  0.00  0.00    +0.031 C 
ATOM      4  C   UNL     1      33.519 -20.681 -19.980  0.00  0.00    +0.136 C 
ATOM      5  C   UNL     1      35.925 -20.705 -20.194  0.00  0.00    +0.136 C 
ATOM      6  C   UNL     1      34.751 -21.270 -19.697  0.00  0.00    +0.073 C 
ENDROOT
BRANCH   4   7
ATOM      7  O   UNL     1      32.373 -21.233 -19.495  0.00  0.00    -0.505 OA
ATOM      8  H   UNL     1      32.348 -21.569 -18.620  0.00  0.00    +0.292 HD
ENDBRANCH   4   7
BRANCH   5   9
ATOM      9  O   UNL     1      37.127 -21.281 -19.918  0.00  0.00    -0.505 OA
ATOM     10  H   UNL     1      37.771 -20.808 -19.430  0.00  0.00    +0.292 HD
ENDBRANCH   5   9
BRANCH   1  11
ATOM     11  CA  UNL     1      34.572 -17.726 -22.091  0.00  0.00    +0.064 C 
BRANCH  11  12
ATOM     12  N   UNL     1      35.784 -17.520 -22.963  0.00  0.00    +0.391 N 
ATOM     13  H1  UNL     1      35.485 -17.276 -23.906  0.00  0.00    -0.088 HD
ATOM     14  H2  UNL     1      36.333 -18.379 -22.990  0.00  0.00    -0.088 HD
ATOM     15  H3  UNL     1      36.353 -16.765 -22.580  0.00  0.00    -0.088 HD
ENDBRANCH  11  12
BRANCH  11  18
ATOM     16  O   UNL     1      35.095 -16.318 -20.242  0.00  0.00    -0.248 OA
ATOM     17  OXT UNL     1      33.252 -15.850 -21.508  0.00  0.00    -0.248 OA
ATOM     18  C   UNL     1      34.281 -16.514 -21.187  0.00  0.00    +0.349 C 
ENDBRANCH  11  18
ENDBRANCH   1  11
TORSDOF 5
ENDMDL
MODEL 3
REMARK VINA RESULT:      -6.5      9.626     10.245
REMARK  Name = 71668376
REMARK  5 active torsions:
REMARK  status: ('A' for Active; 'I' for Inactive)
REMARK    1  A    between atoms: C_1  and  CA_11
REMARK    2  A    between atoms: C_4  and  O_7
REMARK    3  A    between atoms: C_5  and  O_9
REMARK    4  A    between atoms: CA_11  and  N_12
REMARK    5  A    between atoms: CA_11  and  C_18
REMARK                            x       y       z     vdW  Elec       q    Type
REMARK                         _______ _______ _______ _____ _____    ______ ____
ROOT
ATOM      1  C   UNL     1      34.727 -19.158 -21.236  0.00  0.00    -0.026 C 
ATOM      2  C   UNL     1      33.545 -19.701 -20.735  0.00  0.00    +0.031 C 
ATOM      3  C   UNL     1      35.953 -19.744 -20.922  0.00  0.00    +0.031 C 
ATOM      4  C   UNL     1      35.996 -20.875 -20.106  0.00  0.00    +0.136 C 
ATOM      5  C   UNL     1      33.588 -20.832 -19.919  0.00  0.00    +0.136 C 
ATOM      6  C   UNL     1      34.814 -21.419 -19.605  0.00  0.00    +0.073 C 
ENDROOT
BRANCH   4   7
ATOM      7  O   UNL     1      37.192 -21.448 -19.799  0.00  0.00    -0.505 OA
ATOM      8  H   UNL     1      37.965 -21.198 -20.266  0.00  0.00    +0.292 HD
ENDBRANCH   4   7
BRANCH   5   9
ATOM      9  O   UNL     1      32.434 -21.363 -19.429  0.00  0.00    -0.505 OA
ATOM     10  H   UNL     1      31.861 -20.836 -18.909  0.00  0.00    +0.292 HD
ENDBRANCH   5   9
BRANCH   1  11
ATOM     11  CA  UNL     1      34.682 -17.949 -22.109  0.00  0.00    +0.064 C 
BRANCH  11  12
ATOM     12  N   UNL     1      35.906 -17.774 -22.969  0.00  0.00    +0.391 N 
ATOM     13  H1  UNL     1      36.713 -18.179 -22.496  0.00  0.00    -0.088 HD
ATOM     14  H2  UNL     1      36.070 -16.780 -23.130  0.00  0.00    -0.088 HD
ATOM     15  H3  UNL     1      35.763 -18.244 -23.863  0.00  0.00    -0.088 HD
ENDBRANCH  11  12
BRANCH  11  18
ATOM     16  O   UNL     1      35.181 -16.489 -20.294  0.00  0.00    -0.248 OA
ATOM     17  OXT UNL     1      33.364 -16.049 -21.604  0.00  0.00    -0.248 OA
ATOM     18  C   UNL     1      34.382 -16.708 -21.246  0.00  0.00    +0.349 C 
ENDBRANCH  11  18
ENDBRANCH   1  11
TORSDOF 5
ENDMDL
MODEL 4
REMARK VINA RESULT:      -6.5      0.087      2.304
REMARK  Name = 71668376
REMARK  5 active torsions:
REMARK  status: ('A' for Active; 'I' for Inactive)
REMARK    1  A    between atoms: C_1  and  CA_11
REMARK    2  A    between atoms: C_4  and  O_7
REMARK    3  A    between atoms: C_5  and  O_9
REMARK    4  A    between atoms: CA_11  and  N_12
REMARK    5  A    between atoms: CA_11  and  C_18
REMARK                            x       y       z     vdW  Elec       q    Type
REMARK                         _______ _______ _______ _____ _____    ______ ____
ROOT
ATOM      1  C   UNL     1      37.253 -24.633 -13.237  0.00  0.00    -0.026 C 
ATOM      2  C   UNL     1      38.624 -24.865 -13.132  0.00  0.00    +0.031 C 
ATOM      3  C   UNL     1      36.500 -25.320 -14.190  0.00  0.00    +0.031 C 
ATOM      4  C   UNL     1      37.119 -26.240 -15.036  0.00  0.00    +0.136 C 
ATOM      5  C   UNL     1      39.242 -25.785 -13.978  0.00  0.00    +0.136 C 
ATOM      6  C   UNL     1      38.489 -26.473 -14.930  0.00  0.00    +0.073 C 
ENDROOT
BRANCH   4   7
ATOM      7  O   UNL     1      36.385 -26.911 -15.965  0.00  0.00    -0.505 OA
ATOM      8  H   UNL     1      35.475 -26.715 -16.075  0.00  0.00    +0.292 HD
ENDBRANCH   4   7
BRANCH   5   9
ATOM      9  O   UNL     1      40.581 -26.013 -13.876  0.00  0.00    -0.505 OA
ATOM     10  H   UNL     1      41.002 -26.603 -14.468  0.00  0.00    +0.292 HD
ENDBRANCH   5   9
BRANCH   1  11
ATOM     11  CA  UNL     1      36.591 -23.649 -12.333  0.00  0.00    +0.064 C 
BRANCH  11  12
ATOM     12  N   UNL     1      37.493 -23.116 -11.251  0.00  0.00    +0.391 N 
ATOM     13  H1  UNL     1      37.186 -22.182 -10.982  0.00  0.00    -0.088 HD
ATOM     14  H2  UNL     1      38.451 -23.073 -11.598  0.00  0.00    -0.088 HD
ATOM     15  H3  UNL     1      37.453 -23.734 -10.440  0.00  0.00    -0.088 HD
ENDBRANCH  11  12
BRANCH  11  18
ATOM     16  O   UNL     1      35.428 -25.035 -10.783  0.00  0.00    -0.248 OA
ATOM     17  OXT UNL     1      34.239 -23.911 -12.376  0.00  0.00    -0.248 OA
ATOM     18  C   UNL     1      35.294 -24.263 -11.773  0.00  0.00    +0.349 C 
ENDBRANCH  11  18
ENDBRANCH   1  11
TORSDOF 5
ENDMDL
MODEL 5
REMARK VINA RESULT:      -6.4     13.782     14.476
REMARK  Name = 71668376
REMARK  5 active torsions:
REMARK  status: ('A' for Active; 'I' for Inactive)
REMARK    1  A    between atoms: C_1  and  CA_11
REMARK    2  A    between atoms: C_4  and  O_7
REMARK    3  A    between atoms: C_5  and  O_9
REMARK    4  A    between atoms: CA_11  and  N_12
REMARK    5  A    between atoms: CA_11  and  C_18
REMARK                            x       y       z     vdW  Elec       q    Type
REMARK                         _______ _______ _______ _____ _____    ______ ____
ROOT
ATOM      1  C   UNL     1      34.693 -15.859 -23.409  0.00  0.00    -0.026 C 
ATOM      2  C   UNL     1      34.283 -16.266 -24.678  0.00  0.00    +0.031 C 
ATOM      3  C   UNL     1      34.348 -14.593 -22.936  0.00  0.00    +0.031 C 
ATOM      4  C   UNL     1      33.590 -13.735 -23.733  0.00  0.00    +0.136 C 
ATOM      5  C   UNL     1      33.525 -15.407 -25.474  0.00  0.00    +0.136 C 
ATOM      6  C   UNL     1      33.179 -14.141 -25.001  0.00  0.00    +0.073 C 
ENDROOT
BRANCH   4   7
ATOM      7  O   UNL     1      33.252 -12.499 -23.272  0.00  0.00    -0.505 OA
ATOM      8  H   UNL     1      33.041 -12.378 -22.367  0.00  0.00    +0.292 HD
ENDBRANCH   4   7
BRANCH   5   9
ATOM      9  O   UNL     1      33.124 -15.804 -26.713  0.00  0.00    -0.505 OA
ATOM     10  H   UNL     1      32.237 -16.071 -26.855  0.00  0.00    +0.292 HD
ENDBRANCH   5   9
BRANCH   1  11
ATOM     11  CA  UNL     1      35.503 -16.777 -22.556  0.00  0.00    +0.064 C 
BRANCH  11  12
ATOM     12  N   UNL     1      35.909 -18.051 -23.251  0.00  0.00    +0.391 N 
ATOM     13  H1  UNL     1      35.165 -18.741 -23.154  0.00  0.00    -0.088 HD
ATOM     14  H2  UNL     1      36.764 -18.411 -22.828  0.00  0.00    -0.088 HD
ATOM     15  H3  UNL     1      36.071 -17.861 -24.240  0.00  0.00    -0.088 HD
ENDBRANCH  11  12
BRANCH  11  18
ATOM     16  O   UNL     1      35.166 -16.385 -20.231  0.00  0.00    -0.248 OA
ATOM     17  OXT UNL     1      33.814 -17.874 -21.314  0.00  0.00    -0.248 OA
ATOM     18  C   UNL     1      34.758 -17.035 -21.234  0.00  0.00    +0.349 C 
ENDBRANCH  11  18
ENDBRANCH   1  11
TORSDOF 5
ENDMDL
MODEL 6
REMARK VINA RESULT:      -6.4     13.770     14.554
REMARK  Name = 71668376
REMARK  5 active torsions:
REMARK  status: ('A' for Active; 'I' for Inactive)
REMARK    1  A    between atoms: C_1  and  CA_11
REMARK    2  A    between atoms: C_4  and  O_7
REMARK    3  A    between atoms: C_5  and  O_9
REMARK    4  A    between atoms: CA_11  and  N_12
REMARK    5  A    between atoms: CA_11  and  C_18
REMARK                            x       y       z     vdW  Elec       q    Type
REMARK                         _______ _______ _______ _____ _____    ______ ____
ROOT
ATOM      1  C   UNL     1      34.694 -15.873 -23.407  0.00  0.00    -0.026 C 
ATOM      2  C   UNL     1      34.352 -14.605 -22.935  0.00  0.00    +0.031 C 
ATOM      3  C   UNL     1      34.276 -16.282 -24.673  0.00  0.00    +0.031 C 
ATOM      4  C   UNL     1      33.517 -15.423 -25.468  0.00  0.00    +0.136 C 
ATOM      5  C   UNL     1      33.594 -13.747 -23.731  0.00  0.00    +0.136 C 
ATOM      6  C   UNL     1      33.176 -14.156 -24.997  0.00  0.00    +0.073 C 
ENDROOT
BRANCH   4   7
ATOM      7  O   UNL     1      33.108 -15.822 -26.704  0.00  0.00    -0.505 OA
ATOM      8  H   UNL     1      33.586 -16.484 -27.164  0.00  0.00    +0.292 HD
ENDBRANCH   4   7
BRANCH   5   9
ATOM      9  O   UNL     1      33.261 -12.509 -23.271  0.00  0.00    -0.505 OA
ATOM     10  H   UNL     1      32.371 -12.218 -23.312  0.00  0.00    +0.292 HD
ENDBRANCH   5   9
BRANCH   1  11
ATOM     11  CA  UNL     1      35.505 -16.792 -22.557  0.00  0.00    +0.064 C 
BRANCH  11  12
ATOM     12  N   UNL     1      35.914 -18.062 -23.255  0.00  0.00    +0.391 N 
ATOM     13  H1  UNL     1      35.855 -17.928 -24.265  0.00  0.00    -0.088 HD
ATOM     14  H2  UNL     1      35.292 -18.820 -22.975  0.00  0.00    -0.088 HD
ATOM     15  H3  UNL     1      36.873 -18.297 -22.999  0.00  0.00    -0.088 HD
ENDBRANCH  11  12
BRANCH  11  18
ATOM     16  O   UNL     1      35.168 -16.411 -20.230  0.00  0.00    -0.248 OA
ATOM     17  OXT UNL     1      33.814 -17.893 -21.321  0.00  0.00    -0.248 OA
ATOM     18  C   UNL     1      34.760 -17.056 -21.236  0.00  0.00    +0.349 C 
ENDBRANCH  11  18
ENDBRANCH   1  11
TORSDOF 5
ENDMDL
MODEL 7
REMARK VINA RESULT:      -6.3     11.571     12.391
REMARK  Name = 71668376
REMARK  5 active torsions:
REMARK  status: ('A' for Active; 'I' for Inactive)
REMARK    1  A    between atoms: C_1  and  CA_11
REMARK    2  A    between atoms: C_4  and  O_7
REMARK    3  A    between atoms: C_5  and  O_9
REMARK    4  A    between atoms: CA_11  and  N_12
REMARK    5  A    between atoms: CA_11  and  C_18
REMARK                            x       y       z     vdW  Elec       q    Type
REMARK                         _______ _______ _______ _____ _____    ______ ____
ROOT
ATOM      1  C   UNL     1      34.748 -18.172 -22.410  0.00  0.00    -0.026 C 
ATOM      2  C   UNL     1      34.826 -18.095 -23.800  0.00  0.00    +0.031 C 
ATOM      3  C   UNL     1      34.639 -17.007 -21.651  0.00  0.00    +0.031 C 
ATOM      4  C   UNL     1      34.605 -15.764 -22.285  0.00  0.00    +0.136 C 
ATOM      5  C   UNL     1      34.791 -16.852 -24.432  0.00  0.00    +0.136 C 
ATOM      6  C   UNL     1      34.681 -15.687 -23.674  0.00  0.00    +0.073 C 
ENDROOT
BRANCH   4   7
ATOM      7  O   UNL     1      34.498 -14.626 -21.545  0.00  0.00    -0.505 OA
ATOM      8  H   UNL     1      34.365 -13.801 -21.970  0.00  0.00    +0.292 HD
ENDBRANCH   4   7
BRANCH   5   9
ATOM      9  O   UNL     1      34.866 -16.777 -25.790  0.00  0.00    -0.505 OA
ATOM     10  H   UNL     1      34.764 -15.951 -26.219  0.00  0.00    +0.292 HD
ENDBRANCH   5   9
BRANCH   1  11
ATOM     11  CA  UNL     1      34.784 -19.500 -21.733  0.00  0.00    +0.064 C 
BRANCH  11  12
ATOM     12  N   UNL     1      33.516 -19.841 -20.994  0.00  0.00    +0.391 N 
ATOM     13  H1  UNL     1      33.400 -20.853 -20.968  0.00  0.00    -0.088 HD
ATOM     14  H2  UNL     1      32.721 -19.419 -21.473  0.00  0.00    -0.088 HD
ATOM     15  H3  UNL     1      33.570 -19.479 -20.042  0.00  0.00    -0.088 HD
ENDBRANCH  11  12
BRANCH  11  18
ATOM     16  O   UNL     1      37.056 -18.971 -21.250  0.00  0.00    -0.248 OA
ATOM     17  OXT UNL     1      35.877 -20.253 -19.772  0.00  0.00    -0.248 OA
ATOM     18  C   UNL     1      36.032 -19.581 -20.834  0.00  0.00    +0.349 C 
ENDBRANCH  11  18
ENDBRANCH   1  11
TORSDOF 5
ENDMDL
MODEL 8
REMARK VINA RESULT:      -6.3     11.566     12.476
REMARK  Name = 71668376
REMARK  5 active torsions:
REMARK  status: ('A' for Active; 'I' for Inactive)
REMARK    1  A    between atoms: C_1  and  CA_11
REMARK    2  A    between atoms: C_4  and  O_7
REMARK    3  A    between atoms: C_5  and  O_9
REMARK    4  A    between atoms: CA_11  and  N_12
REMARK    5  A    between atoms: CA_11  and  C_18
REMARK                            x       y       z     vdW  Elec       q    Type
REMARK                         _______ _______ _______ _____ _____    ______ ____
ROOT
ATOM      1  C   UNL     1      34.758 -18.179 -22.409  0.00  0.00    -0.026 C 
ATOM      2  C   UNL     1      34.645 -17.014 -21.650  0.00  0.00    +0.031 C 
ATOM      3  C   UNL     1      34.830 -18.103 -23.799  0.00  0.00    +0.031 C 
ATOM      4  C   UNL     1      34.792 -16.860 -24.432  0.00  0.00    +0.136 C 
ATOM      5  C   UNL     1      34.606 -15.771 -22.284  0.00  0.00    +0.136 C 
ATOM      6  C   UNL     1      34.680 -15.695 -23.674  0.00  0.00    +0.073 C 
ENDROOT
BRANCH   4   7
ATOM      7  O   UNL     1      34.862 -16.784 -25.789  0.00  0.00    -0.505 OA
ATOM      8  H   UNL     1      35.605 -17.137 -26.240  0.00  0.00    +0.292 HD
ENDBRANCH   4   7
BRANCH   5   9
ATOM      9  O   UNL     1      34.497 -14.634 -21.544  0.00  0.00    -0.505 OA
ATOM     10  H   UNL     1      34.498 -14.682 -20.609  0.00  0.00    +0.292 HD
ENDBRANCH   5   9
BRANCH   1  11
ATOM     11  CA  UNL     1      34.799 -19.508 -21.733  0.00  0.00    +0.064 C 
BRANCH  11  12
ATOM     12  N   UNL     1      33.532 -19.855 -20.997  0.00  0.00    +0.391 N 
ATOM     13  H1  UNL     1      33.689 -19.772 -19.993  0.00  0.00    -0.088 HD
ATOM     14  H2  UNL     1      33.260 -20.812 -21.221  0.00  0.00    -0.088 HD
ATOM     15  H3  UNL     1      32.789 -19.215 -21.279  0.00  0.00    -0.088 HD
ENDBRANCH  11  12
BRANCH  11  18
ATOM     16  O   UNL     1      37.071 -18.977 -21.252  0.00  0.00    -0.248 OA
ATOM     17  OXT UNL     1      35.889 -20.246 -19.765  0.00  0.00    -0.248 OA
ATOM     18  C   UNL     1      36.046 -19.583 -20.832  0.00  0.00    +0.349 C 
ENDBRANCH  11  18
ENDBRANCH   1  11
TORSDOF 5
ENDMDL
MODEL 9
REMARK VINA RESULT:      -6.3     13.527     14.206
REMARK  Name = 71668376
REMARK  5 active torsions:
REMARK  status: ('A' for Active; 'I' for Inactive)
REMARK    1  A    between atoms: C_1  and  CA_11
REMARK    2  A    between atoms: C_4  and  O_7
REMARK    3  A    between atoms: C_5  and  O_9
REMARK    4  A    between atoms: CA_11  and  N_12
REMARK    5  A    between atoms: CA_11  and  C_18
REMARK                            x       y       z     vdW  Elec       q    Type
REMARK                         _______ _______ _______ _____ _____    ______ ____
ROOT
ATOM      1  C   UNL     1      34.205 -15.467 -23.000  0.00  0.00    -0.026 C 
ATOM      2  C   UNL     1      34.870 -16.678 -22.805  0.00  0.00    +0.031 C 
ATOM      3  C   UNL     1      33.728 -15.129 -24.266  0.00  0.00    +0.031 C 
ATOM      4  C   UNL     1      33.914 -16.003 -25.338  0.00  0.00    +0.136 C 
ATOM      5  C   UNL     1      35.056 -17.551 -23.877  0.00  0.00    +0.136 C 
ATOM      6  C   UNL     1      34.578 -17.214 -25.143  0.00  0.00    +0.073 C 
ENDROOT
BRANCH   4   7
ATOM      7  O   UNL     1      33.448 -15.674 -26.574  0.00  0.00    -0.505 OA
ATOM      8  H   UNL     1      33.532 -16.281 -27.283  0.00  0.00    +0.292 HD
ENDBRANCH   4   7
BRANCH   5   9
ATOM      9  O   UNL     1      35.705 -18.733 -23.687  0.00  0.00    -0.505 OA
ATOM     10  H   UNL     1      35.329 -19.390 -23.136  0.00  0.00    +0.292 HD
ENDBRANCH   5   9
BRANCH   1  11
ATOM     11  CA  UNL     1      34.005 -14.533 -21.855  0.00  0.00    +0.064 C 
BRANCH  11  12
ATOM     12  N   UNL     1      34.772 -14.918 -20.617  0.00  0.00    +0.391 N 
ATOM     13  H1  UNL     1      34.394 -14.414 -19.814  0.00  0.00    -0.088 HD
ATOM     14  H2  UNL     1      35.756 -14.678 -20.737  0.00  0.00    -0.088 HD
ATOM     15  H3  UNL     1      34.683 -15.922 -20.461  0.00  0.00    -0.088 HD
ENDBRANCH  11  12
BRANCH  11  18
ATOM     16  O   UNL     1      32.020 -13.218 -21.808  0.00  0.00    -0.248 OA
ATOM     17  OXT UNL     1      31.913 -15.413 -21.186  0.00  0.00    -0.248 OA
ATOM     18  C   UNL     1      32.497 -14.366 -21.590  0.00  0.00    +0.349 C 
ENDBRANCH  11  18
ENDBRANCH   1  11
TORSDOF 5
ENDMDL
