MODEL 1
REMARK VINA RESULT:     -10.2      0.000      0.000
REMARK  Name = 6918339
REMARK  4 active torsions:
REMARK  status: ('A' for Active; 'I' for Inactive)
REMARK    1  A    between atoms: C_5  and  O_19
REMARK    2  A    between atoms: C_18  and  O_21
REMARK    3  A    between atoms: O_21  and  S_22
REMARK    4  A    between atoms: S_22  and  N_25
REMARK                            x       y       z     vdW  Elec       q    Type
REMARK                         _______ _______ _______ _____ _____    ______ ____
ROOT
ATOM      1  C   UNL     1      34.445 -18.885 -21.638  0.00  0.00    +0.025 C 
ATOM      2  C   UNL     1      35.659 -19.776 -21.310  0.00  0.00    +0.003 C 
ATOM      3  C   UNL     1      35.546 -20.420 -19.928  0.00  0.00    +0.004 C 
ATOM      4  C   UNL     1      34.281 -21.330 -19.904  0.00  0.00    +0.022 C 
ATOM      5  C   UNL     1      34.888 -18.356 -23.014  0.00  0.00    +0.110 C 
ATOM      6  C   UNL     1      33.193 -19.771 -21.660  0.00  0.00    +0.003 C 
ATOM      7  C   UNL     1      36.853 -18.879 -21.622  0.00  0.00    +0.003 C 
ATOM      8  C   UNL     1      33.015 -20.544 -20.339  0.00  0.00    +0.004 C 
ATOM      9  C   UNL     1      36.387 -18.045 -22.829  0.00  0.00    +0.029 C 
ATOM     10  C   UNL     1      36.772 -21.263 -19.572  0.00  0.00    +0.005 C 
ATOM     11  C   UNL     1      34.220 -17.707 -20.655  0.00  0.00    +0.002 C 
ATOM     12  C   UNL     1      34.158 -22.071 -18.575  0.00  0.00    -0.026 C 
ATOM     13  C   UNL     1      36.659 -21.756 -18.132  0.00  0.00    +0.026 C 
ATOM     14  C   UNL     1      35.298 -22.299 -17.773  0.00  0.00    -0.023 C 
ATOM     15  C   UNL     1      32.932 -22.620 -18.158  0.00  0.00    -0.001 C 
ATOM     16  C   UNL     1      35.175 -23.012 -16.567  0.00  0.00    +0.035 C 
ATOM     17  C   UNL     1      32.826 -23.334 -16.963  0.00  0.00    +0.039 C 
ATOM     18  C   UNL     1      33.946 -23.526 -16.165  0.00  0.00    +0.172 C 
ENDROOT
BRANCH   5  19
ATOM     19  O   UNL     1      34.163 -17.213 -23.429  0.00  0.00    -0.384 OA
ATOM     20  H   UNL     1      33.498 -17.474 -24.086  0.00  0.00    +0.210 HD
ENDBRANCH   5  19
BRANCH  18  21
ATOM     21  O   UNL     1      33.844 -24.220 -14.999  0.00  0.00    -0.349 OA
BRANCH  21  22
ATOM     22  S   UNL     1      32.787 -23.835 -13.805  0.00  0.00    +0.086 S 
ATOM     23  O   UNL     1      32.043 -25.030 -13.451  0.00  0.00    -0.046 OA
ATOM     24  O   UNL     1      32.097 -22.615 -14.183  0.00  0.00    -0.046 OA
BRANCH  22  25
ATOM     25  N   UNL     1      33.811 -23.457 -12.482  0.00  0.00    -0.194 NA
ATOM     26  H   UNL     1      34.731 -23.186 -12.829  0.00  0.00    +0.145 HD
ATOM     27  H   UNL     1      33.903 -24.275 -11.878  0.00  0.00    +0.145 HD
ENDBRANCH  22  25
ENDBRANCH  21  22
ENDBRANCH  18  21
TORSDOF 4
ENDMDL
MODEL 2
REMARK VINA RESULT:     -10.1      1.009      1.486
REMARK  Name = 6918339
REMARK  4 active torsions:
REMARK  status: ('A' for Active; 'I' for Inactive)
REMARK    1  A    between atoms: C_5  and  O_19
REMARK    2  A    between atoms: C_18  and  O_21
REMARK    3  A    between atoms: O_21  and  S_22
REMARK    4  A    between atoms: S_22  and  N_25
REMARK                            x       y       z     vdW  Elec       q    Type
REMARK                         _______ _______ _______ _____ _____    ______ ____
ROOT
ATOM      1  C   UNL     1      34.443 -18.949 -21.651  0.00  0.00    +0.025 C 
ATOM      2  C   UNL     1      35.674 -19.814 -21.314  0.00  0.00    +0.003 C 
ATOM      3  C   UNL     1      35.592 -20.413 -19.910  0.00  0.00    +0.004 C 
ATOM      4  C   UNL     1      34.339 -21.337 -19.834  0.00  0.00    +0.022 C 
ATOM      5  C   UNL     1      34.858 -18.461 -23.051  0.00  0.00    +0.110 C 
ATOM      6  C   UNL     1      33.203 -19.851 -21.623  0.00  0.00    +0.003 C 
ATOM      7  C   UNL     1      36.852 -18.913 -21.675  0.00  0.00    +0.003 C 
ATOM      8  C   UNL     1      33.056 -20.581 -20.274  0.00  0.00    +0.004 C 
ATOM      9  C   UNL     1      36.355 -18.126 -22.902  0.00  0.00    +0.029 C 
ATOM     10  C   UNL     1      36.834 -21.228 -19.545  0.00  0.00    +0.005 C 
ATOM     11  C   UNL     1      34.219 -17.742 -20.704  0.00  0.00    +0.002 C 
ATOM     12  C   UNL     1      34.247 -22.034 -18.479  0.00  0.00    -0.026 C 
ATOM     13  C   UNL     1      36.751 -21.674 -18.089  0.00  0.00    +0.026 C 
ATOM     14  C   UNL     1      35.402 -22.221 -17.689  0.00  0.00    -0.023 C 
ATOM     15  C   UNL     1      33.035 -22.584 -18.024  0.00  0.00    -0.001 C 
ATOM     16  C   UNL     1      35.308 -22.894 -16.458  0.00  0.00    +0.035 C 
ATOM     17  C   UNL     1      32.957 -23.259 -16.805  0.00  0.00    +0.039 C 
ATOM     18  C   UNL     1      34.092 -23.411 -16.019  0.00  0.00    +0.172 C 
ENDROOT
BRANCH   5  19
ATOM     19  O   UNL     1      34.112 -17.342 -23.492  0.00  0.00    -0.384 OA
ATOM     20  H   UNL     1      34.719 -16.645 -23.787  0.00  0.00    +0.210 HD
ENDBRANCH   5  19
BRANCH  18  21
ATOM     21  O   UNL     1      34.018 -24.066 -14.829  0.00  0.00    -0.349 OA
BRANCH  21  22
ATOM     22  S   UNL     1      35.318 -24.355 -13.872  0.00  0.00    +0.086 S 
ATOM     23  O   UNL     1      35.964 -23.087 -13.584  0.00  0.00    -0.046 OA
ATOM     24  O   UNL     1      36.069 -25.458 -14.443  0.00  0.00    -0.046 OA
BRANCH  22  25
ATOM     25  N   UNL     1      34.613 -24.915 -12.411  0.00  0.00    -0.194 NA
ATOM     26  H   UNL     1      35.002 -24.397 -11.625  0.00  0.00    +0.145 HD
ATOM     27  H   UNL     1      34.816 -25.909 -12.296  0.00  0.00    +0.145 HD
ENDBRANCH  22  25
ENDBRANCH  21  22
ENDBRANCH  18  21
TORSDOF 4
ENDMDL
MODEL 3
REMARK VINA RESULT:      -9.9      5.529      7.896
REMARK  Name = 6918339
REMARK  4 active torsions:
REMARK  status: ('A' for Active; 'I' for Inactive)
REMARK    1  A    between atoms: C_5  and  O_19
REMARK    2  A    between atoms: C_18  and  O_21
REMARK    3  A    between atoms: O_21  and  S_22
REMARK    4  A    between atoms: S_22  and  N_25
REMARK                            x       y       z     vdW  Elec       q    Type
REMARK                         _______ _______ _______ _____ _____    ______ ____
ROOT
ATOM      1  C   UNL     1      36.731 -24.066 -13.941  0.00  0.00    +0.025 C 
ATOM      2  C   UNL     1      35.501 -24.777 -13.344  0.00  0.00    +0.003 C 
ATOM      3  C   UNL     1      34.193 -24.075 -13.710  0.00  0.00    +0.004 C 
ATOM      4  C   UNL     1      34.035 -24.094 -15.260  0.00  0.00    +0.022 C 
ATOM      5  C   UNL     1      37.843 -24.953 -13.350  0.00  0.00    +0.110 C 
ATOM      6  C   UNL     1      36.614 -24.112 -15.469  0.00  0.00    +0.003 C 
ATOM      7  C   UNL     1      35.869 -24.951 -11.873  0.00  0.00    +0.003 C 
ATOM      8  C   UNL     1      35.287 -23.502 -15.961  0.00  0.00    +0.004 C 
ATOM      9  C   UNL     1      37.389 -25.202 -11.898  0.00  0.00    +0.029 C 
ATOM     10  C   UNL     1      32.971 -24.741 -13.076  0.00  0.00    +0.005 C 
ATOM     11  C   UNL     1      36.915 -22.596 -13.486  0.00  0.00    +0.002 C 
ATOM     12  C   UNL     1      32.703 -23.481 -15.687  0.00  0.00    -0.026 C 
ATOM     13  C   UNL     1      31.723 -23.912 -13.362  0.00  0.00    +0.026 C 
ATOM     14  C   UNL     1      31.611 -23.442 -14.792  0.00  0.00    -0.023 C 
ATOM     15  C   UNL     1      32.501 -23.023 -17.002  0.00  0.00    -0.001 C 
ATOM     16  C   UNL     1      30.381 -22.904 -15.210  0.00  0.00    +0.035 C 
ATOM     17  C   UNL     1      31.272 -22.500 -17.407  0.00  0.00    +0.039 C 
ATOM     18  C   UNL     1      30.213 -22.436 -16.510  0.00  0.00    +0.172 C 
ENDROOT
BRANCH   5  19
ATOM     19  O   UNL     1      39.121 -24.349 -13.403  0.00  0.00    -0.384 OA
ATOM     20  H   UNL     1      39.129 -23.560 -12.837  0.00  0.00    +0.210 HD
ENDBRANCH   5  19
BRANCH  18  21
ATOM     21  O   UNL     1      29.015 -21.925 -16.903  0.00  0.00    -0.349 OA
BRANCH  21  22
ATOM     22  S   UNL     1      27.623 -22.794 -16.926  0.00  0.00    +0.086 S 
ATOM     23  O   UNL     1      26.995 -22.683 -15.622  0.00  0.00    -0.046 OA
ATOM     24  O   UNL     1      27.906 -24.094 -17.506  0.00  0.00    -0.046 OA
BRANCH  22  25
ATOM     25  N   UNL     1      26.643 -21.936 -18.042  0.00  0.00    -0.194 NA
ATOM     26  H   UNL     1      25.661 -22.058 -17.797  0.00  0.00    +0.145 HD
ATOM     27  H   UNL     1      26.805 -22.296 -18.983  0.00  0.00    +0.145 HD
ENDBRANCH  22  25
ENDBRANCH  21  22
ENDBRANCH  18  21
TORSDOF 4
ENDMDL
MODEL 4
REMARK VINA RESULT:      -9.6      4.063      7.967
REMARK  Name = 6918339
REMARK  4 active torsions:
REMARK  status: ('A' for Active; 'I' for Inactive)
REMARK    1  A    between atoms: C_5  and  O_19
REMARK    2  A    between atoms: C_18  and  O_21
REMARK    3  A    between atoms: O_21  and  S_22
REMARK    4  A    between atoms: S_22  and  N_25
REMARK                            x       y       z     vdW  Elec       q    Type
REMARK                         _______ _______ _______ _____ _____    ______ ____
ROOT
ATOM      1  C   UNL     1      36.302 -23.124 -15.695  0.00  0.00    +0.025 C 
ATOM      2  C   UNL     1      35.155 -23.562 -16.627  0.00  0.00    +0.003 C 
ATOM      3  C   UNL     1      34.705 -22.435 -17.557  0.00  0.00    +0.004 C 
ATOM      4  C   UNL     1      35.907 -22.023 -18.460  0.00  0.00    +0.022 C 
ATOM      5  C   UNL     1      36.465 -24.419 -14.877  0.00  0.00    +0.110 C 
ATOM      6  C   UNL     1      37.510 -22.755 -16.564  0.00  0.00    +0.003 C 
ATOM      7  C   UNL     1      34.144 -24.195 -15.675  0.00  0.00    +0.003 C 
ATOM      8  C   UNL     1      37.157 -21.676 -17.607  0.00  0.00    +0.004 C 
ATOM      9  C   UNL     1      35.018 -24.872 -14.602  0.00  0.00    +0.029 C 
ATOM     10  C   UNL     1      33.530 -22.843 -18.448  0.00  0.00    +0.005 C 
ATOM     11  C   UNL     1      35.962 -21.935 -14.761  0.00  0.00    +0.002 C 
ATOM     12  C   UNL     1      35.497 -20.957 -19.472  0.00  0.00    -0.026 C 
ATOM     13  C   UNL     1      33.040 -21.636 -19.242  0.00  0.00    +0.026 C 
ATOM     14  C   UNL     1      34.147 -20.817 -19.861  0.00  0.00    -0.023 C 
ATOM     15  C   UNL     1      36.458 -20.150 -20.108  0.00  0.00    -0.001 C 
ATOM     16  C   UNL     1      33.789 -19.852 -20.819  0.00  0.00    +0.035 C 
ATOM     17  C   UNL     1      36.091 -19.202 -21.065  0.00  0.00    +0.039 C 
ATOM     18  C   UNL     1      34.756 -19.050 -21.418  0.00  0.00    +0.172 C 
ENDROOT
BRANCH   5  19
ATOM     19  O   UNL     1      37.191 -24.228 -13.677  0.00  0.00    -0.384 OA
ATOM     20  H   UNL     1      37.078 -23.313 -13.373  0.00  0.00    +0.210 HD
ENDBRANCH   5  19
BRANCH  18  21
ATOM     21  O   UNL     1      34.396 -18.125 -22.349  0.00  0.00    -0.349 OA
BRANCH  21  22
ATOM     22  S   UNL     1      34.505 -16.506 -22.107  0.00  0.00    +0.086 S 
ATOM     23  O   UNL     1      35.151 -16.279 -20.828  0.00  0.00    -0.046 OA
ATOM     24  O   UNL     1      33.214 -15.913 -22.403  0.00  0.00    -0.046 OA
BRANCH  22  25
ATOM     25  N   UNL     1      35.596 -16.000 -23.330  0.00  0.00    -0.194 NA
ATOM     26  H   UNL     1      36.046 -16.815 -23.745  0.00  0.00    +0.145 HD
ATOM     27  H   UNL     1      36.307 -15.391 -22.921  0.00  0.00    +0.145 HD
ENDBRANCH  22  25
ENDBRANCH  21  22
ENDBRANCH  18  21
TORSDOF 4
ENDMDL
MODEL 5
REMARK VINA RESULT:      -9.5      5.467      7.355
REMARK  Name = 6918339
REMARK  4 active torsions:
REMARK  status: ('A' for Active; 'I' for Inactive)
REMARK    1  A    between atoms: C_5  and  O_19
REMARK    2  A    between atoms: C_18  and  O_21
REMARK    3  A    between atoms: O_21  and  S_22
REMARK    4  A    between atoms: S_22  and  N_25
REMARK                            x       y       z     vdW  Elec       q    Type
REMARK                         _______ _______ _______ _____ _____    ______ ____
ROOT
ATOM      1  C   UNL     1      31.010 -23.338 -16.201  0.00  0.00    +0.025 C 
ATOM      2  C   UNL     1      31.428 -23.074 -14.741  0.00  0.00    +0.003 C 
ATOM      3  C   UNL     1      32.804 -23.659 -14.420  0.00  0.00    +0.004 C 
ATOM      4  C   UNL     1      33.862 -22.975 -15.339  0.00  0.00    +0.022 C 
ATOM      5  C   UNL     1      29.606 -22.705 -16.175  0.00  0.00    +0.110 C 
ATOM      6  C   UNL     1      32.016 -22.637 -17.121  0.00  0.00    +0.003 C 
ATOM      7  C   UNL     1      30.216 -23.531 -13.935  0.00  0.00    +0.003 C 
ATOM      8  C   UNL     1      33.463 -23.085 -16.835  0.00  0.00    +0.004 C 
ATOM      9  C   UNL     1      29.016 -23.160 -14.826  0.00  0.00    +0.029 C 
ATOM     10  C   UNL     1      33.205 -23.450 -12.959  0.00  0.00    +0.005 C 
ATOM     11  C   UNL     1      30.919 -24.835 -16.590  0.00  0.00    +0.002 C 
ATOM     12  C   UNL     1      35.273 -23.455 -15.009  0.00  0.00    -0.026 C 
ATOM     13  C   UNL     1      34.515 -24.178 -12.673  0.00  0.00    +0.026 C 
ATOM     14  C   UNL     1      35.572 -23.980 -13.732  0.00  0.00    -0.023 C 
ATOM     15  C   UNL     1      36.327 -23.305 -15.929  0.00  0.00    -0.001 C 
ATOM     16  C   UNL     1      36.884 -24.388 -13.431  0.00  0.00    +0.035 C 
ATOM     17  C   UNL     1      37.627 -23.705 -15.614  0.00  0.00    +0.039 C 
ATOM     18  C   UNL     1      37.905 -24.250 -14.367  0.00  0.00    +0.172 C 
ENDROOT
BRANCH   5  19
ATOM     19  O   UNL     1      28.796 -23.108 -17.264  0.00  0.00    -0.384 OA
ATOM     20  H   UNL     1      29.100 -22.665 -18.073  0.00  0.00    +0.210 HD
ENDBRANCH   5  19
BRANCH  18  21
ATOM     21  O   UNL     1      39.171 -24.642 -14.059  0.00  0.00    -0.349 OA
BRANCH  21  22
ATOM     22  S   UNL     1      39.805 -26.089 -14.504  0.00  0.00    +0.086 S 
ATOM     23  O   UNL     1      38.725 -27.055 -14.581  0.00  0.00    -0.046 OA
ATOM     24  O   UNL     1      40.974 -26.346 -13.683  0.00  0.00    -0.046 OA
BRANCH  22  25
ATOM     25  N   UNL     1      40.353 -25.802 -16.104  0.00  0.00    -0.194 NA
ATOM     26  H   UNL     1      40.832 -24.903 -16.143  0.00  0.00    +0.145 HD
ATOM     27  H   UNL     1      39.554 -25.789 -16.740  0.00  0.00    +0.145 HD
ENDBRANCH  22  25
ENDBRANCH  21  22
ENDBRANCH  18  21
TORSDOF 4
ENDMDL
MODEL 6
REMARK VINA RESULT:      -9.5      8.029     10.987
REMARK  Name = 6918339
REMARK  4 active torsions:
REMARK  status: ('A' for Active; 'I' for Inactive)
REMARK    1  A    between atoms: C_5  and  O_19
REMARK    2  A    between atoms: C_18  and  O_21
REMARK    3  A    between atoms: O_21  and  S_22
REMARK    4  A    between atoms: S_22  and  N_25
REMARK                            x       y       z     vdW  Elec       q    Type
REMARK                         _______ _______ _______ _____ _____    ______ ____
ROOT
ATOM      1  C   UNL     1      32.069  -8.194 -21.830  0.00  0.00    +0.025 C 
ATOM      2  C   UNL     1      32.317  -8.735 -23.251  0.00  0.00    +0.003 C 
ATOM      3  C   UNL     1      33.000 -10.103 -23.237  0.00  0.00    +0.004 C 
ATOM      4  C   UNL     1      32.068 -11.118 -22.509  0.00  0.00    +0.022 C 
ATOM      5  C   UNL     1      31.456  -6.827 -22.188  0.00  0.00    +0.110 C 
ATOM      6  C   UNL     1      31.118  -9.158 -21.110  0.00  0.00    +0.003 C 
ATOM      7  C   UNL     1      32.996  -7.569 -23.964  0.00  0.00    +0.003 C 
ATOM      8  C   UNL     1      31.663 -10.600 -21.102  0.00  0.00    +0.004 C 
ATOM      9  C   UNL     1      32.326  -6.322 -23.356  0.00  0.00    +0.029 C 
ATOM     10  C   UNL     1      33.301 -10.624 -24.644  0.00  0.00    +0.005 C 
ATOM     11  C   UNL     1      33.348  -8.003 -20.975  0.00  0.00    +0.002 C 
ATOM     12  C   UNL     1      32.656 -12.526 -22.535  0.00  0.00    -0.026 C 
ATOM     13  C   UNL     1      34.106 -11.917 -24.554  0.00  0.00    +0.026 C 
ATOM     14  C   UNL     1      33.584 -12.898 -23.532  0.00  0.00    -0.023 C 
ATOM     15  C   UNL     1      32.227 -13.512 -21.628  0.00  0.00    -0.001 C 
ATOM     16  C   UNL     1      34.093 -14.208 -23.564  0.00  0.00    +0.035 C 
ATOM     17  C   UNL     1      32.732 -14.812 -21.676  0.00  0.00    +0.039 C 
ATOM     18  C   UNL     1      33.668 -15.160 -22.641  0.00  0.00    +0.172 C 
ENDROOT
BRANCH   5  19
ATOM     19  O   UNL     1      31.455  -5.918 -21.103  0.00  0.00    -0.384 OA
ATOM     20  H   UNL     1      31.757  -6.373 -20.301  0.00  0.00    +0.210 HD
ENDBRANCH   5  19
BRANCH  18  21
ATOM     21  O   UNL     1      34.164 -16.426 -22.688  0.00  0.00    -0.349 OA
BRANCH  21  22
ATOM     22  S   UNL     1      34.655 -17.257 -21.361  0.00  0.00    +0.086 S 
ATOM     23  O   UNL     1      33.625 -18.222 -21.021  0.00  0.00    -0.046 OA
ATOM     24  O   UNL     1      35.134 -16.303 -20.377  0.00  0.00    -0.046 OA
BRANCH  22  25
ATOM     25  N   UNL     1      36.014 -18.136 -21.929  0.00  0.00    -0.194 NA
ATOM     26  H   UNL     1      35.754 -19.111 -22.071  0.00  0.00    +0.145 HD
ATOM     27  H   UNL     1      36.766 -18.082 -21.240  0.00  0.00    +0.145 HD
ENDBRANCH  22  25
ENDBRANCH  21  22
ENDBRANCH  18  21
TORSDOF 4
ENDMDL
MODEL 7
REMARK VINA RESULT:      -9.3      9.705     13.468
REMARK  Name = 6918339
REMARK  4 active torsions:
REMARK  status: ('A' for Active; 'I' for Inactive)
REMARK    1  A    between atoms: C_5  and  O_19
REMARK    2  A    between atoms: C_18  and  O_21
REMARK    3  A    between atoms: O_21  and  S_22
REMARK    4  A    between atoms: S_22  and  N_25
REMARK                            x       y       z     vdW  Elec       q    Type
REMARK                         _______ _______ _______ _____ _____    ______ ____
ROOT
ATOM      1  C   UNL     1      33.459 -14.404 -22.234  0.00  0.00    +0.025 C 
ATOM      2  C   UNL     1      32.287 -13.823 -21.418  0.00  0.00    +0.003 C 
ATOM      3  C   UNL     1      32.389 -12.306 -21.259  0.00  0.00    +0.004 C 
ATOM      4  C   UNL     1      32.340 -11.653 -22.673  0.00  0.00    +0.022 C 
ATOM      5  C   UNL     1      33.102 -15.900 -22.152  0.00  0.00    +0.110 C 
ATOM      6  C   UNL     1      33.403 -13.804 -23.644  0.00  0.00    +0.003 C 
ATOM      7  C   UNL     1      32.249 -14.705 -20.173  0.00  0.00    +0.003 C 
ATOM      8  C   UNL     1      33.416 -12.263 -23.612  0.00  0.00    +0.004 C 
ATOM      9  C   UNL     1      32.654 -16.097 -20.691  0.00  0.00    +0.029 C 
ATOM     10  C   UNL     1      31.260 -11.728 -20.404  0.00  0.00    +0.005 C 
ATOM     11  C   UNL     1      34.862 -14.150 -21.626  0.00  0.00    +0.002 C 
ATOM     12  C   UNL     1      32.353 -10.129 -22.578  0.00  0.00    -0.026 C 
ATOM     13  C   UNL     1      31.501 -10.241 -20.167  0.00  0.00    +0.026 C 
ATOM     14  C   UNL     1      31.914  -9.479 -21.404  0.00  0.00    -0.023 C 
ATOM     15  C   UNL     1      32.715  -9.334 -23.681  0.00  0.00    -0.001 C 
ATOM     16  C   UNL     1      31.900  -8.075 -21.342  0.00  0.00    +0.035 C 
ATOM     17  C   UNL     1      32.687  -7.940 -23.610  0.00  0.00    +0.039 C 
ATOM     18  C   UNL     1      32.284  -7.310 -22.440  0.00  0.00    +0.172 C 
ENDROOT
BRANCH   5  19
ATOM     19  O   UNL     1      34.185 -16.747 -22.488  0.00  0.00    -0.384 OA
ATOM     20  H   UNL     1      34.330 -16.721 -23.448  0.00  0.00    +0.210 HD
ENDBRANCH   5  19
BRANCH  18  21
ATOM     21  O   UNL     1      32.259  -5.951 -22.369  0.00  0.00    -0.349 OA
BRANCH  21  22
ATOM     22  S   UNL     1      30.969  -5.045 -22.822  0.00  0.00    +0.086 S 
ATOM     23  O   UNL     1      29.939  -5.178 -21.808  0.00  0.00    -0.046 OA
ATOM     24  O   UNL     1      30.680  -5.327 -24.216  0.00  0.00    -0.046 OA
BRANCH  22  25
ATOM     25  N   UNL     1      31.568  -3.440 -22.737  0.00  0.00    -0.194 NA
ATOM     26  H   UNL     1      31.438  -2.979 -23.638  0.00  0.00    +0.145 HD
ATOM     27  H   UNL     1      32.563  -3.460 -22.507  0.00  0.00    +0.145 HD
ENDBRANCH  22  25
ENDBRANCH  21  22
ENDBRANCH  18  21
TORSDOF 4
ENDMDL
MODEL 8
REMARK VINA RESULT:      -8.8      9.575     12.715
REMARK  Name = 6918339
REMARK  4 active torsions:
REMARK  status: ('A' for Active; 'I' for Inactive)
REMARK    1  A    between atoms: C_5  and  O_19
REMARK    2  A    between atoms: C_18  and  O_21
REMARK    3  A    between atoms: O_21  and  S_22
REMARK    4  A    between atoms: S_22  and  N_25
REMARK                            x       y       z     vdW  Elec       q    Type
REMARK                         _______ _______ _______ _____ _____    ______ ____
ROOT
ATOM      1  C   UNL     1      32.020  -6.412 -23.599  0.00  0.00    +0.025 C 
ATOM      2  C   UNL     1      31.920  -7.073 -22.210  0.00  0.00    +0.003 C 
ATOM      3  C   UNL     1      31.798  -8.594 -22.302  0.00  0.00    +0.004 C 
ATOM      4  C   UNL     1      33.077  -9.156 -22.994  0.00  0.00    +0.022 C 
ATOM      5  C   UNL     1      32.060  -4.934 -23.168  0.00  0.00    +0.110 C 
ATOM      6  C   UNL     1      33.296  -6.920 -24.280  0.00  0.00    +0.003 C 
ATOM      7  C   UNL     1      30.821  -6.276 -21.514  0.00  0.00    +0.003 C 
ATOM      8  C   UNL     1      33.330  -8.459 -24.359  0.00  0.00    +0.004 C 
ATOM      9  C   UNL     1      31.007  -4.843 -22.046  0.00  0.00    +0.029 C 
ATOM     10  C   UNL     1      31.643  -9.256 -20.931  0.00  0.00    +0.005 C 
ATOM     11  C   UNL     1      30.807  -6.669 -24.529  0.00  0.00    +0.002 C 
ATOM     12  C   UNL     1      33.055 -10.682 -23.041  0.00  0.00    -0.026 C 
ATOM     13  C   UNL     1      31.383 -10.749 -21.104  0.00  0.00    +0.026 C 
ATOM     14  C   UNL     1      32.284 -11.417 -22.115  0.00  0.00    -0.023 C 
ATOM     15  C   UNL     1      33.866 -11.394 -23.943  0.00  0.00    -0.001 C 
ATOM     16  C   UNL     1      32.299 -12.823 -22.149  0.00  0.00    +0.035 C 
ATOM     17  C   UNL     1      33.880 -12.790 -23.960  0.00  0.00    +0.039 C 
ATOM     18  C   UNL     1      33.094 -13.504 -23.066  0.00  0.00    +0.172 C 
ENDROOT
BRANCH   5  19
ATOM     19  O   UNL     1      31.777  -4.040 -24.228  0.00  0.00    -0.384 OA
ATOM     20  H   UNL     1      31.344  -3.246 -23.874  0.00  0.00    +0.210 HD
ENDBRANCH   5  19
BRANCH  18  21
ATOM     21  O   UNL     1      33.104 -14.865 -23.082  0.00  0.00    -0.349 OA
BRANCH  21  22
ATOM     22  S   UNL     1      34.238 -15.771 -22.317  0.00  0.00    +0.086 S 
ATOM     23  O   UNL     1      33.667 -17.077 -22.041  0.00  0.00    -0.046 OA
ATOM     24  O   UNL     1      34.817 -14.973 -21.252  0.00  0.00    -0.046 OA
BRANCH  22  25
ATOM     25  N   UNL     1      35.446 -15.982 -23.516  0.00  0.00    -0.194 NA
ATOM     26  H   UNL     1      36.004 -16.807 -23.295  0.00  0.00    +0.145 HD
ATOM     27  H   UNL     1      36.051 -15.160 -23.537  0.00  0.00    +0.145 HD
ENDBRANCH  22  25
ENDBRANCH  21  22
ENDBRANCH  18  21
TORSDOF 4
ENDMDL
MODEL 9
REMARK VINA RESULT:      -8.6      8.398     11.614
REMARK  Name = 6918339
REMARK  4 active torsions:
REMARK  status: ('A' for Active; 'I' for Inactive)
REMARK    1  A    between atoms: C_5  and  O_19
REMARK    2  A    between atoms: C_18  and  O_21
REMARK    3  A    between atoms: O_21  and  S_22
REMARK    4  A    between atoms: S_22  and  N_25
REMARK                            x       y       z     vdW  Elec       q    Type
REMARK                         _______ _______ _______ _____ _____    ______ ____
ROOT
ATOM      1  C   UNL     1      32.232  -7.855 -21.899  0.00  0.00    +0.025 C 
ATOM      2  C   UNL     1      32.443  -8.438 -23.310  0.00  0.00    +0.003 C 
ATOM      3  C   UNL     1      33.037  -9.846 -23.271  0.00  0.00    +0.004 C 
ATOM      4  C   UNL     1      32.042 -10.785 -22.523  0.00  0.00    +0.022 C 
ATOM      5  C   UNL     1      31.707  -6.459 -22.282  0.00  0.00    +0.110 C 
ATOM      6  C   UNL     1      31.223  -8.743 -21.161  0.00  0.00    +0.003 C 
ATOM      7  C   UNL     1      33.193  -7.330 -24.045  0.00  0.00    +0.003 C 
ATOM      8  C   UNL     1      31.674 -10.216 -21.127  0.00  0.00    +0.004 C 
ATOM      9  C   UNL     1      32.606  -6.032 -23.460  0.00  0.00    +0.029 C 
ATOM     10  C   UNL     1      33.301 -10.411 -24.668  0.00  0.00    +0.005 C 
ATOM     11  C   UNL     1      33.522  -7.731 -21.049  0.00  0.00    +0.002 C 
ATOM     12  C   UNL     1      32.539 -12.229 -22.524  0.00  0.00    -0.026 C 
ATOM     13  C   UNL     1      34.021 -11.751 -24.555  0.00  0.00    +0.026 C 
ATOM     14  C   UNL     1      33.440 -12.677 -23.515  0.00  0.00    -0.023 C 
ATOM     15  C   UNL     1      32.049 -13.168 -21.598  0.00  0.00    -0.001 C 
ATOM     16  C   UNL     1      33.864 -14.018 -23.523  0.00  0.00    +0.035 C 
ATOM     17  C   UNL     1      32.471 -14.498 -21.623  0.00  0.00    +0.039 C 
ATOM     18  C   UNL     1      33.381 -14.923 -22.582  0.00  0.00    +0.172 C 
ENDROOT
BRANCH   5  19
ATOM     19  O   UNL     1      31.767  -5.532 -21.214  0.00  0.00    -0.384 OA
ATOM     20  H   UNL     1      32.414  -4.839 -21.424  0.00  0.00    +0.210 HD
ENDBRANCH   5  19
BRANCH  18  21
ATOM     21  O   UNL     1      33.794 -16.219 -22.606  0.00  0.00    -0.349 OA
BRANCH  21  22
ATOM     22  S   UNL     1      34.666 -16.869 -23.834  0.00  0.00    +0.086 S 
ATOM     23  O   UNL     1      36.031 -16.385 -23.730  0.00  0.00    -0.046 OA
ATOM     24  O   UNL     1      33.913 -16.708 -25.064  0.00  0.00    -0.046 OA
BRANCH  22  25
ATOM     25  N   UNL     1      34.686 -18.543 -23.459  0.00  0.00    -0.194 NA
ATOM     26  H   UNL     1      35.619 -18.811 -23.147  0.00  0.00    +0.145 HD
ATOM     27  H   UNL     1      34.438 -19.081 -24.290  0.00  0.00    +0.145 HD
ENDBRANCH  22  25
ENDBRANCH  21  22
ENDBRANCH  18  21
TORSDOF 4
ENDMDL
