MODEL 1
REMARK VINA RESULT:      -7.4      0.000      0.000
REMARK  Name = 2145
REMARK  3 active torsions:
REMARK  status: ('A' for Active; 'I' for Inactive)
REMARK    1  A    between atoms: C_4  and  C_10
REMARK    2  A    between atoms: C_4  and  C_19
REMARK    3  A    between atoms: C_15  and  N_16
REMARK                            x       y       z     vdW  Elec       q    Type
REMARK                         _______ _______ _______ _____ _____    ______ ____
ROOT
ATOM      1  O   UNL     1      36.005 -25.582 -11.268  0.00  0.00    -0.274 OA
ATOM      2  O   UNL     1      38.046 -27.584 -14.867  0.00  0.00    -0.275 OA
ATOM      3  N   UNL     1      37.038 -26.528 -13.084  0.00  0.00    -0.255 N 
ATOM      4  C   UNL     1      36.437 -24.116 -13.161  0.00  0.00    +0.088 C 
ATOM      5  C   UNL     1      37.682 -24.062 -14.074  0.00  0.00    +0.022 C 
ATOM      6  C   UNL     1      37.702 -25.225 -15.054  0.00  0.00    +0.086 C 
ATOM      7  C   UNL     1      36.481 -25.451 -12.398  0.00  0.00    +0.231 C 
ATOM      8  C   UNL     1      37.634 -26.550 -14.340  0.00  0.00    +0.228 C 
ATOM      9  H   UNL     1      37.005 -27.394 -12.616  0.00  0.00    +0.158 HD
ENDROOT
BRANCH   4  10
ATOM     10  C   UNL     1      35.129 -23.921 -13.947  0.00  0.00    -0.015 C 
ATOM     11  C   UNL     1      35.162 -23.330 -15.206  0.00  0.00    -0.003 C 
ATOM     12  C   UNL     1      33.923 -24.336 -13.392  0.00  0.00    -0.003 C 
ATOM     13  C   UNL     1      33.976 -23.153 -15.918  0.00  0.00    +0.014 C 
ATOM     14  C   UNL     1      32.737 -24.159 -14.104  0.00  0.00    +0.014 C 
ATOM     15  C   UNL     1      32.764 -23.567 -15.367  0.00  0.00    +0.042 C 
BRANCH  15  16
ATOM     16  N   UNL     1      31.564 -23.388 -16.088  0.00  0.00    -0.357 N 
ATOM     17  H   UNL     1      31.221 -22.480 -16.252  0.00  0.00    +0.142 HD
ATOM     18  H   UNL     1      31.071 -24.170 -16.425  0.00  0.00    +0.142 HD
ENDBRANCH  15  16
ENDBRANCH   4  10
BRANCH   4  19
ATOM     19  C   UNL     1      36.552 -22.986 -12.111  0.00  0.00    +0.013 C 
ATOM     20  C   UNL     1      37.999 -22.723 -11.746  0.00  0.00    +0.001 C 
ENDBRANCH   4  19
TORSDOF 3
ENDMDL
MODEL 2
REMARK VINA RESULT:      -7.3      1.746      3.412
REMARK  Name = 2145
REMARK  3 active torsions:
REMARK  status: ('A' for Active; 'I' for Inactive)
REMARK    1  A    between atoms: C_4  and  C_10
REMARK    2  A    between atoms: C_4  and  C_19
REMARK    3  A    between atoms: C_15  and  N_16
REMARK                            x       y       z     vdW  Elec       q    Type
REMARK                         _______ _______ _______ _____ _____    ______ ____
ROOT
ATOM      1  O   UNL     1      37.846 -23.426 -15.325  0.00  0.00    -0.274 OA
ATOM      2  O   UNL     1      37.179 -22.398 -10.895  0.00  0.00    -0.275 OA
ATOM      3  N   UNL     1      37.487 -22.964 -13.107  0.00  0.00    -0.255 N 
ATOM      4  C   UNL     1      36.170 -24.775 -14.190  0.00  0.00    +0.088 C 
ATOM      5  C   UNL     1      36.206 -25.355 -12.759  0.00  0.00    +0.022 C 
ATOM      6  C   UNL     1      35.949 -24.278 -11.717  0.00  0.00    +0.086 C 
ATOM      7  C   UNL     1      37.253 -23.687 -14.276  0.00  0.00    +0.231 C 
ATOM      8  C   UNL     1      36.930 -23.141 -11.845  0.00  0.00    +0.228 C 
ATOM      9  H   UNL     1      38.135 -22.227 -13.185  0.00  0.00    +0.158 HD
ENDROOT
BRANCH   4  10
ATOM     10  C   UNL     1      34.773 -24.256 -14.573  0.00  0.00    -0.015 C 
ATOM     11  C   UNL     1      33.730 -24.342 -13.657  0.00  0.00    -0.003 C 
ATOM     12  C   UNL     1      34.563 -23.708 -15.834  0.00  0.00    -0.003 C 
ATOM     13  C   UNL     1      32.463 -23.873 -14.004  0.00  0.00    +0.014 C 
ATOM     14  C   UNL     1      33.296 -23.239 -16.182  0.00  0.00    +0.014 C 
ATOM     15  C   UNL     1      32.247 -23.321 -15.266  0.00  0.00    +0.042 C 
BRANCH  15  16
ATOM     16  N   UNL     1      30.965 -22.846 -15.618  0.00  0.00    -0.357 N 
ATOM     17  H   UNL     1      30.167 -23.383 -15.406  0.00  0.00    +0.142 HD
ATOM     18  H   UNL     1      30.870 -21.980 -16.075  0.00  0.00    +0.142 HD
ENDBRANCH  15  16
ENDBRANCH   4  10
BRANCH   4  19
ATOM     19  C   UNL     1      36.567 -25.894 -15.182  0.00  0.00    +0.013 C 
ATOM     20  C   UNL     1      37.510 -26.888 -14.535  0.00  0.00    +0.001 C 
ENDBRANCH   4  19
TORSDOF 3
ENDMDL
MODEL 3
REMARK VINA RESULT:      -7.2     18.375     20.044
REMARK  Name = 2145
REMARK  3 active torsions:
REMARK  status: ('A' for Active; 'I' for Inactive)
REMARK    1  A    between atoms: C_4  and  C_10
REMARK    2  A    between atoms: C_4  and  C_19
REMARK    3  A    between atoms: C_15  and  N_16
REMARK                            x       y       z     vdW  Elec       q    Type
REMARK                         _______ _______ _______ _____ _____    ______ ____
ROOT
ATOM      1  O   UNL     1      31.111  -9.703 -22.830  0.00  0.00    -0.274 OA
ATOM      2  O   UNL     1      35.189  -9.411 -24.930  0.00  0.00    -0.275 OA
ATOM      3  N   UNL     1      33.164  -9.519 -23.837  0.00  0.00    -0.255 N 
ATOM      4  C   UNL     1      32.454  -7.770 -22.219  0.00  0.00    +0.088 C 
ATOM      5  C   UNL     1      33.977  -7.692 -21.974  0.00  0.00    +0.022 C 
ATOM      6  C   UNL     1      34.753  -7.735 -23.281  0.00  0.00    +0.086 C 
ATOM      7  C   UNL     1      32.171  -9.087 -22.959  0.00  0.00    +0.231 C 
ATOM      8  C   UNL     1      34.414  -8.964 -24.083  0.00  0.00    +0.228 C 
ATOM      9  H   UNL     1      32.950 -10.328 -24.356  0.00  0.00    +0.158 HD
ENDROOT
BRANCH   4  10
ATOM     10  C   UNL     1      31.922  -6.537 -22.971  0.00  0.00    -0.015 C 
ATOM     11  C   UNL     1      31.567  -6.648 -24.312  0.00  0.00    -0.003 C 
ATOM     12  C   UNL     1      31.801  -5.322 -22.305  0.00  0.00    -0.003 C 
ATOM     13  C   UNL     1      31.085  -5.530 -24.994  0.00  0.00    +0.014 C 
ATOM     14  C   UNL     1      31.320  -4.205 -22.987  0.00  0.00    +0.014 C 
ATOM     15  C   UNL     1      30.961  -4.309 -24.331  0.00  0.00    +0.042 C 
BRANCH  15  16
ATOM     16  N   UNL     1      30.474  -3.179 -25.021  0.00  0.00    -0.357 N 
ATOM     17  H   UNL     1      30.933  -2.312 -24.930  0.00  0.00    +0.142 HD
ATOM     18  H   UNL     1      29.676  -3.257 -25.591  0.00  0.00    +0.142 HD
ENDBRANCH  15  16
ENDBRANCH   4  10
BRANCH   4  19
ATOM     19  C   UNL     1      31.742  -7.853 -20.848  0.00  0.00    +0.013 C 
ATOM     20  C   UNL     1      32.415  -8.864 -19.943  0.00  0.00    +0.001 C 
ENDBRANCH   4  19
TORSDOF 3
ENDMDL
MODEL 4
REMARK VINA RESULT:      -7.2      8.311     10.415
REMARK  Name = 2145
REMARK  3 active torsions:
REMARK  status: ('A' for Active; 'I' for Inactive)
REMARK    1  A    between atoms: C_4  and  C_10
REMARK    2  A    between atoms: C_4  and  C_19
REMARK    3  A    between atoms: C_15  and  N_16
REMARK                            x       y       z     vdW  Elec       q    Type
REMARK                         _______ _______ _______ _____ _____    ______ ____
ROOT
ATOM      1  O   UNL     1      36.750 -19.124 -20.568  0.00  0.00    -0.274 OA
ATOM      2  O   UNL     1      33.021 -21.395 -19.129  0.00  0.00    -0.275 OA
ATOM      3  N   UNL     1      34.863 -20.246 -19.901  0.00  0.00    -0.255 N 
ATOM      4  C   UNL     1      34.713 -18.670 -21.819  0.00  0.00    +0.088 C 
ATOM      5  C   UNL     1      33.611 -19.658 -22.259  0.00  0.00    +0.022 C 
ATOM      6  C   UNL     1      32.725 -20.059 -21.090  0.00  0.00    +0.086 C 
ATOM      7  C   UNL     1      35.551 -19.365 -20.733  0.00  0.00    +0.231 C 
ATOM      8  C   UNL     1      33.533 -20.645 -19.961  0.00  0.00    +0.228 C 
ATOM      9  H   UNL     1      35.390 -20.638 -19.168  0.00  0.00    +0.158 HD
ENDROOT
BRANCH   4  10
ATOM     10  C   UNL     1      34.134 -17.322 -21.353  0.00  0.00    -0.015 C 
ATOM     11  C   UNL     1      32.763 -17.192 -21.156  0.00  0.00    -0.003 C 
ATOM     12  C   UNL     1      34.986 -16.245 -21.134  0.00  0.00    -0.003 C 
ATOM     13  C   UNL     1      32.239 -15.969 -20.734  0.00  0.00    +0.014 C 
ATOM     14  C   UNL     1      34.462 -15.024 -20.712  0.00  0.00    +0.014 C 
ATOM     15  C   UNL     1      33.088 -14.886 -20.512  0.00  0.00    +0.042 C 
BRANCH  15  16
ATOM     16  N   UNL     1      32.558 -13.650 -20.085  0.00  0.00    -0.357 N 
ATOM     17  H   UNL     1      32.933 -12.808 -20.432  0.00  0.00    +0.142 HD
ATOM     18  H   UNL     1      31.814 -13.630 -19.442  0.00  0.00    +0.142 HD
ENDBRANCH  15  16
ENDBRANCH   4  10
BRANCH   4  19
ATOM     19  C   UNL     1      35.648 -18.412 -23.024  0.00  0.00    +0.013 C 
ATOM     20  C   UNL     1      34.876 -18.424 -24.327  0.00  0.00    +0.001 C 
ENDBRANCH   4  19
TORSDOF 3
ENDMDL
MODEL 5
REMARK VINA RESULT:      -7.2      2.458      4.120
REMARK  Name = 2145
REMARK  3 active torsions:
REMARK  status: ('A' for Active; 'I' for Inactive)
REMARK    1  A    between atoms: C_4  and  C_10
REMARK    2  A    between atoms: C_4  and  C_19
REMARK    3  A    between atoms: C_15  and  N_16
REMARK                            x       y       z     vdW  Elec       q    Type
REMARK                         _______ _______ _______ _____ _____    ______ ____
ROOT
ATOM      1  O   UNL     1      39.760 -24.931 -13.356  0.00  0.00    -0.274 OA
ATOM      2  O   UNL     1      36.999 -22.722 -10.420  0.00  0.00    -0.275 OA
ATOM      3  N   UNL     1      38.337 -23.858 -11.913  0.00  0.00    -0.255 N 
ATOM      4  C   UNL     1      37.392 -25.010 -13.904  0.00  0.00    +0.088 C 
ATOM      5  C   UNL     1      36.187 -25.189 -12.954  0.00  0.00    +0.022 C 
ATOM      6  C   UNL     1      35.898 -23.914 -12.177  0.00  0.00    +0.086 C 
ATOM      7  C   UNL     1      38.607 -24.627 -13.044  0.00  0.00    +0.231 C 
ATOM      8  C   UNL     1      37.107 -23.451 -11.407  0.00  0.00    +0.228 C 
ATOM      9  H   UNL     1      39.124 -23.562 -11.402  0.00  0.00    +0.158 HD
ENDROOT
BRANCH   4  10
ATOM     10  C   UNL     1      37.106 -23.989 -15.020  0.00  0.00    -0.015 C 
ATOM     11  C   UNL     1      35.797 -23.778 -15.443  0.00  0.00    -0.003 C 
ATOM     12  C   UNL     1      38.157 -23.287 -15.598  0.00  0.00    -0.003 C 
ATOM     13  C   UNL     1      35.538 -22.854 -16.455  0.00  0.00    +0.014 C 
ATOM     14  C   UNL     1      37.898 -22.363 -16.609  0.00  0.00    +0.014 C 
ATOM     15  C   UNL     1      36.589 -22.146 -17.037  0.00  0.00    +0.042 C 
BRANCH  15  16
ATOM     16  N   UNL     1      36.327 -21.210 -18.061  0.00  0.00    -0.357 N 
ATOM     17  H   UNL     1      36.994 -20.519 -18.277  0.00  0.00    +0.142 HD
ATOM     18  H   UNL     1      35.479 -21.249 -18.558  0.00  0.00    +0.142 HD
ENDBRANCH  15  16
ENDBRANCH   4  10
BRANCH   4  19
ATOM     19  C   UNL     1      37.706 -26.376 -14.558  0.00  0.00    +0.013 C 
ATOM     20  C   UNL     1      36.507 -26.909 -15.315  0.00  0.00    +0.001 C 
ENDBRANCH   4  19
TORSDOF 3
ENDMDL
MODEL 6
REMARK VINA RESULT:      -7.2     18.826     20.502
REMARK  Name = 2145
REMARK  3 active torsions:
REMARK  status: ('A' for Active; 'I' for Inactive)
REMARK    1  A    between atoms: C_4  and  C_10
REMARK    2  A    between atoms: C_4  and  C_19
REMARK    3  A    between atoms: C_15  and  N_16
REMARK                            x       y       z     vdW  Elec       q    Type
REMARK                         _______ _______ _______ _____ _____    ______ ____
ROOT
ATOM      1  O   UNL     1      30.920  -9.041 -23.090  0.00  0.00    -0.274 OA
ATOM      2  O   UNL     1      35.051 -10.156 -24.770  0.00  0.00    -0.275 OA
ATOM      3  N   UNL     1      33.005  -9.554 -23.897  0.00  0.00    -0.255 N 
ATOM      4  C   UNL     1      32.630  -7.327 -22.857  0.00  0.00    +0.088 C 
ATOM      5  C   UNL     1      34.120  -7.494 -22.487  0.00  0.00    +0.022 C 
ATOM      6  C   UNL     1      34.924  -8.044 -23.655  0.00  0.00    +0.086 C 
ATOM      7  C   UNL     1      32.095  -8.710 -23.263  0.00  0.00    +0.231 C 
ATOM      8  C   UNL     1      34.357  -9.351 -24.148  0.00  0.00    +0.228 C 
ATOM      9  H   UNL     1      32.641 -10.413 -24.212  0.00  0.00    +0.158 HD
ENDROOT
BRANCH   4  10
ATOM     10  C   UNL     1      32.417  -6.262 -23.948  0.00  0.00    -0.015 C 
ATOM     11  C   UNL     1      33.369  -6.102 -24.950  0.00  0.00    -0.003 C 
ATOM     12  C   UNL     1      31.277  -5.468 -23.923  0.00  0.00    -0.003 C 
ATOM     13  C   UNL     1      33.177  -5.136 -25.938  0.00  0.00    +0.014 C 
ATOM     14  C   UNL     1      31.084  -4.502 -24.910  0.00  0.00    +0.014 C 
ATOM     15  C   UNL     1      32.034  -4.337 -25.919  0.00  0.00    +0.042 C 
BRANCH  15  16
ATOM     16  N   UNL     1      31.839  -3.361 -26.918  0.00  0.00    -0.357 N 
ATOM     17  H   UNL     1      31.093  -3.451 -27.554  0.00  0.00    +0.142 HD
ATOM     18  H   UNL     1      32.449  -2.591 -26.980  0.00  0.00    +0.142 HD
ENDBRANCH  15  16
ENDBRANCH   4  10
BRANCH   4  19
ATOM     19  C   UNL     1      31.857  -6.891 -21.590  0.00  0.00    +0.013 C 
ATOM     20  C   UNL     1      32.528  -7.410 -20.335  0.00  0.00    +0.001 C 
ENDBRANCH   4  19
TORSDOF 3
ENDMDL
MODEL 7
REMARK VINA RESULT:      -7.1      2.543      3.788
REMARK  Name = 2145
REMARK  3 active torsions:
REMARK  status: ('A' for Active; 'I' for Inactive)
REMARK    1  A    between atoms: C_4  and  C_10
REMARK    2  A    between atoms: C_4  and  C_19
REMARK    3  A    between atoms: C_15  and  N_16
REMARK                            x       y       z     vdW  Elec       q    Type
REMARK                         _______ _______ _______ _____ _____    ______ ____
ROOT
ATOM      1  O   UNL     1      35.770 -26.466 -15.568  0.00  0.00    -0.274 OA
ATOM      2  O   UNL     1      39.163 -24.557 -13.125  0.00  0.00    -0.275 OA
ATOM      3  N   UNL     1      37.426 -25.472 -14.331  0.00  0.00    -0.255 N 
ATOM      4  C   UNL     1      35.383 -24.165 -14.882  0.00  0.00    +0.088 C 
ATOM      5  C   UNL     1      35.719 -23.491 -13.533  0.00  0.00    +0.022 C 
ATOM      6  C   UNL     1      37.208 -23.209 -13.408  0.00  0.00    +0.086 C 
ATOM      7  C   UNL     1      36.179 -25.478 -14.953  0.00  0.00    +0.231 C 
ATOM      8  C   UNL     1      38.024 -24.463 -13.583  0.00  0.00    +0.228 C 
ATOM      9  H   UNL     1      37.957 -26.294 -14.435  0.00  0.00    +0.158 HD
ENDROOT
BRANCH   4  10
ATOM     10  C   UNL     1      35.656 -23.237 -16.079  0.00  0.00    -0.015 C 
ATOM     11  C   UNL     1      34.684 -23.076 -17.061  0.00  0.00    -0.003 C 
ATOM     12  C   UNL     1      36.872 -22.569 -16.171  0.00  0.00    -0.003 C 
ATOM     13  C   UNL     1      34.931 -22.235 -18.147  0.00  0.00    +0.014 C 
ATOM     14  C   UNL     1      37.119 -21.730 -17.257  0.00  0.00    +0.014 C 
ATOM     15  C   UNL     1      36.148 -21.562 -18.245  0.00  0.00    +0.042 C 
BRANCH  15  16
ATOM     16  N   UNL     1      36.399 -20.712 -19.343  0.00  0.00    -0.357 N 
ATOM     17  H   UNL     1      37.325 -20.480 -19.583  0.00  0.00    +0.142 HD
ATOM     18  H   UNL     1      35.648 -20.352 -19.867  0.00  0.00    +0.142 HD
ENDBRANCH  15  16
ENDBRANCH   4  10
BRANCH   4  19
ATOM     19  C   UNL     1      33.882 -24.538 -14.882  0.00  0.00    +0.013 C 
ATOM     20  C   UNL     1      33.165 -23.918 -13.701  0.00  0.00    +0.001 C 
ENDBRANCH   4  19
TORSDOF 3
ENDMDL
MODEL 8
REMARK VINA RESULT:      -7.1     16.992     19.011
REMARK  Name = 2145
REMARK  3 active torsions:
REMARK  status: ('A' for Active; 'I' for Inactive)
REMARK    1  A    between atoms: C_4  and  C_10
REMARK    2  A    between atoms: C_4  and  C_19
REMARK    3  A    between atoms: C_15  and  N_16
REMARK                            x       y       z     vdW  Elec       q    Type
REMARK                         _______ _______ _______ _____ _____    ______ ____
ROOT
ATOM      1  O   UNL     1      32.975  -7.767 -20.212  0.00  0.00    -0.274 OA
ATOM      2  O   UNL     1      30.715  -5.239 -23.315  0.00  0.00    -0.275 OA
ATOM      3  N   UNL     1      31.820  -6.554 -21.779  0.00  0.00    -0.255 N 
ATOM      4  C   UNL     1      31.979  -9.022 -22.043  0.00  0.00    +0.088 C 
ATOM      5  C   UNL     1      30.605  -8.816 -22.718  0.00  0.00    +0.022 C 
ATOM      6  C   UNL     1      30.615  -7.606 -23.639  0.00  0.00    +0.086 C 
ATOM      7  C   UNL     1      32.296  -7.748 -21.241  0.00  0.00    +0.231 C 
ATOM      8  C   UNL     1      31.029  -6.357 -22.905  0.00  0.00    +0.228 C 
ATOM      9  H   UNL     1      32.080  -5.736 -21.296  0.00  0.00    +0.158 HD
ENDROOT
BRANCH   4  10
ATOM     10  C   UNL     1      33.080  -9.376 -23.058  0.00  0.00    -0.015 C 
ATOM     11  C   UNL     1      34.061  -8.439 -23.366  0.00  0.00    -0.003 C 
ATOM     12  C   UNL     1      33.083 -10.628 -23.662  0.00  0.00    -0.003 C 
ATOM     13  C   UNL     1      35.059  -8.760 -24.288  0.00  0.00    +0.014 C 
ATOM     14  C   UNL     1      34.080 -10.949 -24.583  0.00  0.00    +0.014 C 
ATOM     15  C   UNL     1      35.068 -10.015 -24.895  0.00  0.00    +0.042 C 
BRANCH  15  16
ATOM     16  N   UNL     1      36.076 -10.340 -25.827  0.00  0.00    -0.357 N 
ATOM     17  H   UNL     1      36.408  -9.654 -26.451  0.00  0.00    +0.142 HD
ATOM     18  H   UNL     1      36.448 -11.250 -25.853  0.00  0.00    +0.142 HD
ENDBRANCH  15  16
ENDBRANCH   4  10
BRANCH   4  19
ATOM     19  C   UNL     1      31.857 -10.183 -21.028  0.00  0.00    +0.013 C 
ATOM     20  C   UNL     1      30.661 -11.058 -21.341  0.00  0.00    +0.001 C 
ENDBRANCH   4  19
TORSDOF 3
ENDMDL
MODEL 9
REMARK VINA RESULT:      -6.9      2.561      3.155
REMARK  Name = 2145
REMARK  3 active torsions:
REMARK  status: ('A' for Active; 'I' for Inactive)
REMARK    1  A    between atoms: C_4  and  C_10
REMARK    2  A    between atoms: C_4  and  C_19
REMARK    3  A    between atoms: C_15  and  N_16
REMARK                            x       y       z     vdW  Elec       q    Type
REMARK                         _______ _______ _______ _____ _____    ______ ____
ROOT
ATOM      1  O   UNL     1      33.880 -24.812 -14.259  0.00  0.00    -0.274 OA
ATOM      2  O   UNL     1      37.022 -27.767 -15.846  0.00  0.00    -0.275 OA
ATOM      3  N   UNL     1      35.490 -26.253 -15.030  0.00  0.00    -0.255 N 
ATOM      4  C   UNL     1      36.142 -23.932 -14.419  0.00  0.00    +0.088 C 
ATOM      5  C   UNL     1      37.476 -24.632 -14.078  0.00  0.00    +0.022 C 
ATOM      6  C   UNL     1      37.863 -25.640 -15.148  0.00  0.00    +0.086 C 
ATOM      7  C   UNL     1      35.064 -25.022 -14.535  0.00  0.00    +0.231 C 
ATOM      8  C   UNL     1      36.777 -26.661 -15.363  0.00  0.00    +0.228 C 
ATOM      9  H   UNL     1      34.784 -26.926 -15.162  0.00  0.00    +0.158 HD
ENDROOT
BRANCH   4  10
ATOM     10  C   UNL     1      36.248 -23.062 -15.684  0.00  0.00    -0.015 C 
ATOM     11  C   UNL     1      37.365 -22.254 -15.873  0.00  0.00    -0.003 C 
ATOM     12  C   UNL     1      35.227 -23.088 -16.627  0.00  0.00    -0.003 C 
ATOM     13  C   UNL     1      37.460 -21.464 -17.019  0.00  0.00    +0.014 C 
ATOM     14  C   UNL     1      35.322 -22.299 -17.772  0.00  0.00    +0.014 C 
ATOM     15  C   UNL     1      36.440 -21.488 -17.969  0.00  0.00    +0.042 C 
BRANCH  15  16
ATOM     16  N   UNL     1      36.537 -20.689 -19.128  0.00  0.00    -0.357 N 
ATOM     17  H   UNL     1      36.241 -19.750 -19.104  0.00  0.00    +0.142 HD
ATOM     18  H   UNL     1      36.899 -21.071 -19.960  0.00  0.00    +0.142 HD
ENDBRANCH  15  16
ENDBRANCH   4  10
BRANCH   4  19
ATOM     19  C   UNL     1      35.748 -23.023 -13.230  0.00  0.00    +0.013 C 
ATOM     20  C   UNL     1      36.369 -23.514 -11.938  0.00  0.00    +0.001 C 
ENDBRANCH   4  19
TORSDOF 3
ENDMDL
