MODEL 1
REMARK VINA RESULT:      -9.3      0.000      0.000
REMARK  Name = 168131
REMARK  0 active torsions:
REMARK  status: ('A' for Active; 'I' for Inactive)
REMARK                            x       y       z     vdW  Elec       q    Type
REMARK                         _______ _______ _______ _____ _____    ______ ____
ROOT
ATOM      1  N   UNL     1      31.874 -10.041 -21.362  0.00  0.00    -0.298 N 
ATOM      2  N   UNL     1      32.232 -12.505 -22.574  0.00  0.00    -0.247 NA
ATOM      3  C   UNL     1      32.693 -10.163 -22.428  0.00  0.00    +0.136 C 
ATOM      4  C   UNL     1      33.354  -9.001 -22.898  0.00  0.00    -0.003 C 
ATOM      5  C   UNL     1      34.206  -9.106 -24.000  0.00  0.00    -0.028 C 
ATOM      6  C   UNL     1      33.738 -11.486 -24.149  0.00  0.00    +0.011 C 
ATOM      7  C   UNL     1      32.871 -11.411 -23.038  0.00  0.00    +0.081 C 
ATOM      8  C   UNL     1      34.396 -10.338 -24.620  0.00  0.00    -0.025 C 
ATOM      9  C   UNL     1      33.132  -7.782 -22.244  0.00  0.00    -0.006 C 
ATOM     10  C   UNL     1      32.276  -7.721 -21.151  0.00  0.00    -0.008 C 
ATOM     11  C   UNL     1      31.654  -8.882 -20.728  0.00  0.00    +0.057 C 
ATOM     12  C   UNL     1      33.922 -12.731 -24.765  0.00  0.00    -0.002 C 
ATOM     13  C   UNL     1      34.928  -7.906 -24.536  0.00  0.00    +0.030 C 
ATOM     14  C   UNL     1      35.319 -10.410 -25.800  0.00  0.00    +0.031 C 
ATOM     15  C   UNL     1      33.264 -13.854 -24.285  0.00  0.00    -0.003 C 
ATOM     16  C   UNL     1      31.126 -11.161 -20.770  0.00  0.00    +0.113 C 
ATOM     17  C   UNL     1      32.436 -13.688 -23.195  0.00  0.00    +0.094 C 
ATOM     18  C   UNL     1      32.033  -6.432 -20.446  0.00  0.00    +0.032 C 
ATOM     19  C   UNL     1      33.444 -15.185 -24.923  0.00  0.00    +0.033 C 
ENDROOT
TORSDOF 0
ENDMDL
MODEL 2
REMARK VINA RESULT:      -9.2      4.313      7.579
REMARK  Name = 168131
REMARK  0 active torsions:
REMARK  status: ('A' for Active; 'I' for Inactive)
REMARK                            x       y       z     vdW  Elec       q    Type
REMARK                         _______ _______ _______ _____ _____    ______ ____
ROOT
ATOM      1  N   UNL     1      34.656 -18.217 -23.837  0.00  0.00    -0.298 N 
ATOM      2  N   UNL     1      33.840 -16.313 -25.675  0.00  0.00    -0.247 NA
ATOM      3  C   UNL     1      34.336 -16.971 -23.429  0.00  0.00    +0.136 C 
ATOM      4  C   UNL     1      34.430 -16.676 -22.047  0.00  0.00    -0.003 C 
ATOM      5  C   UNL     1      34.103 -15.392 -21.604  0.00  0.00    -0.028 C 
ATOM      6  C   UNL     1      33.599 -14.723 -23.886  0.00  0.00    +0.011 C 
ATOM      7  C   UNL     1      33.924 -16.011 -24.362  0.00  0.00    +0.081 C 
ATOM      8  C   UNL     1      33.691 -14.424 -22.516  0.00  0.00    -0.025 C 
ATOM      9  C   UNL     1      34.849 -17.682 -21.165  0.00  0.00    -0.006 C 
ATOM     10  C   UNL     1      35.166 -18.946 -21.648  0.00  0.00    -0.008 C 
ATOM     11  C   UNL     1      35.058 -19.186 -23.005  0.00  0.00    +0.057 C 
ATOM     12  C   UNL     1      33.186 -13.756 -24.811  0.00  0.00    -0.002 C 
ATOM     13  C   UNL     1      34.187 -15.030 -20.151  0.00  0.00    +0.030 C 
ATOM     14  C   UNL     1      33.348 -13.057 -22.002  0.00  0.00    +0.031 C 
ATOM     15  C   UNL     1      33.102 -14.069 -26.160  0.00  0.00    -0.003 C 
ATOM     16  C   UNL     1      34.604 -18.660 -25.239  0.00  0.00    +0.113 C 
ATOM     17  C   UNL     1      33.438 -15.352 -26.537  0.00  0.00    +0.094 C 
ATOM     18  C   UNL     1      35.612 -20.023 -20.721  0.00  0.00    +0.032 C 
ATOM     19  C   UNL     1      32.666 -13.060 -27.161  0.00  0.00    +0.033 C 
ENDROOT
TORSDOF 0
ENDMDL
MODEL 3
REMARK VINA RESULT:      -9.2     12.655     15.515
REMARK  Name = 168131
REMARK  0 active torsions:
REMARK  status: ('A' for Active; 'I' for Inactive)
REMARK                            x       y       z     vdW  Elec       q    Type
REMARK                         _______ _______ _______ _____ _____    ______ ____
ROOT
ATOM      1  N   UNL     1      36.752 -23.353 -15.202  0.00  0.00    -0.298 N 
ATOM      2  N   UNL     1      35.729 -22.347 -17.570  0.00  0.00    -0.247 NA
ATOM      3  C   UNL     1      35.425 -23.406 -15.448  0.00  0.00    +0.136 C 
ATOM      4  C   UNL     1      34.587 -23.987 -14.464  0.00  0.00    -0.003 C 
ATOM      5  C   UNL     1      33.211 -24.051 -14.700  0.00  0.00    -0.028 C 
ATOM      6  C   UNL     1      33.519 -22.975 -16.857  0.00  0.00    +0.011 C 
ATOM      7  C   UNL     1      34.912 -22.896 -16.647  0.00  0.00    +0.081 C 
ATOM      8  C   UNL     1      32.683 -23.550 -15.886  0.00  0.00    -0.025 C 
ATOM      9  C   UNL     1      35.163 -24.479 -13.286  0.00  0.00    -0.006 C 
ATOM     10  C   UNL     1      36.537 -24.395 -13.092  0.00  0.00    -0.008 C 
ATOM     11  C   UNL     1      37.314 -23.819 -14.080  0.00  0.00    +0.057 C 
ATOM     12  C   UNL     1      32.997 -22.467 -18.053  0.00  0.00    -0.002 C 
ATOM     13  C   UNL     1      32.282 -24.657 -13.690  0.00  0.00    +0.030 C 
ATOM     14  C   UNL     1      31.200 -23.637 -16.101  0.00  0.00    +0.031 C 
ATOM     15  C   UNL     1      33.839 -21.903 -19.001  0.00  0.00    -0.003 C 
ATOM     16  C   UNL     1      37.735 -22.779 -16.132  0.00  0.00    +0.113 C 
ATOM     17  C   UNL     1      35.187 -21.867 -18.713  0.00  0.00    +0.094 C 
ATOM     18  C   UNL     1      37.161 -24.914 -11.844  0.00  0.00    +0.032 C 
ATOM     19  C   UNL     1      33.308 -21.358 -20.278  0.00  0.00    +0.033 C 
ENDROOT
TORSDOF 0
ENDMDL
MODEL 4
REMARK VINA RESULT:      -9.0      0.447      4.995
REMARK  Name = 168131
REMARK  0 active torsions:
REMARK  status: ('A' for Active; 'I' for Inactive)
REMARK                            x       y       z     vdW  Elec       q    Type
REMARK                         _______ _______ _______ _____ _____    ______ ____
ROOT
ATOM      1  N   UNL     1      32.266 -12.137 -22.460  0.00  0.00    -0.298 N 
ATOM      2  N   UNL     1      31.821  -9.630 -21.372  0.00  0.00    -0.247 NA
ATOM      3  C   UNL     1      32.892 -11.054 -22.968  0.00  0.00    +0.136 C 
ATOM      4  C   UNL     1      33.772 -11.244 -24.061  0.00  0.00    -0.003 C 
ATOM      5  C   UNL     1      34.429 -10.135 -24.601  0.00  0.00    -0.028 C 
ATOM      6  C   UNL     1      33.341  -8.687 -22.981  0.00  0.00    +0.011 C 
ATOM      7  C   UNL     1      32.664  -9.788 -22.414  0.00  0.00    +0.081 C 
ATOM      8  C   UNL     1      34.215  -8.868 -24.065  0.00  0.00    -0.025 C 
ATOM      9  C   UNL     1      33.956 -12.537 -24.568  0.00  0.00    -0.006 C 
ATOM     10  C   UNL     1      33.283 -13.612 -24.002  0.00  0.00    -0.008 C 
ATOM     11  C   UNL     1      32.434 -13.377 -22.935  0.00  0.00    +0.057 C 
ATOM     12  C   UNL     1      33.119  -7.417 -22.434  0.00  0.00    -0.002 C 
ATOM     13  C   UNL     1      35.371 -10.283 -25.759  0.00  0.00    +0.030 C 
ATOM     14  C   UNL     1      34.940  -7.703 -24.672  0.00  0.00    +0.031 C 
ATOM     15  C   UNL     1      32.252  -7.257 -21.362  0.00  0.00    -0.003 C 
ATOM     16  C   UNL     1      31.328 -12.087 -21.328  0.00  0.00    +0.113 C 
ATOM     17  C   UNL     1      31.633  -8.387 -20.873  0.00  0.00    +0.094 C 
ATOM     18  C   UNL     1      33.470 -14.991 -24.531  0.00  0.00    +0.032 C 
ATOM     19  C   UNL     1      32.001  -5.919 -20.766  0.00  0.00    +0.033 C 
ENDROOT
TORSDOF 0
ENDMDL
MODEL 5
REMARK VINA RESULT:      -8.9     12.803     15.651
REMARK  Name = 168131
REMARK  0 active torsions:
REMARK  status: ('A' for Active; 'I' for Inactive)
REMARK                            x       y       z     vdW  Elec       q    Type
REMARK                         _______ _______ _______ _____ _____    ______ ____
ROOT
ATOM      1  N   UNL     1      36.259 -22.376 -16.750  0.00  0.00    -0.298 N 
ATOM      2  N   UNL     1      36.558 -23.186 -14.119  0.00  0.00    -0.247 NA
ATOM      3  C   UNL     1      35.202 -22.861 -16.063  0.00  0.00    +0.136 C 
ATOM      4  C   UNL     1      33.954 -22.940 -16.727  0.00  0.00    -0.003 C 
ATOM      5  C   UNL     1      32.848 -23.439 -16.033  0.00  0.00    -0.028 C 
ATOM      6  C   UNL     1      34.225 -23.769 -14.057  0.00  0.00    +0.011 C 
ATOM      7  C   UNL     1      35.359 -23.269 -14.732  0.00  0.00    +0.081 C 
ATOM      8  C   UNL     1      32.984 -23.850 -14.709  0.00  0.00    -0.025 C 
ATOM      9  C   UNL     1      33.865 -22.515 -18.059  0.00  0.00    -0.006 C 
ATOM     10  C   UNL     1      34.989 -22.025 -18.712  0.00  0.00    -0.008 C 
ATOM     11  C   UNL     1      36.187 -21.967 -18.023  0.00  0.00    +0.057 C 
ATOM     12  C   UNL     1      34.371 -24.180 -12.726  0.00  0.00    -0.002 C 
ATOM     13  C   UNL     1      31.505 -23.542 -16.690  0.00  0.00    +0.030 C 
ATOM     14  C   UNL     1      31.773 -24.380 -13.998  0.00  0.00    +0.031 C 
ATOM     15  C   UNL     1      35.605 -24.093 -12.097  0.00  0.00    -0.003 C 
ATOM     16  C   UNL     1      37.610 -22.239 -16.187  0.00  0.00    +0.113 C 
ATOM     17  C   UNL     1      36.659 -23.592 -12.833  0.00  0.00    +0.094 C 
ATOM     18  C   UNL     1      34.908 -21.570 -20.128  0.00  0.00    +0.032 C 
ATOM     19  C   UNL     1      35.785 -24.522 -10.686  0.00  0.00    +0.033 C 
ENDROOT
TORSDOF 0
ENDMDL
MODEL 6
REMARK VINA RESULT:      -8.7     13.458     15.727
REMARK  Name = 168131
REMARK  0 active torsions:
REMARK  status: ('A' for Active; 'I' for Inactive)
REMARK                            x       y       z     vdW  Elec       q    Type
REMARK                         _______ _______ _______ _____ _____    ______ ____
ROOT
ATOM      1  N   UNL     1      31.172 -24.101 -14.349  0.00  0.00    -0.298 N 
ATOM      2  N   UNL     1      33.612 -24.273 -13.050  0.00  0.00    -0.247 NA
ATOM      3  C   UNL     1      32.308 -23.744 -14.985  0.00  0.00    +0.136 C 
ATOM      4  C   UNL     1      32.209 -23.285 -16.321  0.00  0.00    -0.003 C 
ATOM      5  C   UNL     1      33.374 -22.910 -16.996  0.00  0.00    -0.028 C 
ATOM      6  C   UNL     1      34.699 -23.448 -15.031  0.00  0.00    +0.011 C 
ATOM      7  C   UNL     1      33.540 -23.833 -14.324  0.00  0.00    +0.081 C 
ATOM      8  C   UNL     1      34.608 -22.991 -16.356  0.00  0.00    -0.025 C 
ATOM      9  C   UNL     1      30.947 -23.219 -16.925  0.00  0.00    -0.006 C 
ATOM     10  C   UNL     1      29.813 -23.601 -16.217  0.00  0.00    -0.008 C 
ATOM     11  C   UNL     1      29.960 -24.043 -14.915  0.00  0.00    +0.057 C 
ATOM     12  C   UNL     1      35.935 -23.533 -14.378  0.00  0.00    -0.002 C 
ATOM     13  C   UNL     1      33.323 -22.417 -18.411  0.00  0.00    +0.030 C 
ATOM     14  C   UNL     1      35.835 -22.580 -17.114  0.00  0.00    +0.031 C 
ATOM     15  C   UNL     1      36.006 -23.987 -13.068  0.00  0.00    -0.003 C 
ATOM     16  C   UNL     1      31.127 -24.594 -12.964  0.00  0.00    +0.113 C 
ATOM     17  C   UNL     1      34.823 -24.341 -12.454  0.00  0.00    +0.094 C 
ATOM     18  C   UNL     1      28.466 -23.537 -16.848  0.00  0.00    +0.032 C 
ATOM     19  C   UNL     1      37.306 -24.086 -12.355  0.00  0.00    +0.033 C 
ENDROOT
TORSDOF 0
ENDMDL
MODEL 7
REMARK VINA RESULT:      -8.6      1.659      6.133
REMARK  Name = 168131
REMARK  0 active torsions:
REMARK  status: ('A' for Active; 'I' for Inactive)
REMARK                            x       y       z     vdW  Elec       q    Type
REMARK                         _______ _______ _______ _____ _____    ______ ____
ROOT
ATOM      1  N   UNL     1      33.548 -12.805 -24.693  0.00  0.00    -0.298 N 
ATOM      2  N   UNL     1      32.855 -10.203 -24.047  0.00  0.00    -0.247 NA
ATOM      3  C   UNL     1      33.062 -12.514 -23.467  0.00  0.00    +0.136 C 
ATOM      4  C   UNL     1      32.922 -13.573 -22.537  0.00  0.00    -0.003 C 
ATOM      5  C   UNL     1      32.421 -13.293 -21.263  0.00  0.00    -0.028 C 
ATOM      6  C   UNL     1      32.210 -10.944 -21.851  0.00  0.00    +0.011 C 
ATOM      7  C   UNL     1      32.713 -11.197 -23.145  0.00  0.00    +0.081 C 
ATOM      8  C   UNL     1      32.068 -11.989 -20.924  0.00  0.00    -0.025 C 
ATOM      9  C   UNL     1      33.289 -14.869 -22.922  0.00  0.00    -0.006 C 
ATOM     10  C   UNL     1      33.783 -15.105 -24.199  0.00  0.00    -0.008 C 
ATOM     11  C   UNL     1      33.903 -14.039 -25.073  0.00  0.00    +0.057 C 
ATOM     12  C   UNL     1      31.859  -9.629 -21.520  0.00  0.00    -0.002 C 
ATOM     13  C   UNL     1      32.253 -14.378 -20.242  0.00  0.00    +0.030 C 
ATOM     14  C   UNL     1      31.534 -11.729 -19.546  0.00  0.00    +0.031 C 
ATOM     15  C   UNL     1      32.006  -8.609 -22.449  0.00  0.00    -0.003 C 
ATOM     16  C   UNL     1      33.746 -11.807 -25.755  0.00  0.00    +0.113 C 
ATOM     17  C   UNL     1      32.505  -8.947 -23.689  0.00  0.00    +0.094 C 
ATOM     18  C   UNL     1      34.177 -16.477 -24.621  0.00  0.00    +0.032 C 
ATOM     19  C   UNL     1      31.639  -7.207 -22.120  0.00  0.00    +0.033 C 
ENDROOT
TORSDOF 0
ENDMDL
MODEL 8
REMARK VINA RESULT:      -8.5      3.250      6.166
REMARK  Name = 168131
REMARK  0 active torsions:
REMARK  status: ('A' for Active; 'I' for Inactive)
REMARK                            x       y       z     vdW  Elec       q    Type
REMARK                         _______ _______ _______ _____ _____    ______ ____
ROOT
ATOM      1  N   UNL     1      33.487 -14.271 -25.090  0.00  0.00    -0.298 N 
ATOM      2  N   UNL     1      34.010 -16.950 -25.558  0.00  0.00    -0.247 NA
ATOM      3  C   UNL     1      33.904 -15.069 -24.083  0.00  0.00    +0.136 C 
ATOM      4  C   UNL     1      34.063 -14.495 -22.798  0.00  0.00    -0.003 C 
ATOM      5  C   UNL     1      34.493 -15.305 -21.744  0.00  0.00    -0.028 C 
ATOM      6  C   UNL     1      34.600 -17.216 -23.241  0.00  0.00    +0.011 C 
ATOM      7  C   UNL     1      34.167 -16.423 -24.325  0.00  0.00    +0.081 C 
ATOM      8  C   UNL     1      34.759 -16.653 -21.964  0.00  0.00    -0.025 C 
ATOM      9  C   UNL     1      33.783 -13.134 -22.623  0.00  0.00    -0.006 C 
ATOM     10  C   UNL     1      33.357 -12.364 -23.699  0.00  0.00    -0.008 C 
ATOM     11  C   UNL     1      33.217 -12.969 -24.935  0.00  0.00    +0.057 C 
ATOM     12  C   UNL     1      34.866 -18.572 -23.473  0.00  0.00    -0.002 C 
ATOM     13  C   UNL     1      34.676 -14.745 -20.365  0.00  0.00    +0.030 C 
ATOM     14  C   UNL     1      35.220 -17.490 -20.806  0.00  0.00    +0.031 C 
ATOM     15  C   UNL     1      34.703 -19.110 -24.741  0.00  0.00    -0.003 C 
ATOM     16  C   UNL     1      33.281 -14.732 -26.470  0.00  0.00    +0.113 C 
ATOM     17  C   UNL     1      34.276 -18.263 -25.741  0.00  0.00    +0.094 C 
ATOM     18  C   UNL     1      33.056 -10.916 -23.526  0.00  0.00    +0.032 C 
ATOM     19  C   UNL     1      34.978 -20.546 -25.011  0.00  0.00    +0.033 C 
ENDROOT
TORSDOF 0
ENDMDL
MODEL 9
REMARK VINA RESULT:      -8.1     11.783     14.643
REMARK  Name = 168131
REMARK  0 active torsions:
REMARK  status: ('A' for Active; 'I' for Inactive)
REMARK                            x       y       z     vdW  Elec       q    Type
REMARK                         _______ _______ _______ _____ _____    ______ ____
ROOT
ATOM      1  N   UNL     1      34.036 -21.999 -18.545  0.00  0.00    -0.298 N 
ATOM      2  N   UNL     1      32.283 -23.179 -16.756  0.00  0.00    -0.247 NA
ATOM      3  C   UNL     1      34.495 -22.527 -17.390  0.00  0.00    +0.136 C 
ATOM      4  C   UNL     1      35.885 -22.456 -17.130  0.00  0.00    -0.003 C 
ATOM      5  C   UNL     1      36.380 -22.997 -15.940  0.00  0.00    -0.028 C 
ATOM      6  C   UNL     1      34.132 -23.660 -15.295  0.00  0.00    +0.011 C 
ATOM      7  C   UNL     1      33.604 -23.123 -16.489  0.00  0.00    +0.081 C 
ATOM      8  C   UNL     1      35.510 -23.594 -15.031  0.00  0.00    -0.025 C 
ATOM      9  C   UNL     1      36.723 -21.847 -18.073  0.00  0.00    -0.006 C 
ATOM     10  C   UNL     1      36.190 -21.321 -19.244  0.00  0.00    -0.008 C 
ATOM     11  C   UNL     1      34.826 -21.414 -19.454  0.00  0.00    +0.057 C 
ATOM     12  C   UNL     1      33.248 -24.258 -14.388  0.00  0.00    -0.002 C 
ATOM     13  C   UNL     1      37.843 -22.948 -15.617  0.00  0.00    +0.030 C 
ATOM     14  C   UNL     1      36.079 -24.163 -13.765  0.00  0.00    +0.031 C 
ATOM     15  C   UNL     1      31.890 -24.315 -14.666  0.00  0.00    -0.003 C 
ATOM     16  C   UNL     1      32.621 -22.002 -18.943  0.00  0.00    +0.113 C 
ATOM     17  C   UNL     1      31.462 -23.765 -15.855  0.00  0.00    +0.094 C 
ATOM     18  C   UNL     1      37.069 -20.671 -20.254  0.00  0.00    +0.032 C 
ATOM     19  C   UNL     1      30.934 -24.945 -13.718  0.00  0.00    +0.033 C 
ENDROOT
TORSDOF 0
ENDMDL
