MODEL 1
REMARK VINA RESULT:      -9.8      0.000      0.000
REMARK  Name = 3902
REMARK  5 active torsions:
REMARK  status: ('A' for Active; 'I' for Inactive)
REMARK    1  A    between atoms: C_1  and  C_2
REMARK    2  A    between atoms: C_1  and  C_10
REMARK    3  A    between atoms: C_1  and  N_18
REMARK    4  A    between atoms: C_7  and  C_9
REMARK    5  A    between atoms: C_15  and  C_17
REMARK                            x       y       z     vdW  Elec       q    Type
REMARK                         _______ _______ _______ _____ _____    ______ ____
ROOT
ATOM      1  C   UNL     1      34.840 -17.881 -21.936  0.00  0.00    +0.142 C 
ENDROOT
BRANCH   1   2
ATOM      2  C   UNL     1      34.579 -19.107 -21.128  0.00  0.00    +0.002 C 
ATOM      3  C   UNL     1      33.268 -19.507 -20.871  0.00  0.00    -0.002 C 
ATOM      4  C   UNL     1      35.646 -19.856 -20.632  0.00  0.00    -0.002 C 
ATOM      5  C   UNL     1      33.025 -20.655 -20.117  0.00  0.00    +0.010 C 
ATOM      6  C   UNL     1      35.403 -21.003 -19.878  0.00  0.00    +0.010 C 
ATOM      7  C   UNL     1      34.091 -21.403 -19.620  0.00  0.00    +0.068 C 
BRANCH   7   9
ATOM      8  N   UNL     1      33.641 -23.536 -18.221  0.00  0.00    -0.191 NA
ATOM      9  C   UNL     1      33.842 -22.580 -18.848  0.00  0.00    +0.100 C 
ENDBRANCH   7   9
ENDBRANCH   1   2
BRANCH   1  10
ATOM     10  C   UNL     1      34.145 -16.580 -21.495  0.00  0.00    +0.002 C 
ATOM     11  C   UNL     1      32.830 -16.644 -21.111  0.00  0.00    -0.002 C 
ATOM     12  C   UNL     1      34.875 -15.419 -21.505  0.00  0.00    -0.002 C 
ATOM     13  C   UNL     1      32.201 -15.465 -20.710  0.00  0.00    +0.010 C 
ATOM     14  C   UNL     1      34.246 -14.240 -21.103  0.00  0.00    +0.010 C 
ATOM     15  C   UNL     1      32.909 -14.263 -20.707  0.00  0.00    +0.068 C 
BRANCH  15  17
ATOM     16  N   UNL     1      31.741 -12.075 -19.960  0.00  0.00    -0.191 NA
ATOM     17  C   UNL     1      32.265 -13.056 -20.295  0.00  0.00    +0.100 C 
ENDBRANCH  15  17
ENDBRANCH   1  10
BRANCH   1  18
ATOM     18  N   UNL     1      34.714 -18.092 -23.414  0.00  0.00    -0.184 N 
ATOM     19  N   UNL     1      34.695 -19.321 -23.876  0.00  0.00    -0.153 NA
ATOM     20  N   UNL     1      34.524 -17.723 -25.504  0.00  0.00    -0.203 NA
ATOM     21  C   UNL     1      34.618 -17.141 -24.331  0.00  0.00    +0.186 C 
ATOM     22  C   UNL     1      34.576 -19.048 -25.177  0.00  0.00    +0.218 C 
ENDBRANCH   1  18
TORSDOF 5
ENDMDL
MODEL 2
REMARK VINA RESULT:      -9.8      0.037      1.031
REMARK  Name = 3902
REMARK  5 active torsions:
REMARK  status: ('A' for Active; 'I' for Inactive)
REMARK    1  A    between atoms: C_1  and  C_2
REMARK    2  A    between atoms: C_1  and  C_10
REMARK    3  A    between atoms: C_1  and  N_18
REMARK    4  A    between atoms: C_7  and  C_9
REMARK    5  A    between atoms: C_15  and  C_17
REMARK                            x       y       z     vdW  Elec       q    Type
REMARK                         _______ _______ _______ _____ _____    ______ ____
ROOT
ATOM      1  C   UNL     1      34.834 -17.858 -21.957  0.00  0.00    +0.142 C 
ENDROOT
BRANCH   1   2
ATOM      2  C   UNL     1      34.575 -19.084 -21.149  0.00  0.00    +0.002 C 
ATOM      3  C   UNL     1      33.264 -19.487 -20.894  0.00  0.00    -0.002 C 
ATOM      4  C   UNL     1      35.643 -19.829 -20.649  0.00  0.00    -0.002 C 
ATOM      5  C   UNL     1      33.022 -20.634 -20.139  0.00  0.00    +0.010 C 
ATOM      6  C   UNL     1      35.400 -20.977 -19.895  0.00  0.00    +0.010 C 
ATOM      7  C   UNL     1      34.089 -21.379 -19.639  0.00  0.00    +0.068 C 
BRANCH   7   9
ATOM      8  N   UNL     1      33.640 -23.513 -18.240  0.00  0.00    -0.191 NA
ATOM      9  C   UNL     1      33.841 -22.556 -18.867  0.00  0.00    +0.100 C 
ENDBRANCH   7   9
ENDBRANCH   1   2
BRANCH   1  10
ATOM     10  C   UNL     1      34.141 -16.557 -21.514  0.00  0.00    +0.002 C 
ATOM     11  C   UNL     1      34.858 -15.389 -21.562  0.00  0.00    -0.002 C 
ATOM     12  C   UNL     1      32.837 -16.627 -21.094  0.00  0.00    -0.002 C 
ATOM     13  C   UNL     1      34.229 -14.210 -21.162  0.00  0.00    +0.010 C 
ATOM     14  C   UNL     1      32.208 -15.448 -20.694  0.00  0.00    +0.010 C 
ATOM     15  C   UNL     1      32.904 -14.240 -20.727  0.00  0.00    +0.068 C 
BRANCH  15  17
ATOM     16  N   UNL     1      31.735 -12.050 -19.986  0.00  0.00    -0.191 NA
ATOM     17  C   UNL     1      32.259 -13.032 -20.318  0.00  0.00    +0.100 C 
ENDBRANCH  15  17
ENDBRANCH   1  10
BRANCH   1  18
ATOM     18  N   UNL     1      34.704 -18.069 -23.435  0.00  0.00    -0.184 N 
ATOM     19  N   UNL     1      34.696 -19.297 -23.898  0.00  0.00    -0.153 NA
ATOM     20  N   UNL     1      34.501 -17.700 -25.523  0.00  0.00    -0.203 NA
ATOM     21  C   UNL     1      34.594 -17.117 -24.350  0.00  0.00    +0.186 C 
ATOM     22  C   UNL     1      34.568 -19.025 -25.198  0.00  0.00    +0.218 C 
ENDBRANCH   1  18
TORSDOF 5
ENDMDL
MODEL 3
REMARK VINA RESULT:      -8.6      5.355      9.093
REMARK  Name = 3902
REMARK  5 active torsions:
REMARK  status: ('A' for Active; 'I' for Inactive)
REMARK    1  A    between atoms: C_1  and  C_2
REMARK    2  A    between atoms: C_1  and  C_10
REMARK    3  A    between atoms: C_1  and  N_18
REMARK    4  A    between atoms: C_7  and  C_9
REMARK    5  A    between atoms: C_15  and  C_17
REMARK                            x       y       z     vdW  Elec       q    Type
REMARK                         _______ _______ _______ _____ _____    ______ ____
ROOT
ATOM      1  C   UNL     1      35.016 -23.570 -15.122  0.00  0.00    +0.142 C 
ENDROOT
BRANCH   1   2
ATOM      2  C   UNL     1      33.568 -23.909 -15.007  0.00  0.00    +0.002 C 
ATOM      3  C   UNL     1      32.658 -23.405 -15.935  0.00  0.00    -0.002 C 
ATOM      4  C   UNL     1      33.125 -24.732 -13.971  0.00  0.00    -0.002 C 
ATOM      5  C   UNL     1      31.303 -23.723 -15.827  0.00  0.00    +0.010 C 
ATOM      6  C   UNL     1      31.772 -25.050 -13.864  0.00  0.00    +0.010 C 
ATOM      7  C   UNL     1      30.860 -24.545 -14.792  0.00  0.00    +0.068 C 
BRANCH   7   9
ATOM      8  N   UNL     1      28.346 -25.140 -14.593  0.00  0.00    -0.191 NA
ATOM      9  C   UNL     1      29.474 -24.873 -14.682  0.00  0.00    +0.100 C 
ENDBRANCH   7   9
ENDBRANCH   1   2
BRANCH   1  10
ATOM     10  C   UNL     1      35.464 -22.790 -16.372  0.00  0.00    +0.002 C 
ATOM     11  C   UNL     1      34.660 -22.824 -17.482  0.00  0.00    -0.002 C 
ATOM     12  C   UNL     1      36.646 -22.096 -16.314  0.00  0.00    -0.002 C 
ATOM     13  C   UNL     1      35.066 -22.116 -18.614  0.00  0.00    +0.010 C 
ATOM     14  C   UNL     1      37.052 -21.388 -17.445  0.00  0.00    +0.010 C 
ATOM     15  C   UNL     1      36.262 -21.398 -18.595  0.00  0.00    +0.068 C 
BRANCH  15  17
ATOM     16  N   UNL     1      37.015 -20.081 -20.695  0.00  0.00    -0.191 NA
ATOM     17  C   UNL     1      36.677 -20.672 -19.753  0.00  0.00    +0.100 C 
ENDBRANCH  15  17
ENDBRANCH   1  10
BRANCH   1  18
ATOM     18  N   UNL     1      35.931 -24.724 -14.843  0.00  0.00    -0.184 N 
ATOM     19  N   UNL     1      35.928 -25.746 -15.667  0.00  0.00    -0.153 NA
ATOM     20  N   UNL     1      37.391 -25.974 -13.923  0.00  0.00    -0.203 NA
ATOM     21  C   UNL     1      36.767 -24.823 -13.820  0.00  0.00    +0.186 C 
ATOM     22  C   UNL     1      36.847 -26.500 -15.060  0.00  0.00    +0.218 C 
ENDBRANCH   1  18
TORSDOF 5
ENDMDL
MODEL 4
REMARK VINA RESULT:      -8.2      3.815      7.846
REMARK  Name = 3902
REMARK  5 active torsions:
REMARK  status: ('A' for Active; 'I' for Inactive)
REMARK    1  A    between atoms: C_1  and  C_2
REMARK    2  A    between atoms: C_1  and  C_10
REMARK    3  A    between atoms: C_1  and  N_18
REMARK    4  A    between atoms: C_7  and  C_9
REMARK    5  A    between atoms: C_15  and  C_17
REMARK                            x       y       z     vdW  Elec       q    Type
REMARK                         _______ _______ _______ _____ _____    ______ ____
ROOT
ATOM      1  C   UNL     1      33.820 -23.387 -17.039  0.00  0.00    +0.142 C 
ENDROOT
BRANCH   1   2
ATOM      2  C   UNL     1      34.885 -23.580 -16.013  0.00  0.00    +0.002 C 
ATOM      3  C   UNL     1      35.731 -22.524 -15.679  0.00  0.00    -0.002 C 
ATOM      4  C   UNL     1      35.033 -24.818 -15.386  0.00  0.00    -0.002 C 
ATOM      5  C   UNL     1      36.727 -22.705 -14.718  0.00  0.00    +0.010 C 
ATOM      6  C   UNL     1      36.028 -24.998 -14.425  0.00  0.00    +0.010 C 
ATOM      7  C   UNL     1      36.876 -23.941 -14.091  0.00  0.00    +0.068 C 
BRANCH   7   9
ATOM      8  N   UNL     1      38.722 -24.276 -12.305  0.00  0.00    -0.191 NA
ATOM      9  C   UNL     1      37.894 -24.127 -13.106  0.00  0.00    +0.100 C 
ENDBRANCH   7   9
ENDBRANCH   1   2
BRANCH   1  10
ATOM     10  C   UNL     1      34.113 -22.407 -18.189  0.00  0.00    +0.002 C 
ATOM     11  C   UNL     1      33.052 -21.819 -18.828  0.00  0.00    -0.002 C 
ATOM     12  C   UNL     1      35.423 -22.166 -18.518  0.00  0.00    -0.002 C 
ATOM     13  C   UNL     1      33.318 -20.929 -19.870  0.00  0.00    +0.010 C 
ATOM     14  C   UNL     1      35.689 -21.276 -19.559  0.00  0.00    +0.010 C 
ATOM     15  C   UNL     1      34.637 -20.659 -20.235  0.00  0.00    +0.068 C 
BRANCH  15  17
ATOM     16  N   UNL     1      35.130 -19.005 -22.167  0.00  0.00    -0.191 NA
ATOM     17  C   UNL     1      34.909 -19.747 -21.301  0.00  0.00    +0.100 C 
ENDBRANCH  15  17
ENDBRANCH   1  10
BRANCH   1  18
ATOM     18  N   UNL     1      32.458 -23.157 -16.459  0.00  0.00    -0.184 N 
ATOM     19  N   UNL     1      31.410 -23.291 -17.239  0.00  0.00    -0.153 NA
ATOM     20  N   UNL     1      30.888 -22.714 -15.088  0.00  0.00    -0.203 NA
ATOM     21  C   UNL     1      32.191 -22.822 -15.205  0.00  0.00    +0.186 C 
ATOM     22  C   UNL     1      30.456 -23.007 -16.350  0.00  0.00    +0.218 C 
ENDBRANCH   1  18
TORSDOF 5
ENDMDL
MODEL 5
REMARK VINA RESULT:      -8.1      5.945     11.000
REMARK  Name = 3902
REMARK  5 active torsions:
REMARK  status: ('A' for Active; 'I' for Inactive)
REMARK    1  A    between atoms: C_1  and  C_2
REMARK    2  A    between atoms: C_1  and  C_10
REMARK    3  A    between atoms: C_1  and  N_18
REMARK    4  A    between atoms: C_7  and  C_9
REMARK    5  A    between atoms: C_15  and  C_17
REMARK                            x       y       z     vdW  Elec       q    Type
REMARK                         _______ _______ _______ _____ _____    ______ ____
ROOT
ATOM      1  C   UNL     1      32.896  -9.994 -22.503  0.00  0.00    +0.142 C 
ENDROOT
BRANCH   1   2
ATOM      2  C   UNL     1      32.644  -8.700 -23.198  0.00  0.00    +0.002 C 
ATOM      3  C   UNL     1      31.347  -8.347 -23.567  0.00  0.00    -0.002 C 
ATOM      4  C   UNL     1      33.707  -7.840 -23.478  0.00  0.00    -0.002 C 
ATOM      5  C   UNL     1      31.112  -7.135 -24.217  0.00  0.00    +0.010 C 
ATOM      6  C   UNL     1      33.472  -6.628 -24.127  0.00  0.00    +0.010 C 
ATOM      7  C   UNL     1      32.173  -6.276 -24.497  0.00  0.00    +0.068 C 
BRANCH   7   9
ATOM      8  N   UNL     1      31.738  -4.024 -25.702  0.00  0.00    -0.191 NA
ATOM      9  C   UNL     1      31.933  -5.034 -25.161  0.00  0.00    +0.100 C 
ENDBRANCH   7   9
ENDBRANCH   1   2
BRANCH   1  10
ATOM     10  C   UNL     1      33.021 -11.256 -23.376  0.00  0.00    +0.002 C 
ATOM     11  C   UNL     1      33.571 -11.129 -24.626  0.00  0.00    -0.002 C 
ATOM     12  C   UNL     1      32.579 -12.448 -22.861  0.00  0.00    -0.002 C 
ATOM     13  C   UNL     1      33.685 -12.273 -25.417  0.00  0.00    +0.010 C 
ATOM     14  C   UNL     1      32.694 -13.592 -23.651  0.00  0.00    +0.010 C 
ATOM     15  C   UNL     1      33.246 -13.504 -24.929  0.00  0.00    +0.068 C 
BRANCH  15  17
ATOM     16  N   UNL     1      33.461 -15.628 -26.396  0.00  0.00    -0.191 NA
ATOM     17  C   UNL     1      33.365 -14.675 -25.738  0.00  0.00    +0.100 C 
ENDBRANCH  15  17
ENDBRANCH   1  10
BRANCH   1  18
ATOM     18  N   UNL     1      31.999 -10.233 -21.326  0.00  0.00    -0.184 N 
ATOM     19  N   UNL     1      32.253  -9.604 -20.202  0.00  0.00    -0.153 NA
ATOM     20  N   UNL     1      30.423 -10.973 -20.098  0.00  0.00    -0.203 NA
ATOM     21  C   UNL     1      30.945 -11.036 -21.301  0.00  0.00    +0.186 C 
ATOM     22  C   UNL     1      31.252 -10.091 -19.465  0.00  0.00    +0.218 C 
ENDBRANCH   1  18
TORSDOF 5
ENDMDL
MODEL 6
REMARK VINA RESULT:      -8.0      3.156      7.687
REMARK  Name = 3902
REMARK  5 active torsions:
REMARK  status: ('A' for Active; 'I' for Inactive)
REMARK    1  A    between atoms: C_1  and  C_2
REMARK    2  A    between atoms: C_1  and  C_10
REMARK    3  A    between atoms: C_1  and  N_18
REMARK    4  A    between atoms: C_7  and  C_9
REMARK    5  A    between atoms: C_15  and  C_17
REMARK                            x       y       z     vdW  Elec       q    Type
REMARK                         _______ _______ _______ _____ _____    ______ ____
ROOT
ATOM      1  C   UNL     1      32.516 -13.619 -23.370  0.00  0.00    +0.142 C 
ENDROOT
BRANCH   1   2
ATOM      2  C   UNL     1      32.349 -12.398 -22.529  0.00  0.00    +0.002 C 
ATOM      3  C   UNL     1      31.917 -12.515 -21.208  0.00  0.00    -0.002 C 
ATOM      4  C   UNL     1      32.628 -11.140 -23.063  0.00  0.00    -0.002 C 
ATOM      5  C   UNL     1      31.762 -11.373 -20.422  0.00  0.00    +0.010 C 
ATOM      6  C   UNL     1      32.473  -9.999 -22.277  0.00  0.00    +0.010 C 
ATOM      7  C   UNL     1      32.040 -10.115 -20.955  0.00  0.00    +0.068 C 
BRANCH   7   9
ATOM      8  N   UNL     1      31.753  -7.995 -19.494  0.00  0.00    -0.191 NA
ATOM      9  C   UNL     1      31.882  -8.946 -20.150  0.00  0.00    +0.100 C 
ENDBRANCH   7   9
ENDBRANCH   1   2
BRANCH   1  10
ATOM     10  C   UNL     1      33.311 -14.791 -22.767  0.00  0.00    +0.002 C 
ATOM     11  C   UNL     1      32.843 -15.371 -21.616  0.00  0.00    -0.002 C 
ATOM     12  C   UNL     1      34.451 -15.202 -23.412  0.00  0.00    -0.002 C 
ATOM     13  C   UNL     1      33.564 -16.435 -21.072  0.00  0.00    +0.010 C 
ATOM     14  C   UNL     1      35.171 -16.265 -22.868  0.00  0.00    +0.010 C 
ATOM     15  C   UNL     1      34.728 -16.881 -21.698  0.00  0.00    +0.068 C 
BRANCH  15  17
ATOM     16  N   UNL     1      36.063 -18.858 -20.688  0.00  0.00    -0.191 NA
ATOM     17  C   UNL     1      35.464 -17.971 -21.141  0.00  0.00    +0.100 C 
ENDBRANCH  15  17
ENDBRANCH   1  10
BRANCH   1  18
ATOM     18  N   UNL     1      32.950 -13.330 -24.774  0.00  0.00    -0.184 N 
ATOM     19  N   UNL     1      32.556 -14.135 -25.734  0.00  0.00    -0.153 NA
ATOM     20  N   UNL     1      33.868 -12.407 -26.462  0.00  0.00    -0.203 NA
ATOM     21  C   UNL     1      33.713 -12.317 -25.161  0.00  0.00    +0.186 C 
ATOM     22  C   UNL     1      33.147 -13.527 -26.765  0.00  0.00    +0.218 C 
ENDBRANCH   1  18
TORSDOF 5
ENDMDL
MODEL 7
REMARK VINA RESULT:      -8.0      4.698      8.739
REMARK  Name = 3902
REMARK  5 active torsions:
REMARK  status: ('A' for Active; 'I' for Inactive)
REMARK    1  A    between atoms: C_1  and  C_2
REMARK    2  A    between atoms: C_1  and  C_10
REMARK    3  A    between atoms: C_1  and  N_18
REMARK    4  A    between atoms: C_7  and  C_9
REMARK    5  A    between atoms: C_15  and  C_17
REMARK                            x       y       z     vdW  Elec       q    Type
REMARK                         _______ _______ _______ _____ _____    ______ ____
ROOT
ATOM      1  C   UNL     1      31.583 -10.564 -22.172  0.00  0.00    +0.142 C 
ENDROOT
BRANCH   1   2
ATOM      2  C   UNL     1      32.294 -11.799 -22.612  0.00  0.00    +0.002 C 
ATOM      3  C   UNL     1      32.081 -13.003 -21.941  0.00  0.00    -0.002 C 
ATOM      4  C   UNL     1      33.170 -11.750 -23.697  0.00  0.00    -0.002 C 
ATOM      5  C   UNL     1      32.746 -14.158 -22.354  0.00  0.00    +0.010 C 
ATOM      6  C   UNL     1      33.834 -12.905 -24.109  0.00  0.00    +0.010 C 
ATOM      7  C   UNL     1      33.622 -14.110 -23.437  0.00  0.00    +0.068 C 
BRANCH   7   9
ATOM      8  N   UNL     1      34.855 -16.254 -24.208  0.00  0.00    -0.191 NA
ATOM      9  C   UNL     1      34.302 -15.293 -23.862  0.00  0.00    +0.100 C 
ENDBRANCH   7   9
ENDBRANCH   1   2
BRANCH   1  10
ATOM     10  C   UNL     1      31.886  -9.262 -22.935  0.00  0.00    +0.002 C 
ATOM     11  C   UNL     1      33.197  -8.895 -23.099  0.00  0.00    -0.002 C 
ATOM     12  C   UNL     1      30.829  -8.531 -23.415  0.00  0.00    -0.002 C 
ATOM     13  C   UNL     1      33.471  -7.714 -23.792  0.00  0.00    +0.010 C 
ATOM     14  C   UNL     1      31.103  -7.351 -24.108  0.00  0.00    +0.010 C 
ATOM     15  C   UNL     1      32.424  -6.943 -24.295  0.00  0.00    +0.068 C 
BRANCH  15  17
ATOM     16  N   UNL     1      32.933  -4.754 -25.583  0.00  0.00    -0.191 NA
ATOM     17  C   UNL     1      32.704  -5.735 -25.005  0.00  0.00    +0.100 C 
ENDBRANCH  15  17
ENDBRANCH   1  10
BRANCH   1  18
ATOM     18  N   UNL     1      31.610 -10.347 -20.690  0.00  0.00    -0.184 N 
ATOM     19  N   UNL     1      30.878 -11.124 -19.925  0.00  0.00    -0.153 NA
ATOM     20  N   UNL     1      32.074  -9.555 -18.767  0.00  0.00    -0.203 NA
ATOM     21  C   UNL     1      32.316  -9.426 -20.051  0.00  0.00    +0.186 C 
ATOM     22  C   UNL     1      31.194 -10.599 -18.739  0.00  0.00    +0.218 C 
ENDBRANCH   1  18
TORSDOF 5
ENDMDL
MODEL 8
REMARK VINA RESULT:      -7.9      1.667      2.485
REMARK  Name = 3902
REMARK  5 active torsions:
REMARK  status: ('A' for Active; 'I' for Inactive)
REMARK    1  A    between atoms: C_1  and  C_2
REMARK    2  A    between atoms: C_1  and  C_10
REMARK    3  A    between atoms: C_1  and  N_18
REMARK    4  A    between atoms: C_7  and  C_9
REMARK    5  A    between atoms: C_15  and  C_17
REMARK                            x       y       z     vdW  Elec       q    Type
REMARK                         _______ _______ _______ _____ _____    ______ ____
ROOT
ATOM      1  C   UNL     1      34.452 -15.732 -22.831  0.00  0.00    +0.142 C 
ENDROOT
BRANCH   1   2
ATOM      2  C   UNL     1      34.646 -17.033 -22.130  0.00  0.00    +0.002 C 
ATOM      3  C   UNL     1      33.545 -17.722 -21.620  0.00  0.00    -0.002 C 
ATOM      4  C   UNL     1      35.928 -17.564 -21.987  0.00  0.00    -0.002 C 
ATOM      5  C   UNL     1      33.728 -18.940 -20.965  0.00  0.00    +0.010 C 
ATOM      6  C   UNL     1      36.110 -18.782 -21.333  0.00  0.00    +0.010 C 
ATOM      7  C   UNL     1      35.009 -19.470 -20.821  0.00  0.00    +0.068 C 
BRANCH   7   9
ATOM      8  N   UNL     1      35.346 -21.735 -19.609  0.00  0.00    -0.191 NA
ATOM      9  C   UNL     1      35.196 -20.719 -20.152  0.00  0.00    +0.100 C 
ENDBRANCH   7   9
ENDBRANCH   1   2
BRANCH   1  10
ATOM     10  C   UNL     1      33.642 -14.646 -22.099  0.00  0.00    +0.002 C 
ATOM     11  C   UNL     1      33.349 -14.837 -20.773  0.00  0.00    -0.002 C 
ATOM     12  C   UNL     1      33.252 -13.538 -22.808  0.00  0.00    -0.002 C 
ATOM     13  C   UNL     1      32.616 -13.852 -20.110  0.00  0.00    +0.010 C 
ATOM     14  C   UNL     1      32.520 -12.554 -22.145  0.00  0.00    +0.010 C 
ATOM     15  C   UNL     1      32.201 -12.711 -20.797  0.00  0.00    +0.068 C 
BRANCH  15  17
ATOM     16  N   UNL     1      30.842 -10.881 -19.565  0.00  0.00    -0.191 NA
ATOM     17  C   UNL     1      31.452 -11.702 -20.117  0.00  0.00    +0.100 C 
ENDBRANCH  15  17
ENDBRANCH   1  10
BRANCH   1  18
ATOM     18  N   UNL     1      34.011 -15.872 -24.256  0.00  0.00    -0.184 N 
ATOM     19  N   UNL     1      33.350 -14.884 -24.813  0.00  0.00    -0.153 NA
ATOM     20  N   UNL     1      33.691 -16.664 -26.208  0.00  0.00    -0.203 NA
ATOM     21  C   UNL     1      34.227 -16.921 -25.038  0.00  0.00    +0.186 C 
ATOM     22  C   UNL     1      33.169 -15.416 -26.024  0.00  0.00    +0.218 C 
ENDBRANCH   1  18
TORSDOF 5
ENDMDL
MODEL 9
REMARK VINA RESULT:      -7.8      5.461      9.277
REMARK  Name = 3902
REMARK  5 active torsions:
REMARK  status: ('A' for Active; 'I' for Inactive)
REMARK    1  A    between atoms: C_1  and  C_2
REMARK    2  A    between atoms: C_1  and  C_10
REMARK    3  A    between atoms: C_1  and  N_18
REMARK    4  A    between atoms: C_7  and  C_9
REMARK    5  A    between atoms: C_15  and  C_17
REMARK                            x       y       z     vdW  Elec       q    Type
REMARK                         _______ _______ _______ _____ _____    ______ ____
ROOT
ATOM      1  C   UNL     1      33.176 -24.026 -16.031  0.00  0.00    +0.142 C 
ENDROOT
BRANCH   1   2
ATOM      2  C   UNL     1      34.015 -23.244 -16.983  0.00  0.00    +0.002 C 
ATOM      3  C   UNL     1      33.566 -23.016 -18.283  0.00  0.00    -0.002 C 
ATOM      4  C   UNL     1      35.249 -22.738 -16.572  0.00  0.00    -0.002 C 
ATOM      5  C   UNL     1      34.352 -22.282 -19.173  0.00  0.00    +0.010 C 
ATOM      6  C   UNL     1      36.033 -22.005 -17.462  0.00  0.00    +0.010 C 
ATOM      7  C   UNL     1      35.585 -21.777 -18.763  0.00  0.00    +0.068 C 
BRANCH   7   9
ATOM      8  N   UNL     1      37.041 -20.412 -20.415  0.00  0.00    -0.191 NA
ATOM      9  C   UNL     1      36.388 -21.025 -19.674  0.00  0.00    +0.100 C 
ENDBRANCH   7   9
ENDBRANCH   1   2
BRANCH   1  10
ATOM     10  C   UNL     1      31.681 -23.668 -15.943  0.00  0.00    +0.002 C 
ATOM     11  C   UNL     1      31.242 -22.546 -16.599  0.00  0.00    -0.002 C 
ATOM     12  C   UNL     1      30.859 -24.489 -15.214  0.00  0.00    -0.002 C 
ATOM     13  C   UNL     1      29.887 -22.223 -16.519  0.00  0.00    +0.010 C 
ATOM     14  C   UNL     1      29.504 -24.166 -15.136  0.00  0.00    +0.010 C 
ATOM     15  C   UNL     1      29.019 -23.032 -15.787  0.00  0.00    +0.068 C 
BRANCH  15  17
ATOM     16  N   UNL     1      26.503 -22.433 -15.643  0.00  0.00    -0.191 NA
ATOM     17  C   UNL     1      27.631 -22.702 -15.708  0.00  0.00    +0.100 C 
ENDBRANCH  15  17
ENDBRANCH   1  10
BRANCH   1  18
ATOM     18  N   UNL     1      33.783 -24.172 -14.668  0.00  0.00    -0.184 N 
ATOM     19  N   UNL     1      34.870 -24.895 -14.536  0.00  0.00    -0.153 NA
ATOM     20  N   UNL     1      34.125 -23.986 -12.574  0.00  0.00    -0.203 NA
ATOM     21  C   UNL     1      33.323 -23.630 -13.550  0.00  0.00    +0.186 C 
ATOM     22  C   UNL     1      35.050 -24.755 -13.221  0.00  0.00    +0.218 C 
ENDBRANCH   1  18
TORSDOF 5
ENDMDL
