MODEL 1
REMARK VINA RESULT:      -7.8      0.000      0.000
REMARK  Name = 346926
REMARK  2 active torsions:
REMARK  status: ('A' for Active; 'I' for Inactive)
REMARK    1  A    between atoms: C_1  and  C_10
REMARK    2  A    between atoms: C_6  and  O_15
REMARK                            x       y       z     vdW  Elec       q    Type
REMARK                         _______ _______ _______ _____ _____    ______ ____
ROOT
ATOM      1  C   UNL     1      34.673 -19.594 -20.920  0.00  0.00    +0.027 C 
ATOM      2  C   UNL     1      35.848 -20.244 -20.546  0.00  0.00    +0.005 C 
ATOM      3  C   UNL     1      33.438 -20.084 -20.494  0.00  0.00    +0.005 C 
ATOM      4  C   UNL     1      35.790 -21.385 -19.746  0.00  0.00    +0.037 C 
ATOM      5  C   UNL     1      33.380 -21.225 -19.693  0.00  0.00    +0.037 C 
ATOM      6  C   UNL     1      34.556 -21.875 -19.319  0.00  0.00    +0.134 C 
ENDROOT
BRANCH   1  10
ATOM      7  S   UNL     1      34.719 -16.001 -22.501  0.00  0.00    -0.060 S 
ATOM      8  N   UNL     1      34.936 -18.504 -23.108  0.00  0.00    -0.385 NA
ATOM      9  N   UNL     1      35.125 -17.007 -24.928  0.00  0.00    -0.328 N 
ATOM     10  C   UNL     1      34.733 -18.420 -21.745  0.00  0.00    +0.122 C 
ATOM     11  C   UNL     1      34.591 -17.148 -21.232  0.00  0.00    +0.125 C 
ATOM     12  C   UNL     1      34.947 -17.289 -23.611  0.00  0.00    +0.204 C 
ATOM     13  H   UNL     1      35.122 -16.073 -25.237  0.00  0.00    +0.145 HD
ATOM     14  H   UNL     1      35.257 -17.738 -25.575  0.00  0.00    +0.145 HD
ENDBRANCH   1  10
BRANCH   6  15
ATOM     15  O   UNL     1      34.499 -22.988 -18.536  0.00  0.00    -0.506 OA
ATOM     16  H   UNL     1      35.272 -23.298 -18.107  0.00  0.00    +0.292 HD
ENDBRANCH   6  15
TORSDOF 2
ENDMDL
MODEL 2
REMARK VINA RESULT:      -7.7      1.286      1.962
REMARK  Name = 346926
REMARK  2 active torsions:
REMARK  status: ('A' for Active; 'I' for Inactive)
REMARK    1  A    between atoms: C_1  and  C_10
REMARK    2  A    between atoms: C_6  and  O_15
REMARK                            x       y       z     vdW  Elec       q    Type
REMARK                         _______ _______ _______ _____ _____    ______ ____
ROOT
ATOM      1  C   UNL     1      34.657 -19.896 -20.943  0.00  0.00    +0.027 C 
ATOM      2  C   UNL     1      33.425 -20.346 -20.472  0.00  0.00    +0.005 C 
ATOM      3  C   UNL     1      35.838 -20.465 -20.463  0.00  0.00    +0.005 C 
ATOM      4  C   UNL     1      33.370 -21.365 -19.522  0.00  0.00    +0.037 C 
ATOM      5  C   UNL     1      35.783 -21.484 -19.512  0.00  0.00    +0.037 C 
ATOM      6  C   UNL     1      34.550 -21.934 -19.042  0.00  0.00    +0.134 C 
ENDROOT
BRANCH   1  10
ATOM      7  S   UNL     1      34.846 -17.617 -24.134  0.00  0.00    -0.060 S 
ATOM      8  N   UNL     1      34.680 -17.516 -21.556  0.00  0.00    -0.385 NA
ATOM      9  N   UNL     1      34.733 -15.417 -22.644  0.00  0.00    -0.328 N 
ATOM     10  C   UNL     1      34.713 -18.847 -21.922  0.00  0.00    +0.122 C 
ATOM     11  C   UNL     1      34.803 -19.100 -23.274  0.00  0.00    +0.125 C 
ATOM     12  C   UNL     1      34.744 -16.776 -22.642  0.00  0.00    +0.204 C 
ATOM     13  H   UNL     1      34.785 -14.925 -23.495  0.00  0.00    +0.145 HD
ATOM     14  H   UNL     1      34.675 -14.924 -21.794  0.00  0.00    +0.145 HD
ENDBRANCH   1  10
BRANCH   6  15
ATOM     15  O   UNL     1      34.498 -22.930 -18.115  0.00  0.00    -0.506 OA
ATOM     16  H   UNL     1      34.249 -23.796 -18.372  0.00  0.00    +0.292 HD
ENDBRANCH   6  15
TORSDOF 2
ENDMDL
MODEL 3
REMARK VINA RESULT:      -7.5      3.799      5.557
REMARK  Name = 346926
REMARK  2 active torsions:
REMARK  status: ('A' for Active; 'I' for Inactive)
REMARK    1  A    between atoms: C_1  and  C_10
REMARK    2  A    between atoms: C_6  and  O_15
REMARK                            x       y       z     vdW  Elec       q    Type
REMARK                         _______ _______ _______ _____ _____    ______ ____
ROOT
ATOM      1  C   UNL     1      34.633 -18.860 -22.554  0.00  0.00    +0.027 C 
ATOM      2  C   UNL     1      34.614 -19.369 -23.852  0.00  0.00    +0.005 C 
ATOM      3  C   UNL     1      34.680 -17.481 -22.345  0.00  0.00    +0.005 C 
ATOM      4  C   UNL     1      34.642 -18.500 -24.942  0.00  0.00    +0.037 C 
ATOM      5  C   UNL     1      34.708 -16.612 -23.436  0.00  0.00    +0.037 C 
ATOM      6  C   UNL     1      34.688 -17.122 -24.734  0.00  0.00    +0.134 C 
ENDROOT
BRANCH   1  10
ATOM      7  S   UNL     1      35.335 -21.259 -19.526  0.00  0.00    -0.060 S 
ATOM      8  N   UNL     1      33.413 -20.202 -20.895  0.00  0.00    -0.385 NA
ATOM      9  N   UNL     1      32.730 -21.618 -19.129  0.00  0.00    -0.328 N 
ATOM     10  C   UNL     1      34.605 -19.755 -21.431  0.00  0.00    +0.122 C 
ATOM     11  C   UNL     1      35.752 -20.220 -20.825  0.00  0.00    +0.125 C 
ATOM     12  C   UNL     1      33.677 -21.002 -19.884  0.00  0.00    +0.204 C 
ATOM     13  H   UNL     1      32.998 -22.205 -18.386  0.00  0.00    +0.145 HD
ATOM     14  H   UNL     1      31.776 -21.478 -19.324  0.00  0.00    +0.145 HD
ENDBRANCH   1  10
BRANCH   6  15
ATOM     15  O   UNL     1      34.714 -16.273 -25.798  0.00  0.00    -0.506 OA
ATOM     16  H   UNL     1      33.934 -15.821 -26.056  0.00  0.00    +0.292 HD
ENDBRANCH   6  15
TORSDOF 2
ENDMDL
MODEL 4
REMARK VINA RESULT:      -7.5      3.801      5.572
REMARK  Name = 346926
REMARK  2 active torsions:
REMARK  status: ('A' for Active; 'I' for Inactive)
REMARK    1  A    between atoms: C_1  and  C_10
REMARK    2  A    between atoms: C_6  and  O_15
REMARK                            x       y       z     vdW  Elec       q    Type
REMARK                         _______ _______ _______ _____ _____    ______ ____
ROOT
ATOM      1  C   UNL     1      34.610 -18.831 -22.582  0.00  0.00    +0.027 C 
ATOM      2  C   UNL     1      34.652 -17.453 -22.371  0.00  0.00    +0.005 C 
ATOM      3  C   UNL     1      34.589 -19.338 -23.882  0.00  0.00    +0.005 C 
ATOM      4  C   UNL     1      34.675 -16.581 -23.459  0.00  0.00    +0.037 C 
ATOM      5  C   UNL     1      34.612 -18.466 -24.970  0.00  0.00    +0.037 C 
ATOM      6  C   UNL     1      34.655 -17.088 -24.759  0.00  0.00    +0.134 C 
ENDROOT
BRANCH   1  10
ATOM      7  S   UNL     1      35.328 -21.246 -19.571  0.00  0.00    -0.060 S 
ATOM      8  N   UNL     1      33.398 -20.165 -20.910  0.00  0.00    -0.385 NA
ATOM      9  N   UNL     1      32.725 -21.579 -19.139  0.00  0.00    -0.328 N 
ATOM     10  C   UNL     1      34.587 -19.728 -21.461  0.00  0.00    +0.122 C 
ATOM     11  C   UNL     1      35.738 -20.207 -20.873  0.00  0.00    +0.125 C 
ATOM     12  C   UNL     1      33.668 -20.970 -19.906  0.00  0.00    +0.204 C 
ATOM     13  H   UNL     1      32.997 -22.172 -18.402  0.00  0.00    +0.145 HD
ATOM     14  H   UNL     1      31.770 -21.429 -19.321  0.00  0.00    +0.145 HD
ENDBRANCH   1  10
BRANCH   6  15
ATOM     15  O   UNL     1      34.677 -16.237 -25.822  0.00  0.00    -0.506 OA
ATOM     16  H   UNL     1      35.434 -16.198 -26.373  0.00  0.00    +0.292 HD
ENDBRANCH   6  15
TORSDOF 2
ENDMDL
MODEL 5
REMARK VINA RESULT:      -7.3      1.573      1.780
REMARK  Name = 346926
REMARK  2 active torsions:
REMARK  status: ('A' for Active; 'I' for Inactive)
REMARK    1  A    between atoms: C_1  and  C_10
REMARK    2  A    between atoms: C_6  and  O_15
REMARK                            x       y       z     vdW  Elec       q    Type
REMARK                         _______ _______ _______ _____ _____    ______ ____
ROOT
ATOM      1  C   UNL     1      35.153 -18.954 -21.386  0.00  0.00    +0.027 C 
ATOM      2  C   UNL     1      36.410 -19.255 -20.863  0.00  0.00    +0.005 C 
ATOM      3  C   UNL     1      34.050 -19.739 -21.046  0.00  0.00    +0.005 C 
ATOM      4  C   UNL     1      36.566 -20.340 -20.001  0.00  0.00    +0.037 C 
ATOM      5  C   UNL     1      34.206 -20.824 -20.184  0.00  0.00    +0.037 C 
ATOM      6  C   UNL     1      35.464 -21.124 -19.661  0.00  0.00    +0.134 C 
ENDROOT
BRANCH   1  10
ATOM      7  S   UNL     1      34.748 -16.443 -24.376  0.00  0.00    -0.060 S 
ATOM      8  N   UNL     1      34.871 -16.547 -21.796  0.00  0.00    -0.385 NA
ATOM      9  N   UNL     1      34.593 -14.381 -22.703  0.00  0.00    -0.328 N 
ATOM     10  C   UNL     1      34.992 -17.837 -22.274  0.00  0.00    +0.122 C 
ATOM     11  C   UNL     1      34.950 -17.981 -23.644  0.00  0.00    +0.125 C 
ATOM     12  C   UNL     1      34.737 -15.728 -22.817  0.00  0.00    +0.204 C 
ATOM     13  H   UNL     1      34.498 -13.827 -23.511  0.00  0.00    +0.145 HD
ATOM     14  H   UNL     1      34.585 -13.960 -21.814  0.00  0.00    +0.145 HD
ENDBRANCH   1  10
BRANCH   6  15
ATOM     15  O   UNL     1      35.615 -22.183 -18.818  0.00  0.00    -0.506 OA
ATOM     16  H   UNL     1      36.318 -22.788 -18.950  0.00  0.00    +0.292 HD
ENDBRANCH   6  15
TORSDOF 2
ENDMDL
MODEL 6
REMARK VINA RESULT:      -7.3      3.768      5.523
REMARK  Name = 346926
REMARK  2 active torsions:
REMARK  status: ('A' for Active; 'I' for Inactive)
REMARK    1  A    between atoms: C_1  and  C_10
REMARK    2  A    between atoms: C_6  and  O_15
REMARK                            x       y       z     vdW  Elec       q    Type
REMARK                         _______ _______ _______ _____ _____    ______ ____
ROOT
ATOM      1  C   UNL     1      34.584 -18.843 -22.564  0.00  0.00    +0.027 C 
ATOM      2  C   UNL     1      34.590 -19.367 -23.856  0.00  0.00    +0.005 C 
ATOM      3  C   UNL     1      34.657 -17.463 -22.369  0.00  0.00    +0.005 C 
ATOM      4  C   UNL     1      34.670 -18.512 -24.955  0.00  0.00    +0.037 C 
ATOM      5  C   UNL     1      34.737 -16.608 -23.468  0.00  0.00    +0.037 C 
ATOM      6  C   UNL     1      34.743 -17.133 -24.761  0.00  0.00    +0.134 C 
ENDROOT
BRANCH   1  10
ATOM      7  S   UNL     1      33.584 -21.177 -19.570  0.00  0.00    -0.060 S 
ATOM      8  N   UNL     1      35.634 -20.204 -20.807  0.00  0.00    -0.385 NA
ATOM      9  N   UNL     1      36.139 -21.621 -18.983  0.00  0.00    -0.328 N 
ATOM     10  C   UNL     1      34.501 -19.723 -21.432  0.00  0.00    +0.122 C 
ATOM     11  C   UNL     1      33.297 -20.139 -20.904  0.00  0.00    +0.125 C 
ATOM     12  C   UNL     1      35.271 -20.981 -19.810  0.00  0.00    +0.204 C 
ATOM     13  H   UNL     1      35.798 -22.189 -18.254  0.00  0.00    +0.145 HD
ATOM     14  H   UNL     1      37.109 -21.516 -19.111  0.00  0.00    +0.145 HD
ENDBRANCH   1  10
BRANCH   6  15
ATOM     15  O   UNL     1      34.821 -16.297 -25.833  0.00  0.00    -0.506 OA
ATOM     16  H   UNL     1      34.216 -15.586 -25.917  0.00  0.00    +0.292 HD
ENDBRANCH   6  15
TORSDOF 2
ENDMDL
MODEL 7
REMARK VINA RESULT:      -6.8      4.439      6.389
REMARK  Name = 346926
REMARK  2 active torsions:
REMARK  status: ('A' for Active; 'I' for Inactive)
REMARK    1  A    between atoms: C_1  and  C_10
REMARK    2  A    between atoms: C_6  and  O_15
REMARK                            x       y       z     vdW  Elec       q    Type
REMARK                         _______ _______ _______ _____ _____    ______ ____
ROOT
ATOM      1  C   UNL     1      33.619 -15.266 -22.048  0.00  0.00    +0.027 C 
ATOM      2  C   UNL     1      33.267 -14.580 -23.209  0.00  0.00    +0.005 C 
ATOM      3  C   UNL     1      33.186 -14.803 -20.805  0.00  0.00    +0.005 C 
ATOM      4  C   UNL     1      32.482 -13.430 -23.130  0.00  0.00    +0.037 C 
ATOM      5  C   UNL     1      32.402 -13.653 -20.725  0.00  0.00    +0.037 C 
ATOM      6  C   UNL     1      32.049 -12.967 -21.887  0.00  0.00    +0.134 C 
ENDROOT
BRANCH   1  10
ATOM      7  S   UNL     1      35.733 -18.421 -23.045  0.00  0.00    -0.060 S 
ATOM      8  N   UNL     1      34.912 -17.074 -20.997  0.00  0.00    -0.385 NA
ATOM      9  N   UNL     1      36.237 -18.966 -20.492  0.00  0.00    -0.328 N 
ATOM     10  C   UNL     1      34.427 -16.451 -22.130  0.00  0.00    +0.122 C 
ATOM     11  C   UNL     1      34.765 -17.034 -23.332  0.00  0.00    +0.125 C 
ATOM     12  C   UNL     1      35.615 -18.125 -21.360  0.00  0.00    +0.204 C 
ATOM     13  H   UNL     1      36.747 -19.736 -20.832  0.00  0.00    +0.145 HD
ATOM     14  H   UNL     1      36.176 -18.807 -19.523  0.00  0.00    +0.145 HD
ENDBRANCH   1  10
BRANCH   6  15
ATOM     15  O   UNL     1      31.282 -11.845 -21.808  0.00  0.00    -0.506 OA
ATOM     16  H   UNL     1      30.532 -11.830 -21.247  0.00  0.00    +0.292 HD
ENDBRANCH   6  15
TORSDOF 2
ENDMDL
MODEL 8
REMARK VINA RESULT:      -6.8      2.891      4.007
REMARK  Name = 346926
REMARK  2 active torsions:
REMARK  status: ('A' for Active; 'I' for Inactive)
REMARK    1  A    between atoms: C_1  and  C_10
REMARK    2  A    between atoms: C_6  and  O_15
REMARK                            x       y       z     vdW  Elec       q    Type
REMARK                         _______ _______ _______ _____ _____    ______ ____
ROOT
ATOM      1  C   UNL     1      34.574 -16.502 -23.023  0.00  0.00    +0.027 C 
ATOM      2  C   UNL     1      34.884 -17.684 -23.694  0.00  0.00    +0.005 C 
ATOM      3  C   UNL     1      34.750 -16.417 -21.641  0.00  0.00    +0.005 C 
ATOM      4  C   UNL     1      35.369 -18.783 -22.985  0.00  0.00    +0.037 C 
ATOM      5  C   UNL     1      35.235 -17.516 -20.932  0.00  0.00    +0.037 C 
ATOM      6  C   UNL     1      35.545 -18.698 -21.604  0.00  0.00    +0.134 C 
ENDROOT
BRANCH   1  10
ATOM      7  S   UNL     1      33.481 -12.996 -24.411  0.00  0.00    -0.060 S 
ATOM      8  N   UNL     1      33.455 -15.518 -24.977  0.00  0.00    -0.385 NA
ATOM      9  N   UNL     1      32.465 -14.112 -26.600  0.00  0.00    -0.328 N 
ATOM     10  C   UNL     1      34.075 -15.371 -23.753  0.00  0.00    +0.122 C 
ATOM     11  C   UNL     1      34.181 -14.080 -23.281  0.00  0.00    +0.125 C 
ATOM     12  C   UNL     1      33.100 -14.331 -25.419  0.00  0.00    +0.204 C 
ATOM     13  H   UNL     1      32.227 -13.196 -26.869  0.00  0.00    +0.145 HD
ATOM     14  H   UNL     1      32.241 -14.870 -27.187  0.00  0.00    +0.145 HD
ENDBRANCH   1  10
BRANCH   6  15
ATOM     15  O   UNL     1      36.019 -19.770 -20.911  0.00  0.00    -0.506 OA
ATOM     16  H   UNL     1      36.609 -19.640 -20.195  0.00  0.00    +0.292 HD
ENDBRANCH   6  15
TORSDOF 2
ENDMDL
MODEL 9
REMARK VINA RESULT:      -6.8      7.376      8.617
REMARK  Name = 346926
REMARK  2 active torsions:
REMARK  status: ('A' for Active; 'I' for Inactive)
REMARK    1  A    between atoms: C_1  and  C_10
REMARK    2  A    between atoms: C_6  and  O_15
REMARK                            x       y       z     vdW  Elec       q    Type
REMARK                         _______ _______ _______ _____ _____    ______ ____
ROOT
ATOM      1  C   UNL     1      33.673 -23.593 -15.423  0.00  0.00    +0.027 C 
ATOM      2  C   UNL     1      32.547 -23.447 -14.614  0.00  0.00    +0.005 C 
ATOM      3  C   UNL     1      33.586 -23.343 -16.793  0.00  0.00    +0.005 C 
ATOM      4  C   UNL     1      31.332 -23.052 -15.174  0.00  0.00    +0.037 C 
ATOM      5  C   UNL     1      32.371 -22.948 -17.353  0.00  0.00    +0.037 C 
ATOM      6  C   UNL     1      31.245 -22.802 -16.543  0.00  0.00    +0.134 C 
ENDROOT
BRANCH   1  10
ATOM      7  S   UNL     1      36.692 -24.710 -13.176  0.00  0.00    -0.060 S 
ATOM      8  N   UNL     1      36.056 -24.165 -15.621  0.00  0.00    -0.385 NA
ATOM      9  N   UNL     1      38.311 -24.790 -15.284  0.00  0.00    -0.328 N 
ATOM     10  C   UNL     1      34.924 -24.000 -14.847  0.00  0.00    +0.122 C 
ATOM     11  C   UNL     1      35.073 -24.247 -13.499  0.00  0.00    +0.125 C 
ATOM     12  C   UNL     1      37.049 -24.538 -14.845  0.00  0.00    +0.204 C 
ATOM     13  H   UNL     1      39.008 -25.066 -14.647  0.00  0.00    +0.145 HD
ATOM     14  H   UNL     1      38.528 -24.695 -16.239  0.00  0.00    +0.145 HD
ENDBRANCH   1  10
BRANCH   6  15
ATOM     15  O   UNL     1      30.059 -22.415 -17.090  0.00  0.00    -0.506 OA
ATOM     16  H   UNL     1      29.583 -21.699 -16.716  0.00  0.00    +0.292 HD
ENDBRANCH   6  15
TORSDOF 2
ENDMDL
