MODEL 1
REMARK VINA RESULT:     -10.3      0.000      0.000
REMARK  Name = 104842
REMARK  4 active torsions:
REMARK  status: ('A' for Active; 'I' for Inactive)
REMARK    1  A    between atoms: C_8  and  O_24
REMARK    2  A    between atoms: C_8  and  C_28
REMARK    3  A    between atoms: C_15  and  C_30
REMARK    4  A    between atoms: C_22  and  O_26
REMARK                            x       y       z     vdW  Elec       q    Type
REMARK                         _______ _______ _______ _____ _____    ______ ____
ROOT
ATOM      1  O   UNL     1      36.060 -25.574 -13.631  0.00  0.00    -0.442 OA
ATOM      2  O   UNL     1      32.905 -24.036 -15.997  0.00  0.00    -0.270 OA
ATOM      3  O   UNL     1      38.274 -25.940 -13.574  0.00  0.00    -0.247 OA
ATOM      4  N   UNL     1      34.387 -22.787 -17.257  0.00  0.00    -0.249 N 
ATOM      5  N   UNL     1      36.697 -20.811 -19.181  0.00  0.00    -0.405 NA
ATOM      6  C   UNL     1      35.671 -22.313 -17.473  0.00  0.00    +0.084 C 
ATOM      7  C   UNL     1      36.427 -23.530 -15.542  0.00  0.00    +0.017 C 
ATOM      8  C   UNL     1      37.551 -23.881 -14.607  0.00  0.00    +0.196 C 
ATOM      9  C   UNL     1      33.454 -22.274 -18.282  0.00  0.00    +0.127 C 
ATOM     10  C   UNL     1      34.349 -21.432 -19.131  0.00  0.00    +0.025 C 
ATOM     11  C   UNL     1      35.651 -21.458 -18.651  0.00  0.00    +0.142 C 
ATOM     12  C   UNL     1      35.186 -23.992 -15.304  0.00  0.00    +0.074 C 
ATOM     13  C   UNL     1      36.683 -22.643 -16.666  0.00  0.00    +0.016 C 
ATOM     14  C   UNL     1      34.042 -23.619 -16.208  0.00  0.00    +0.252 C 
ATOM     15  C   UNL     1      34.079 -20.683 -20.251  0.00  0.00    -0.020 C 
ATOM     16  C   UNL     1      34.902 -24.871 -14.132  0.00  0.00    +0.239 C 
ATOM     17  C   UNL     1      37.336 -25.222 -13.913  0.00  0.00    +0.346 C 
ATOM     18  C   UNL     1      35.137 -19.982 -20.852  0.00  0.00    +0.025 C 
ATOM     19  C   UNL     1      36.438 -20.074 -20.281  0.00  0.00    +0.113 C 
ATOM     20  C   UNL     1      34.925 -19.199 -21.998  0.00  0.00    +0.038 C 
ATOM     21  C   UNL     1      37.471 -19.371 -20.893  0.00  0.00    +0.088 C 
ATOM     22  C   UNL     1      35.981 -18.508 -22.586  0.00  0.00    +0.130 C 
ATOM     23  C   UNL     1      37.253 -18.595 -22.035  0.00  0.00    +0.018 C 
ENDROOT
BRANCH   8  24
ATOM     24  O   UNL     1      38.760 -24.053 -15.351  0.00  0.00    -0.373 OA
ATOM     25  H   UNL     1      38.550 -24.160 -16.291  0.00  0.00    +0.211 HD
ENDBRANCH   8  24
BRANCH  22  26
ATOM     26  O   UNL     1      35.768 -17.752 -23.697  0.00  0.00    -0.506 OA
ATOM     27  H   UNL     1      35.877 -18.127 -24.548  0.00  0.00    +0.292 HD
ENDBRANCH  22  26
BRANCH   8  28
ATOM     28  C   UNL     1      37.768 -22.794 -13.552  0.00  0.00    +0.042 C 
ATOM     29  C   UNL     1      37.524 -23.329 -12.155  0.00  0.00    +0.003 C 
ENDBRANCH   8  28
BRANCH  15  30
ATOM     30  C   UNL     1      32.682 -20.645 -20.778  0.00  0.00    +0.026 C 
ATOM     31  C   UNL     1      32.067 -19.282 -20.630  0.00  0.00    +0.005 C 
ENDBRANCH  15  30
TORSDOF 4
ENDMDL
MODEL 2
REMARK VINA RESULT:      -9.6      6.090      9.930
REMARK  Name = 104842
REMARK  4 active torsions:
REMARK  status: ('A' for Active; 'I' for Inactive)
REMARK    1  A    between atoms: C_8  and  O_24
REMARK    2  A    between atoms: C_8  and  C_28
REMARK    3  A    between atoms: C_15  and  C_30
REMARK    4  A    between atoms: C_22  and  O_26
REMARK                            x       y       z     vdW  Elec       q    Type
REMARK                         _______ _______ _______ _____ _____    ______ ____
ROOT
ATOM      1  O   UNL     1      35.511 -20.002 -23.143  0.00  0.00    -0.442 OA
ATOM      2  O   UNL     1      34.922 -16.782 -25.826  0.00  0.00    -0.270 OA
ATOM      3  O   UNL     1      35.775 -20.536 -20.979  0.00  0.00    -0.247 OA
ATOM      4  N   UNL     1      34.112 -15.442 -24.126  0.00  0.00    -0.249 N 
ATOM      5  N   UNL     1      32.810 -13.382 -21.479  0.00  0.00    -0.405 NA
ATOM      6  C   UNL     1      33.699 -15.296 -22.811  0.00  0.00    +0.084 C 
ATOM      7  C   UNL     1      34.195 -17.615 -22.414  0.00  0.00    +0.017 C 
ATOM      8  C   UNL     1      34.189 -18.783 -21.468  0.00  0.00    +0.196 C 
ATOM      9  C   UNL     1      33.990 -14.168 -24.864  0.00  0.00    +0.127 C 
ATOM     10  C   UNL     1      33.446 -13.248 -23.820  0.00  0.00    +0.025 C 
ATOM     11  C   UNL     1      33.277 -13.916 -22.615  0.00  0.00    +0.142 C 
ATOM     12  C   UNL     1      34.589 -17.785 -23.689  0.00  0.00    +0.074 C 
ATOM     13  C   UNL     1      33.718 -16.320 -21.954  0.00  0.00    +0.016 C 
ATOM     14  C   UNL     1      34.565 -16.634 -24.660  0.00  0.00    +0.252 C 
ATOM     15  C   UNL     1      33.113 -11.917 -23.883  0.00  0.00    -0.020 C 
ATOM     16  C   UNL     1      35.043 -19.116 -24.184  0.00  0.00    +0.239 C 
ATOM     17  C   UNL     1      35.234 -19.833 -21.829  0.00  0.00    +0.346 C 
ATOM     18  C   UNL     1      32.617 -11.301 -22.722  0.00  0.00    +0.025 C 
ATOM     19  C   UNL     1      32.481 -12.074 -21.535  0.00  0.00    +0.113 C 
ATOM     20  C   UNL     1      32.258  -9.944 -22.723  0.00  0.00    +0.038 C 
ATOM     21  C   UNL     1      31.987 -11.443 -20.398  0.00  0.00    +0.088 C 
ATOM     22  C   UNL     1      31.768  -9.342 -21.567  0.00  0.00    +0.130 C 
ATOM     23  C   UNL     1      31.633 -10.091 -20.405  0.00  0.00    +0.018 C 
ENDROOT
BRANCH   8  24
ATOM     24  O   UNL     1      34.560 -18.345 -20.158  0.00  0.00    -0.373 OA
ATOM     25  H   UNL     1      34.064 -18.849 -19.496  0.00  0.00    +0.211 HD
ENDBRANCH   8  24
BRANCH  22  26
ATOM     26  O   UNL     1      31.423  -8.026 -21.575  0.00  0.00    -0.506 OA
ATOM     27  H   UNL     1      31.833  -7.437 -22.177  0.00  0.00    +0.292 HD
ENDBRANCH  22  26
BRANCH   8  28
ATOM     28  C   UNL     1      32.811 -19.445 -21.397  0.00  0.00    +0.042 C 
ATOM     29  C   UNL     1      32.711 -20.382 -20.210  0.00  0.00    +0.003 C 
ENDBRANCH   8  28
BRANCH  15  30
ATOM     30  C   UNL     1      33.289 -11.186 -25.173  0.00  0.00    +0.026 C 
ATOM     31  C   UNL     1      34.713 -10.749 -25.376  0.00  0.00    +0.005 C 
ENDBRANCH  15  30
TORSDOF 4
ENDMDL
MODEL 3
REMARK VINA RESULT:      -8.8      8.644     13.596
REMARK  Name = 104842
REMARK  4 active torsions:
REMARK  status: ('A' for Active; 'I' for Inactive)
REMARK    1  A    between atoms: C_8  and  O_24
REMARK    2  A    between atoms: C_8  and  C_28
REMARK    3  A    between atoms: C_15  and  C_30
REMARK    4  A    between atoms: C_22  and  O_26
REMARK                            x       y       z     vdW  Elec       q    Type
REMARK                         _______ _______ _______ _____ _____    ______ ____
ROOT
ATOM      1  O   UNL     1      31.757  -6.775 -20.437  0.00  0.00    -0.442 OA
ATOM      2  O   UNL     1      31.691 -10.704 -18.865  0.00  0.00    -0.270 OA
ATOM      3  O   UNL     1      32.560  -5.498 -22.099  0.00  0.00    -0.247 OA
ATOM      4  N   UNL     1      32.285 -11.592 -20.915  0.00  0.00    -0.249 N 
ATOM      5  N   UNL     1      33.162 -12.967 -24.122  0.00  0.00    -0.405 NA
ATOM      6  C   UNL     1      32.518 -11.423 -22.270  0.00  0.00    +0.084 C 
ATOM      7  C   UNL     1      32.036  -9.078 -22.043  0.00  0.00    +0.017 C 
ATOM      8  C   UNL     1      31.872  -7.734 -22.697  0.00  0.00    +0.196 C 
ATOM      9  C   UNL     1      32.472 -13.003 -20.518  0.00  0.00    +0.127 C 
ATOM     10  C   UNL     1      32.841 -13.650 -21.813  0.00  0.00    +0.025 C 
ATOM     11  C   UNL     1      32.867 -12.716 -22.840  0.00  0.00    +0.142 C 
ATOM     12  C   UNL     1      31.792  -9.220 -20.728  0.00  0.00    +0.074 C 
ATOM     13  C   UNL     1      32.404 -10.228 -22.856  0.00  0.00    +0.016 C 
ATOM     14  C   UNL     1      31.914 -10.566 -20.066  0.00  0.00    +0.252 C 
ATOM     15  C   UNL     1      33.142 -14.958 -22.109  0.00  0.00    -0.020 C 
ATOM     16  C   UNL     1      31.376  -8.057 -19.892  0.00  0.00    +0.239 C 
ATOM     17  C   UNL     1      32.110  -6.580 -21.729  0.00  0.00    +0.346 C 
ATOM     18  C   UNL     1      33.460 -15.281 -23.439  0.00  0.00    +0.025 C 
ATOM     19  C   UNL     1      33.458 -14.249 -24.419  0.00  0.00    +0.113 C 
ATOM     20  C   UNL     1      33.775 -16.599 -23.804  0.00  0.00    +0.038 C 
ATOM     21  C   UNL     1      33.775 -14.593 -25.729  0.00  0.00    +0.088 C 
ATOM     22  C   UNL     1      34.089 -16.910 -25.125  0.00  0.00    +0.130 C 
ATOM     23  C   UNL     1      34.090 -15.907 -26.087  0.00  0.00    +0.018 C 
ENDROOT
BRANCH   8  24
ATOM     24  O   UNL     1      32.868  -7.565 -23.709  0.00  0.00    -0.373 OA
ATOM     25  H   UNL     1      32.442  -7.516 -24.578  0.00  0.00    +0.211 HD
ENDBRANCH   8  24
BRANCH  22  26
ATOM     26  O   UNL     1      34.394 -18.189 -25.472  0.00  0.00    -0.506 OA
ATOM     27  H   UNL     1      35.035 -18.355 -26.135  0.00  0.00    +0.292 HD
ENDBRANCH  22  26
BRANCH   8  28
ATOM     28  C   UNL     1      30.488  -7.582 -23.334  0.00  0.00    +0.042 C 
ATOM     29  C   UNL     1      30.570  -6.844 -24.655  0.00  0.00    +0.003 C 
ENDBRANCH   8  28
BRANCH  15  30
ATOM     30  C   UNL     1      33.118 -15.972 -21.014  0.00  0.00    +0.026 C 
ATOM     31  C   UNL     1      34.440 -16.060 -20.306  0.00  0.00    +0.005 C 
ENDBRANCH  15  30
TORSDOF 4
ENDMDL
MODEL 4
REMARK VINA RESULT:      -8.7      2.367      4.643
REMARK  Name = 104842
REMARK  4 active torsions:
REMARK  status: ('A' for Active; 'I' for Inactive)
REMARK    1  A    between atoms: C_8  and  O_24
REMARK    2  A    between atoms: C_8  and  C_28
REMARK    3  A    between atoms: C_15  and  C_30
REMARK    4  A    between atoms: C_22  and  O_26
REMARK                            x       y       z     vdW  Elec       q    Type
REMARK                         _______ _______ _______ _____ _____    ______ ____
ROOT
ATOM      1  O   UNL     1      32.046 -24.930 -12.940  0.00  0.00    -0.442 OA
ATOM      2  O   UNL     1      35.575 -24.458 -15.228  0.00  0.00    -0.270 OA
ATOM      3  O   UNL     1      30.025 -24.049 -12.518  0.00  0.00    -0.247 OA
ATOM      4  N   UNL     1      34.463 -23.147 -16.773  0.00  0.00    -0.249 N 
ATOM      5  N   UNL     1      32.709 -21.149 -19.198  0.00  0.00    -0.405 NA
ATOM      6  C   UNL     1      33.280 -22.613 -17.258  0.00  0.00    +0.084 C 
ATOM      7  C   UNL     1      32.081 -23.689 -15.474  0.00  0.00    +0.017 C 
ATOM      8  C   UNL     1      30.764 -23.994 -14.816  0.00  0.00    +0.196 C 
ATOM      9  C   UNL     1      35.611 -22.737 -17.608  0.00  0.00    +0.127 C 
ATOM     10  C   UNL     1      34.956 -21.894 -18.654  0.00  0.00    +0.025 C 
ATOM     11  C   UNL     1      33.587 -21.824 -18.443  0.00  0.00    +0.142 C 
ATOM     12  C   UNL     1      33.214 -24.230 -14.992  0.00  0.00    +0.074 C 
ATOM     13  C   UNL     1      32.108 -22.853 -16.664  0.00  0.00    +0.016 C 
ATOM     14  C   UNL     1      34.536 -23.965 -15.661  0.00  0.00    +0.252 C 
ATOM     15  C   UNL     1      35.490 -21.219 -19.725  0.00  0.00    -0.020 C 
ATOM     16  C   UNL     1      33.194 -25.120 -13.795  0.00  0.00    +0.239 C 
ATOM     17  C   UNL     1      30.911 -24.305 -13.331  0.00  0.00    +0.346 C 
ATOM     18  C   UNL     1      34.618 -20.493 -20.553  0.00  0.00    +0.025 C 
ATOM     19  C   UNL     1      33.227 -20.485 -20.252  0.00  0.00    +0.113 C 
ATOM     20  C   UNL     1      35.102 -19.784 -21.664  0.00  0.00    +0.038 C 
ATOM     21  C   UNL     1      32.382 -19.760 -21.086  0.00  0.00    +0.088 C 
ATOM     22  C   UNL     1      34.229 -19.067 -22.479  0.00  0.00    +0.130 C 
ATOM     23  C   UNL     1      32.870 -19.054 -22.189  0.00  0.00    +0.018 C 
ENDROOT
BRANCH   8  24
ATOM     24  O   UNL     1      29.924 -22.837 -14.858  0.00  0.00    -0.373 OA
ATOM     25  H   UNL     1      30.450 -22.064 -15.113  0.00  0.00    +0.211 HD
ENDBRANCH   8  24
BRANCH  22  26
ATOM     26  O   UNL     1      34.705 -18.382 -23.553  0.00  0.00    -0.506 OA
ATOM     27  H   UNL     1      34.716 -18.785 -24.399  0.00  0.00    +0.292 HD
ENDBRANCH  22  26
BRANCH   8  28
ATOM     28  C   UNL     1      30.044 -25.155 -15.507  0.00  0.00    +0.042 C 
ATOM     29  C   UNL     1      28.817 -24.673 -16.256  0.00  0.00    +0.003 C 
ENDBRANCH   8  28
BRANCH  15  30
ATOM     30  C   UNL     1      36.962 -21.286 -19.964  0.00  0.00    +0.026 C 
ATOM     31  C   UNL     1      37.574 -19.917 -20.059  0.00  0.00    +0.005 C 
ENDBRANCH  15  30
TORSDOF 4
ENDMDL
MODEL 5
REMARK VINA RESULT:      -8.7      6.774     10.243
REMARK  Name = 104842
REMARK  4 active torsions:
REMARK  status: ('A' for Active; 'I' for Inactive)
REMARK    1  A    between atoms: C_8  and  O_24
REMARK    2  A    between atoms: C_8  and  C_28
REMARK    3  A    between atoms: C_15  and  C_30
REMARK    4  A    between atoms: C_22  and  O_26
REMARK                            x       y       z     vdW  Elec       q    Type
REMARK                         _______ _______ _______ _____ _____    ______ ____
ROOT
ATOM      1  O   UNL     1      33.861 -19.424 -22.153  0.00  0.00    -0.442 OA
ATOM      2  O   UNL     1      31.690 -16.360 -20.202  0.00  0.00    -0.270 OA
ATOM      3  O   UNL     1      34.956 -19.954 -24.040  0.00  0.00    -0.247 OA
ATOM      4  N   UNL     1      32.633 -14.748 -21.565  0.00  0.00    -0.249 N 
ATOM      5  N   UNL     1      34.145 -12.245 -23.660  0.00  0.00    -0.405 NA
ATOM      6  C   UNL     1      33.553 -14.394 -22.539  0.00  0.00    +0.084 C 
ATOM      7  C   UNL     1      34.291 -16.680 -22.650  0.00  0.00    +0.017 C 
ATOM      8  C   UNL     1      35.234 -17.695 -23.234  0.00  0.00    +0.196 C 
ATOM      9  C   UNL     1      31.852 -13.575 -21.123  0.00  0.00    +0.127 C 
ATOM     10  C   UNL     1      32.429 -12.478 -21.957  0.00  0.00    +0.025 C 
ATOM     11  C   UNL     1      33.428 -12.965 -22.788  0.00  0.00    +0.142 C 
ATOM     12  C   UNL     1      33.416 -17.046 -21.697  0.00  0.00    +0.074 C 
ATOM     13  C   UNL     1      34.375 -15.294 -23.086  0.00  0.00    +0.016 C 
ATOM     14  C   UNL     1      32.491 -16.033 -21.075  0.00  0.00    +0.252 C 
ATOM     15  C   UNL     1      32.124 -11.139 -22.013  0.00  0.00    -0.020 C 
ATOM     16  C   UNL     1      33.347 -18.455 -21.214  0.00  0.00    +0.239 C 
ATOM     17  C   UNL     1      34.666 -19.110 -23.195  0.00  0.00    +0.346 C 
ATOM     18  C   UNL     1      32.843 -10.333 -22.911  0.00  0.00    +0.025 C 
ATOM     19  C   UNL     1      33.851 -10.929 -23.720  0.00  0.00    +0.113 C 
ATOM     20  C   UNL     1      32.580  -8.957 -23.014  0.00  0.00    +0.038 C 
ATOM     21  C   UNL     1      34.550 -10.111 -24.601  0.00  0.00    +0.088 C 
ATOM     22  C   UNL     1      33.298  -8.166 -23.907  0.00  0.00    +0.130 C 
ATOM     23  C   UNL     1      34.282  -8.742 -24.701  0.00  0.00    +0.018 C 
ENDROOT
BRANCH   8  24
ATOM     24  O   UNL     1      35.432 -17.426 -24.624  0.00  0.00    -0.373 OA
ATOM     25  H   UNL     1      34.572 -17.368 -25.068  0.00  0.00    +0.211 HD
ENDBRANCH   8  24
BRANCH  22  26
ATOM     26  O   UNL     1      33.037  -6.834 -24.002  0.00  0.00    -0.506 OA
ATOM     27  H   UNL     1      33.385  -6.242 -23.366  0.00  0.00    +0.292 HD
ENDBRANCH  22  26
BRANCH   8  28
ATOM     28  C   UNL     1      36.591 -17.676 -22.527  0.00  0.00    +0.042 C 
ATOM     29  C   UNL     1      36.679 -18.764 -21.475  0.00  0.00    +0.003 C 
ENDBRANCH   8  28
BRANCH  15  30
ATOM     30  C   UNL     1      31.051 -10.602 -21.125  0.00  0.00    +0.026 C 
ATOM     31  C   UNL     1      31.565 -10.311 -19.743  0.00  0.00    +0.005 C 
ENDBRANCH  15  30
TORSDOF 4
ENDMDL
MODEL 6
REMARK VINA RESULT:      -8.0      3.271      5.878
REMARK  Name = 104842
REMARK  4 active torsions:
REMARK  status: ('A' for Active; 'I' for Inactive)
REMARK    1  A    between atoms: C_8  and  O_24
REMARK    2  A    between atoms: C_8  and  C_28
REMARK    3  A    between atoms: C_15  and  C_30
REMARK    4  A    between atoms: C_22  and  O_26
REMARK                            x       y       z     vdW  Elec       q    Type
REMARK                         _______ _______ _______ _____ _____    ______ ____
ROOT
ATOM      1  O   UNL     1      39.196 -24.359 -13.119  0.00  0.00    -0.442 OA
ATOM      2  O   UNL     1      37.509 -22.644 -16.601  0.00  0.00    -0.270 OA
ATOM      3  O   UNL     1      38.753 -25.003 -11.015  0.00  0.00    -0.247 OA
ATOM      4  N   UNL     1      35.378 -23.229 -15.922  0.00  0.00    -0.249 N 
ATOM      5  N   UNL     1      32.071 -24.189 -14.878  0.00  0.00    -0.405 NA
ATOM      6  C   UNL     1      34.545 -23.898 -15.040  0.00  0.00    +0.084 C 
ATOM      7  C   UNL     1      36.470 -24.625 -13.797  0.00  0.00    +0.017 C 
ATOM      8  C   UNL     1      37.031 -25.425 -12.654  0.00  0.00    +0.196 C 
ATOM      9  C   UNL     1      34.597 -22.552 -16.977  0.00  0.00    +0.127 C 
ATOM     10  C   UNL     1      33.193 -22.908 -16.610  0.00  0.00    +0.025 C 
ATOM     11  C   UNL     1      33.168 -23.699 -15.471  0.00  0.00    +0.142 C 
ATOM     12  C   UNL     1      37.301 -23.995 -14.647  0.00  0.00    +0.074 C 
ATOM     13  C   UNL     1      35.031 -24.587 -14.004  0.00  0.00    +0.016 C 
ATOM     14  C   UNL     1      36.757 -23.221 -15.819  0.00  0.00    +0.252 C 
ATOM     15  C   UNL     1      32.000 -22.580 -17.207  0.00  0.00    -0.020 C 
ATOM     16  C   UNL     1      38.780 -24.057 -14.468  0.00  0.00    +0.239 C 
ATOM     17  C   UNL     1      38.384 -24.901 -12.183  0.00  0.00    +0.346 C 
ATOM     18  C   UNL     1      30.814 -23.064 -16.629  0.00  0.00    +0.025 C 
ATOM     19  C   UNL     1      30.896 -23.870 -15.458  0.00  0.00    +0.113 C 
ATOM     20  C   UNL     1      29.563 -22.765 -17.191  0.00  0.00    +0.038 C 
ATOM     21  C   UNL     1      29.709 -24.339 -14.904  0.00  0.00    +0.088 C 
ATOM     22  C   UNL     1      28.394 -23.249 -16.611  0.00  0.00    +0.130 C 
ATOM     23  C   UNL     1      28.467 -24.035 -15.468  0.00  0.00    +0.018 C 
ENDROOT
BRANCH   8  24
ATOM     24  O   UNL     1      36.180 -25.297 -11.512  0.00  0.00    -0.373 OA
ATOM     25  H   UNL     1      35.269 -25.511 -11.763  0.00  0.00    +0.211 HD
ENDBRANCH   8  24
BRANCH  22  26
ATOM     26  O   UNL     1      27.185 -22.954 -17.162  0.00  0.00    -0.506 OA
ATOM     27  H   UNL     1      26.504 -22.592 -16.630  0.00  0.00    +0.292 HD
ENDBRANCH  22  26
BRANCH   8  28
ATOM     28  C   UNL     1      37.161 -26.907 -13.013  0.00  0.00    +0.042 C 
ATOM     29  C   UNL     1      37.196 -27.107 -14.515  0.00  0.00    +0.003 C 
ENDBRANCH   8  28
BRANCH  15  30
ATOM     30  C   UNL     1      32.012 -21.729 -18.434  0.00  0.00    +0.026 C 
ATOM     31  C   UNL     1      33.220 -21.998 -19.286  0.00  0.00    +0.005 C 
ENDBRANCH  15  30
TORSDOF 4
ENDMDL
