MODEL 1
REMARK VINA RESULT:      -8.8      0.000      0.000
REMARK  Name = 7075
REMARK  3 active torsions:
REMARK  status: ('A' for Active; 'I' for Inactive)
REMARK    1  A    between atoms: C_1  and  C_7
REMARK    2  A    between atoms: C_4  and  O_13
REMARK    3  A    between atoms: C_6  and  O_15
REMARK                            x       y       z     vdW  Elec       q    Type
REMARK                         _______ _______ _______ _____ _____    ______ ____
ROOT
ATOM      1  C   UNL     1      34.603 -18.838 -22.569  0.00  0.00    +0.003 C 
ATOM      2  C   UNL     1      34.800 -17.470 -22.376  0.00  0.00    +0.040 C 
ATOM      3  C   UNL     1      34.475 -19.348 -23.861  0.00  0.00    +0.003 C 
ATOM      4  C   UNL     1      34.868 -16.613 -23.474  0.00  0.00    +0.167 C 
ATOM      5  C   UNL     1      34.543 -18.491 -24.959  0.00  0.00    +0.040 C 
ATOM      6  C   UNL     1      34.739 -17.124 -24.766  0.00  0.00    +0.167 C 
ENDROOT
BRANCH   1   7
ATOM      7  C   UNL     1      34.531 -19.726 -21.430  0.00  0.00    +0.000 C 
ATOM      8  C   UNL     1      33.290 -20.068 -20.890  0.00  0.00    +0.000 C 
ATOM      9  C   UNL     1      35.700 -20.240 -20.870  0.00  0.00    +0.000 C 
ATOM     10  C   UNL     1      33.220 -20.925 -19.792  0.00  0.00    +0.000 C 
ATOM     11  C   UNL     1      35.630 -21.096 -19.772  0.00  0.00    +0.000 C 
ATOM     12  C   UNL     1      34.390 -21.439 -19.232  0.00  0.00    +0.000 C 
ENDBRANCH   1   7
BRANCH   4  13
ATOM     13  O   UNL     1      35.060 -15.280 -23.273  0.00  0.00    -0.503 OA
ATOM     14  H   UNL     1      35.782 -14.983 -22.756  0.00  0.00    +0.292 HD
ENDBRANCH   4  13
BRANCH   6  15
ATOM     15  O   UNL     1      34.805 -16.297 -25.847  0.00  0.00    -0.503 OA
ATOM     16  H   UNL     1      35.077 -16.632 -26.678  0.00  0.00    +0.292 HD
ENDBRANCH   6  15
TORSDOF 3
ENDMDL
MODEL 2
REMARK VINA RESULT:      -8.8      3.379      5.762
REMARK  Name = 7075
REMARK  3 active torsions:
REMARK  status: ('A' for Active; 'I' for Inactive)
REMARK    1  A    between atoms: C_1  and  C_7
REMARK    2  A    between atoms: C_4  and  O_13
REMARK    3  A    between atoms: C_6  and  O_15
REMARK                            x       y       z     vdW  Elec       q    Type
REMARK                         _______ _______ _______ _____ _____    ______ ____
ROOT
ATOM      1  C   UNL     1      34.960 -19.845 -20.903  0.00  0.00    +0.003 C 
ATOM      2  C   UNL     1      33.770 -20.415 -20.449  0.00  0.00    +0.040 C 
ATOM      3  C   UNL     1      36.181 -20.280 -20.390  0.00  0.00    +0.003 C 
ATOM      4  C   UNL     1      33.802 -21.419 -19.482  0.00  0.00    +0.167 C 
ATOM      5  C   UNL     1      36.213 -21.284 -19.421  0.00  0.00    +0.040 C 
ATOM      6  C   UNL     1      35.024 -21.853 -18.967  0.00  0.00    +0.167 C 
ENDROOT
BRANCH   1   7
ATOM      7  C   UNL     1      34.927 -18.803 -21.906  0.00  0.00    +0.000 C 
ATOM      8  C   UNL     1      34.998 -17.464 -21.522  0.00  0.00    +0.000 C 
ATOM      9  C   UNL     1      34.822 -19.136 -23.256  0.00  0.00    +0.000 C 
ATOM     10  C   UNL     1      34.966 -16.458 -22.489  0.00  0.00    +0.000 C 
ATOM     11  C   UNL     1      34.790 -18.131 -24.222  0.00  0.00    +0.000 C 
ATOM     12  C   UNL     1      34.862 -16.792 -23.839  0.00  0.00    +0.000 C 
ENDBRANCH   1   7
BRANCH   4  13
ATOM     13  O   UNL     1      32.634 -21.966 -19.046  0.00  0.00    -0.503 OA
ATOM     14  H   UNL     1      32.642 -22.778 -18.579  0.00  0.00    +0.292 HD
ENDBRANCH   4  13
BRANCH   6  15
ATOM     15  O   UNL     1      35.068 -22.833 -18.023  0.00  0.00    -0.503 OA
ATOM     16  H   UNL     1      35.756 -22.841 -17.387  0.00  0.00    +0.292 HD
ENDBRANCH   6  15
TORSDOF 3
ENDMDL
MODEL 3
REMARK VINA RESULT:      -8.8      3.420      5.788
REMARK  Name = 7075
REMARK  3 active torsions:
REMARK  status: ('A' for Active; 'I' for Inactive)
REMARK    1  A    between atoms: C_1  and  C_7
REMARK    2  A    between atoms: C_4  and  O_13
REMARK    3  A    between atoms: C_6  and  O_15
REMARK                            x       y       z     vdW  Elec       q    Type
REMARK                         _______ _______ _______ _____ _____    ______ ____
ROOT
ATOM      1  C   UNL     1      34.962 -19.943 -20.844  0.00  0.00    +0.003 C 
ATOM      2  C   UNL     1      33.765 -20.492 -20.383  0.00  0.00    +0.040 C 
ATOM      3  C   UNL     1      36.178 -20.385 -20.322  0.00  0.00    +0.003 C 
ATOM      4  C   UNL     1      33.784 -21.481 -19.400  0.00  0.00    +0.167 C 
ATOM      5  C   UNL     1      36.196 -21.374 -19.339  0.00  0.00    +0.040 C 
ATOM      6  C   UNL     1      35.000 -21.922 -18.878  0.00  0.00    +0.167 C 
ENDROOT
BRANCH   1   7
ATOM      7  C   UNL     1      34.943 -18.916 -21.863  0.00  0.00    +0.000 C 
ATOM      8  C   UNL     1      34.818 -19.271 -23.207  0.00  0.00    +0.000 C 
ATOM      9  C   UNL     1      35.051 -17.573 -21.503  0.00  0.00    +0.000 C 
ATOM     10  C   UNL     1      34.800 -18.281 -24.190  0.00  0.00    +0.000 C 
ATOM     11  C   UNL     1      35.032 -16.585 -22.486  0.00  0.00    +0.000 C 
ATOM     12  C   UNL     1      34.907 -16.938 -23.830  0.00  0.00    +0.000 C 
ENDBRANCH   1   7
BRANCH   4  13
ATOM     13  O   UNL     1      32.608 -22.008 -18.958  0.00  0.00    -0.503 OA
ATOM     14  H   UNL     1      32.409 -22.908 -19.119  0.00  0.00    +0.292 HD
ENDBRANCH   4  13
BRANCH   6  15
ATOM     15  O   UNL     1      35.031 -22.888 -17.918  0.00  0.00    -0.503 OA
ATOM     16  H   UNL     1      34.957 -23.790 -18.158  0.00  0.00    +0.292 HD
ENDBRANCH   6  15
TORSDOF 3
ENDMDL
MODEL 4
REMARK VINA RESULT:      -8.7      1.056      1.294
REMARK  Name = 7075
REMARK  3 active torsions:
REMARK  status: ('A' for Active; 'I' for Inactive)
REMARK    1  A    between atoms: C_1  and  C_7
REMARK    2  A    between atoms: C_4  and  O_13
REMARK    3  A    between atoms: C_6  and  O_15
REMARK                            x       y       z     vdW  Elec       q    Type
REMARK                         _______ _______ _______ _____ _____    ______ ____
ROOT
ATOM      1  C   UNL     1      34.784 -18.967 -21.513  0.00  0.00    +0.003 C 
ATOM      2  C   UNL     1      34.704 -17.663 -21.023  0.00  0.00    +0.040 C 
ATOM      3  C   UNL     1      35.052 -19.189 -22.863  0.00  0.00    +0.003 C 
ATOM      4  C   UNL     1      34.891 -16.582 -21.884  0.00  0.00    +0.167 C 
ATOM      5  C   UNL     1      35.238 -18.107 -23.725  0.00  0.00    +0.040 C 
ATOM      6  C   UNL     1      35.157 -16.804 -23.235  0.00  0.00    +0.167 C 
ENDROOT
BRANCH   1   7
ATOM      7  C   UNL     1      34.590 -20.089 -20.620  0.00  0.00    +0.000 C 
ATOM      8  C   UNL     1      33.301 -20.456 -20.233  0.00  0.00    +0.000 C 
ATOM      9  C   UNL     1      35.690 -20.802 -20.146  0.00  0.00    +0.000 C 
ATOM     10  C   UNL     1      33.113 -21.537 -19.372  0.00  0.00    +0.000 C 
ATOM     11  C   UNL     1      35.502 -21.883 -19.285  0.00  0.00    +0.000 C 
ATOM     12  C   UNL     1      34.214 -22.251 -18.898  0.00  0.00    +0.000 C 
ENDBRANCH   1   7
BRANCH   4  13
ATOM     13  O   UNL     1      34.809 -15.314 -21.394  0.00  0.00    -0.503 OA
ATOM     14  H   UNL     1      33.977 -14.888 -21.333  0.00  0.00    +0.292 HD
ENDBRANCH   4  13
BRANCH   6  15
ATOM     15  O   UNL     1      35.342 -15.756 -24.086  0.00  0.00    -0.503 OA
ATOM     16  H   UNL     1      36.197 -15.394 -24.204  0.00  0.00    +0.292 HD
ENDBRANCH   6  15
TORSDOF 3
ENDMDL
MODEL 5
REMARK VINA RESULT:      -8.6      0.996      2.308
REMARK  Name = 7075
REMARK  3 active torsions:
REMARK  status: ('A' for Active; 'I' for Inactive)
REMARK    1  A    between atoms: C_1  and  C_7
REMARK    2  A    between atoms: C_4  and  O_13
REMARK    3  A    between atoms: C_6  and  O_15
REMARK                            x       y       z     vdW  Elec       q    Type
REMARK                         _______ _______ _______ _____ _____    ______ ____
ROOT
ATOM      1  C   UNL     1      34.750 -18.866 -21.609  0.00  0.00    +0.003 C 
ATOM      2  C   UNL     1      34.646 -19.075 -22.985  0.00  0.00    +0.040 C 
ATOM      3  C   UNL     1      34.902 -17.573 -21.111  0.00  0.00    +0.003 C 
ATOM      4  C   UNL     1      34.696 -17.992 -23.861  0.00  0.00    +0.167 C 
ATOM      5  C   UNL     1      34.951 -16.489 -21.987  0.00  0.00    +0.040 C 
ATOM      6  C   UNL     1      34.849 -16.698 -23.362  0.00  0.00    +0.167 C 
ENDROOT
BRANCH   1   7
ATOM      7  C   UNL     1      34.699 -19.991 -20.701  0.00  0.00    +0.000 C 
ATOM      8  C   UNL     1      35.883 -20.570 -20.243  0.00  0.00    +0.000 C 
ATOM      9  C   UNL     1      33.469 -20.497 -20.284  0.00  0.00    +0.000 C 
ATOM     10  C   UNL     1      35.836 -21.655 -19.367  0.00  0.00    +0.000 C 
ATOM     11  C   UNL     1      33.421 -21.581 -19.408  0.00  0.00    +0.000 C 
ATOM     12  C   UNL     1      34.604 -22.160 -18.949  0.00  0.00    +0.000 C 
ENDBRANCH   1   7
BRANCH   4  13
ATOM     13  O   UNL     1      34.595 -18.209 -25.202  0.00  0.00    -0.503 OA
ATOM     14  H   UNL     1      34.493 -19.080 -25.529  0.00  0.00    +0.292 HD
ENDBRANCH   4  13
BRANCH   6  15
ATOM     15  O   UNL     1      34.898 -15.631 -24.208  0.00  0.00    -0.503 OA
ATOM     16  H   UNL     1      34.130 -15.367 -24.674  0.00  0.00    +0.292 HD
ENDBRANCH   6  15
TORSDOF 3
ENDMDL
MODEL 6
REMARK VINA RESULT:      -8.6      0.996      1.914
REMARK  Name = 7075
REMARK  3 active torsions:
REMARK  status: ('A' for Active; 'I' for Inactive)
REMARK    1  A    between atoms: C_1  and  C_7
REMARK    2  A    between atoms: C_4  and  O_13
REMARK    3  A    between atoms: C_6  and  O_15
REMARK                            x       y       z     vdW  Elec       q    Type
REMARK                         _______ _______ _______ _____ _____    ______ ____
ROOT
ATOM      1  C   UNL     1      34.751 -18.867 -21.610  0.00  0.00    +0.003 C 
ATOM      2  C   UNL     1      34.646 -19.075 -22.986  0.00  0.00    +0.040 C 
ATOM      3  C   UNL     1      34.903 -17.574 -21.110  0.00  0.00    +0.003 C 
ATOM      4  C   UNL     1      34.694 -17.990 -23.861  0.00  0.00    +0.167 C 
ATOM      5  C   UNL     1      34.950 -16.489 -21.985  0.00  0.00    +0.040 C 
ATOM      6  C   UNL     1      34.846 -16.697 -23.360  0.00  0.00    +0.167 C 
ENDROOT
BRANCH   1   7
ATOM      7  C   UNL     1      34.703 -19.993 -20.702  0.00  0.00    +0.000 C 
ATOM      8  C   UNL     1      33.472 -20.497 -20.283  0.00  0.00    +0.000 C 
ATOM      9  C   UNL     1      35.886 -20.572 -20.246  0.00  0.00    +0.000 C 
ATOM     10  C   UNL     1      33.425 -21.583 -19.408  0.00  0.00    +0.000 C 
ATOM     11  C   UNL     1      35.839 -21.657 -19.371  0.00  0.00    +0.000 C 
ATOM     12  C   UNL     1      34.609 -22.163 -18.951  0.00  0.00    +0.000 C 
ENDBRANCH   1   7
BRANCH   4  13
ATOM     13  O   UNL     1      34.591 -18.206 -25.202  0.00  0.00    -0.503 OA
ATOM     14  H   UNL     1      34.494 -19.077 -25.530  0.00  0.00    +0.292 HD
ENDBRANCH   4  13
BRANCH   6  15
ATOM     15  O   UNL     1      34.893 -15.629 -24.205  0.00  0.00    -0.503 OA
ATOM     16  H   UNL     1      34.994 -14.763 -23.861  0.00  0.00    +0.292 HD
ENDBRANCH   6  15
TORSDOF 3
ENDMDL
MODEL 7
REMARK VINA RESULT:      -8.5      3.367      5.720
REMARK  Name = 7075
REMARK  3 active torsions:
REMARK  status: ('A' for Active; 'I' for Inactive)
REMARK    1  A    between atoms: C_1  and  C_7
REMARK    2  A    between atoms: C_4  and  O_13
REMARK    3  A    between atoms: C_6  and  O_15
REMARK                            x       y       z     vdW  Elec       q    Type
REMARK                         _______ _______ _______ _____ _____    ______ ____
ROOT
ATOM      1  C   UNL     1      34.678 -19.872 -20.886  0.00  0.00    +0.003 C 
ATOM      2  C   UNL     1      35.831 -20.363 -20.272  0.00  0.00    +0.040 C 
ATOM      3  C   UNL     1      33.432 -20.397 -20.547  0.00  0.00    +0.003 C 
ATOM      4  C   UNL     1      35.737 -21.379 -19.321  0.00  0.00    +0.167 C 
ATOM      5  C   UNL     1      33.337 -21.413 -19.596  0.00  0.00    +0.040 C 
ATOM      6  C   UNL     1      34.489 -21.904 -18.983  0.00  0.00    +0.167 C 
ENDROOT
BRANCH   1   7
ATOM      7  C   UNL     1      34.776 -18.819 -21.872  0.00  0.00    +0.000 C 
ATOM      8  C   UNL     1      34.793 -19.137 -23.231  0.00  0.00    +0.000 C 
ATOM      9  C   UNL     1      34.856 -17.487 -21.467  0.00  0.00    +0.000 C 
ATOM     10  C   UNL     1      34.888 -18.122 -24.184  0.00  0.00    +0.000 C 
ATOM     11  C   UNL     1      34.950 -16.473 -22.419  0.00  0.00    +0.000 C 
ATOM     12  C   UNL     1      34.966 -16.790 -23.777  0.00  0.00    +0.000 C 
ENDBRANCH   1   7
BRANCH   4  13
ATOM     13  O   UNL     1      36.870 -21.850 -18.730  0.00  0.00    -0.503 OA
ATOM     14  H   UNL     1      37.708 -21.544 -19.013  0.00  0.00    +0.292 HD
ENDBRANCH   4  13
BRANCH   6  15
ATOM     15  O   UNL     1      34.384 -22.896 -18.055  0.00  0.00    -0.503 OA
ATOM     16  H   UNL     1      35.145 -23.191 -17.596  0.00  0.00    +0.292 HD
ENDBRANCH   6  15
TORSDOF 3
ENDMDL
MODEL 8
REMARK VINA RESULT:      -8.5      1.089      1.916
REMARK  Name = 7075
REMARK  3 active torsions:
REMARK  status: ('A' for Active; 'I' for Inactive)
REMARK    1  A    between atoms: C_1  and  C_7
REMARK    2  A    between atoms: C_4  and  O_13
REMARK    3  A    between atoms: C_6  and  O_15
REMARK                            x       y       z     vdW  Elec       q    Type
REMARK                         _______ _______ _______ _____ _____    ______ ____
ROOT
ATOM      1  C   UNL     1      34.773 -18.677 -21.492  0.00  0.00    +0.003 C 
ATOM      2  C   UNL     1      34.651 -17.422 -20.893  0.00  0.00    +0.040 C 
ATOM      3  C   UNL     1      34.973 -18.775 -22.869  0.00  0.00    +0.003 C 
ATOM      4  C   UNL     1      34.729 -16.267 -21.671  0.00  0.00    +0.167 C 
ATOM      5  C   UNL     1      35.051 -17.619 -23.647  0.00  0.00    +0.040 C 
ATOM      6  C   UNL     1      34.928 -16.366 -23.048  0.00  0.00    +0.167 C 
ENDROOT
BRANCH   1   7
ATOM      7  C   UNL     1      34.691 -19.875 -20.686  0.00  0.00    +0.000 C 
ATOM      8  C   UNL     1      35.858 -20.533 -20.296  0.00  0.00    +0.000 C 
ATOM      9  C   UNL     1      33.448 -20.373 -20.299  0.00  0.00    +0.000 C 
ATOM     10  C   UNL     1      35.781 -21.688 -19.518  0.00  0.00    +0.000 C 
ATOM     11  C   UNL     1      33.370 -21.528 -19.522  0.00  0.00    +0.000 C 
ATOM     12  C   UNL     1      34.536 -22.186 -19.131  0.00  0.00    +0.000 C 
ENDBRANCH   1   7
BRANCH   4  13
ATOM     13  O   UNL     1      34.607 -15.049 -21.075  0.00  0.00    -0.503 OA
ATOM     14  H   UNL     1      33.863 -14.510 -21.257  0.00  0.00    +0.292 HD
ENDBRANCH   4  13
BRANCH   6  15
ATOM     15  O   UNL     1      35.007 -15.245 -23.818  0.00  0.00    -0.503 OA
ATOM     16  H   UNL     1      35.024 -15.318 -24.752  0.00  0.00    +0.292 HD
ENDBRANCH   6  15
TORSDOF 3
ENDMDL
MODEL 9
REMARK VINA RESULT:      -7.6      6.905      9.732
REMARK  Name = 7075
REMARK  3 active torsions:
REMARK  status: ('A' for Active; 'I' for Inactive)
REMARK    1  A    between atoms: C_1  and  C_7
REMARK    2  A    between atoms: C_4  and  O_13
REMARK    3  A    between atoms: C_6  and  O_15
REMARK                            x       y       z     vdW  Elec       q    Type
REMARK                         _______ _______ _______ _____ _____    ______ ____
ROOT
ATOM      1  C   UNL     1      34.948 -23.308 -15.517  0.00  0.00    +0.003 C 
ATOM      2  C   UNL     1      33.779 -23.915 -15.056  0.00  0.00    +0.040 C 
ATOM      3  C   UNL     1      36.064 -23.224 -14.685  0.00  0.00    +0.003 C 
ATOM      4  C   UNL     1      33.727 -24.438 -13.764  0.00  0.00    +0.167 C 
ATOM      5  C   UNL     1      36.011 -23.746 -13.392  0.00  0.00    +0.040 C 
ATOM      6  C   UNL     1      34.843 -24.352 -12.932  0.00  0.00    +0.167 C 
ENDROOT
BRANCH   1   7
ATOM      7  C   UNL     1      35.003 -22.765 -16.857  0.00  0.00    +0.000 C 
ATOM      8  C   UNL     1      33.892 -22.867 -17.695  0.00  0.00    +0.000 C 
ATOM      9  C   UNL     1      36.165 -22.143 -17.311  0.00  0.00    +0.000 C 
ATOM     10  C   UNL     1      33.943 -22.344 -18.987  0.00  0.00    +0.000 C 
ATOM     11  C   UNL     1      36.216 -21.620 -18.603  0.00  0.00    +0.000 C 
ATOM     12  C   UNL     1      35.106 -21.721 -19.441  0.00  0.00    +0.000 C 
ENDBRANCH   1   7
BRANCH   4  13
ATOM     13  O   UNL     1      32.580 -25.027 -13.327  0.00  0.00    -0.503 OA
ATOM     14  H   UNL     1      31.750 -24.640 -13.523  0.00  0.00    +0.292 HD
ENDBRANCH   4  13
BRANCH   6  15
ATOM     15  O   UNL     1      34.804 -24.860 -11.668  0.00  0.00    -0.503 OA
ATOM     16  H   UNL     1      34.170 -25.511 -11.444  0.00  0.00    +0.292 HD
ENDBRANCH   6  15
TORSDOF 3
ENDMDL
