MODEL 1
REMARK VINA RESULT:      -7.8      0.000      0.000
REMARK  Name = 11833
REMARK  0 active torsions:
REMARK  status: ('A' for Active; 'I' for Inactive)
REMARK                            x       y       z     vdW  Elec       q    Type
REMARK                         _______ _______ _______ _____ _____    ______ ____
ROOT
ATOM      1  O   UNL     1      33.749 -14.967 -24.450  0.00  0.00    -0.421 OA
ATOM      2  O   UNL     1      33.513 -15.481 -26.666  0.00  0.00    -0.244 OA
ATOM      3  C   UNL     1      34.557 -16.679 -22.906  0.00  0.00    +0.031 C 
ATOM      4  C   UNL     1      34.648 -17.617 -24.032  0.00  0.00    -0.012 C 
ATOM      5  C   UNL     1      34.109 -15.380 -23.152  0.00  0.00    +0.148 C 
ATOM      6  C   UNL     1      34.896 -17.011 -21.587  0.00  0.00    +0.003 C 
ATOM      7  C   UNL     1      34.298 -17.197 -25.257  0.00  0.00    +0.078 C 
ATOM      8  C   UNL     1      33.994 -14.426 -22.138  0.00  0.00    +0.038 C 
ATOM      9  C   UNL     1      35.125 -19.021 -23.801  0.00  0.00    +0.031 C 
ATOM     10  C   UNL     1      34.785 -16.066 -20.560  0.00  0.00    +0.000 C 
ATOM     11  C   UNL     1      34.335 -14.776 -20.836  0.00  0.00    +0.003 C 
ATOM     12  C   UNL     1      33.825 -15.830 -25.532  0.00  0.00    +0.346 C 
ENDROOT
TORSDOF 0
ENDMDL
MODEL 2
REMARK VINA RESULT:      -7.7      2.564      3.664
REMARK  Name = 11833
REMARK  0 active torsions:
REMARK  status: ('A' for Active; 'I' for Inactive)
REMARK                            x       y       z     vdW  Elec       q    Type
REMARK                         _______ _______ _______ _____ _____    ______ ____
ROOT
ATOM      1  O   UNL     1      35.272 -17.609 -20.698  0.00  0.00    -0.421 OA
ATOM      2  O   UNL     1      35.813 -19.788 -20.267  0.00  0.00    -0.244 OA
ATOM      3  C   UNL     1      34.614 -16.966 -22.962  0.00  0.00    +0.031 C 
ATOM      4  C   UNL     1      34.798 -18.361 -23.384  0.00  0.00    -0.012 C 
ATOM      5  C   UNL     1      34.858 -16.634 -21.628  0.00  0.00    +0.148 C 
ATOM      6  C   UNL     1      34.205 -15.939 -23.823  0.00  0.00    +0.003 C 
ATOM      7  C   UNL     1      35.192 -19.267 -22.478  0.00  0.00    +0.078 C 
ATOM      8  C   UNL     1      34.707 -15.333 -21.144  0.00  0.00    +0.038 C 
ATOM      9  C   UNL     1      34.544 -18.750 -24.811  0.00  0.00    +0.031 C 
ATOM     10  C   UNL     1      34.050 -14.630 -23.353  0.00  0.00    +0.000 C 
ATOM     11  C   UNL     1      34.301 -14.328 -22.015  0.00  0.00    +0.003 C 
ATOM     12  C   UNL     1      35.452 -18.932 -21.068  0.00  0.00    +0.346 C 
ENDROOT
TORSDOF 0
ENDMDL
MODEL 3
REMARK VINA RESULT:      -7.6      1.267      1.964
REMARK  Name = 11833
REMARK  0 active torsions:
REMARK  status: ('A' for Active; 'I' for Inactive)
REMARK                            x       y       z     vdW  Elec       q    Type
REMARK                         _______ _______ _______ _____ _____    ______ ____
ROOT
ATOM      1  O   UNL     1      33.743 -15.391 -24.462  0.00  0.00    -0.421 OA
ATOM      2  O   UNL     1      34.794 -16.840 -25.885  0.00  0.00    -0.244 OA
ATOM      3  C   UNL     1      33.932 -15.737 -22.050  0.00  0.00    +0.031 C 
ATOM      4  C   UNL     1      34.768 -16.917 -22.310  0.00  0.00    -0.012 C 
ATOM      5  C   UNL     1      33.445 -15.010 -23.138  0.00  0.00    +0.148 C 
ATOM      6  C   UNL     1      33.591 -15.293 -20.766  0.00  0.00    +0.003 C 
ATOM      7  C   UNL     1      35.035 -17.257 -23.580  0.00  0.00    +0.078 C 
ATOM      8  C   UNL     1      32.645 -13.877 -22.979  0.00  0.00    +0.038 C 
ATOM      9  C   UNL     1      35.306 -17.720 -21.163  0.00  0.00    +0.031 C 
ATOM     10  C   UNL     1      32.789 -14.158 -20.591  0.00  0.00    +0.000 C 
ATOM     11  C   UNL     1      32.318 -13.452 -21.696  0.00  0.00    +0.003 C 
ATOM     12  C   UNL     1      34.529 -16.499 -24.737  0.00  0.00    +0.346 C 
ENDROOT
TORSDOF 0
ENDMDL
MODEL 4
REMARK VINA RESULT:      -7.5      1.017      3.006
REMARK  Name = 11833
REMARK  0 active torsions:
REMARK  status: ('A' for Active; 'I' for Inactive)
REMARK                            x       y       z     vdW  Elec       q    Type
REMARK                         _______ _______ _______ _____ _____    ______ ____
ROOT
ATOM      1  O   UNL     1      34.062 -17.086 -25.442  0.00  0.00    -0.421 OA
ATOM      2  O   UNL     1      33.359 -15.355 -26.760  0.00  0.00    -0.244 OA
ATOM      3  C   UNL     1      34.548 -16.672 -23.083  0.00  0.00    +0.031 C 
ATOM      4  C   UNL     1      34.190 -15.261 -23.283  0.00  0.00    -0.012 C 
ATOM      5  C   UNL     1      34.472 -17.541 -24.173  0.00  0.00    +0.148 C 
ATOM      6  C   UNL     1      34.965 -17.202 -21.855  0.00  0.00    +0.003 C 
ATOM      7  C   UNL     1      33.802 -14.856 -24.501  0.00  0.00    +0.078 C 
ATOM      8  C   UNL     1      34.795 -18.896 -24.069  0.00  0.00    +0.038 C 
ATOM      9  C   UNL     1      34.261 -14.301 -22.132  0.00  0.00    +0.031 C 
ATOM     10  C   UNL     1      35.292 -18.558 -21.736  0.00  0.00    +0.000 C 
ATOM     11  C   UNL     1      35.207 -19.403 -22.842  0.00  0.00    +0.003 C 
ATOM     12  C   UNL     1      33.717 -15.761 -25.659  0.00  0.00    +0.346 C 
ENDROOT
TORSDOF 0
ENDMDL
MODEL 5
REMARK VINA RESULT:      -7.4      6.250      7.597
REMARK  Name = 11833
REMARK  0 active torsions:
REMARK  status: ('A' for Active; 'I' for Inactive)
REMARK                            x       y       z     vdW  Elec       q    Type
REMARK                         _______ _______ _______ _____ _____    ______ ____
ROOT
ATOM      1  O   UNL     1      32.603 -21.958 -18.901  0.00  0.00    -0.421 OA
ATOM      2  O   UNL     1      32.366 -23.451 -17.185  0.00  0.00    -0.244 OA
ATOM      3  C   UNL     1      34.830 -21.120 -19.457  0.00  0.00    +0.031 C 
ATOM      4  C   UNL     1      35.384 -21.946 -18.375  0.00  0.00    -0.012 C 
ATOM      5  C   UNL     1      33.453 -21.153 -19.685  0.00  0.00    +0.148 C 
ATOM      6  C   UNL     1      35.606 -20.294 -20.280  0.00  0.00    +0.003 C 
ATOM      7  C   UNL     1      34.551 -22.702 -17.645  0.00  0.00    +0.078 C 
ATOM      8  C   UNL     1      32.847 -20.400 -20.693  0.00  0.00    +0.038 C 
ATOM      9  C   UNL     1      36.859 -21.932 -18.104  0.00  0.00    +0.031 C 
ATOM     10  C   UNL     1      35.012 -19.533 -21.294  0.00  0.00    +0.000 C 
ATOM     11  C   UNL     1      33.634 -19.587 -21.499  0.00  0.00    +0.003 C 
ATOM     12  C   UNL     1      33.098 -22.748 -17.874  0.00  0.00    +0.346 C 
ENDROOT
TORSDOF 0
ENDMDL
MODEL 6
REMARK VINA RESULT:      -7.3      2.065      4.302
REMARK  Name = 11833
REMARK  0 active torsions:
REMARK  status: ('A' for Active; 'I' for Inactive)
REMARK                            x       y       z     vdW  Elec       q    Type
REMARK                         _______ _______ _______ _____ _____    ______ ____
ROOT
ATOM      1  O   UNL     1      35.021 -16.613 -21.473  0.00  0.00    -0.421 OA
ATOM      2  O   UNL     1      34.913 -14.773 -20.119  0.00  0.00    -0.244 OA
ATOM      3  C   UNL     1      34.338 -16.418 -23.811  0.00  0.00    +0.031 C 
ATOM      4  C   UNL     1      34.035 -14.999 -23.578  0.00  0.00    -0.012 C 
ATOM      5  C   UNL     1      34.822 -17.181 -22.747  0.00  0.00    +0.148 C 
ATOM      6  C   UNL     1      34.168 -17.058 -25.046  0.00  0.00    +0.003 C 
ATOM      7  C   UNL     1      34.234 -14.486 -22.356  0.00  0.00    +0.078 C 
ATOM      8  C   UNL     1      35.134 -18.536 -22.883  0.00  0.00    +0.038 C 
ATOM      9  C   UNL     1      33.513 -14.152 -24.701  0.00  0.00    +0.031 C 
ATOM     10  C   UNL     1      34.477 -18.415 -25.198  0.00  0.00    +0.000 C 
ATOM     11  C   UNL     1      34.959 -19.152 -24.117  0.00  0.00    +0.003 C 
ATOM     12  C   UNL     1      34.745 -15.277 -21.225  0.00  0.00    +0.346 C 
ENDROOT
TORSDOF 0
ENDMDL
MODEL 7
REMARK VINA RESULT:      -7.3      1.221      2.941
REMARK  Name = 11833
REMARK  0 active torsions:
REMARK  status: ('A' for Active; 'I' for Inactive)
REMARK                            x       y       z     vdW  Elec       q    Type
REMARK                         _______ _______ _______ _____ _____    ______ ____
ROOT
ATOM      1  O   UNL     1      34.120 -16.223 -24.590  0.00  0.00    -0.421 OA
ATOM      2  O   UNL     1      33.425 -15.507 -26.647  0.00  0.00    -0.244 OA
ATOM      3  C   UNL     1      33.748 -14.799 -22.640  0.00  0.00    +0.031 C 
ATOM      4  C   UNL     1      33.114 -13.806 -23.518  0.00  0.00    -0.012 C 
ATOM      5  C   UNL     1      34.232 -15.979 -23.207  0.00  0.00    +0.148 C 
ATOM      6  C   UNL     1      33.898 -14.632 -21.257  0.00  0.00    +0.003 C 
ATOM      7  C   UNL     1      33.022 -14.064 -24.830  0.00  0.00    +0.078 C 
ATOM      8  C   UNL     1      34.847 -16.974 -22.444  0.00  0.00    +0.038 C 
ATOM      9  C   UNL     1      32.584 -12.527 -22.940  0.00  0.00    +0.031 C 
ATOM     10  C   UNL     1      34.512 -15.621 -20.479  0.00  0.00    +0.000 C 
ATOM     11  C   UNL     1      34.986 -16.790 -21.073  0.00  0.00    +0.003 C 
ATOM     12  C   UNL     1      33.527 -15.305 -25.442  0.00  0.00    +0.346 C 
ENDROOT
TORSDOF 0
ENDMDL
MODEL 8
REMARK VINA RESULT:      -7.2      1.819      3.726
REMARK  Name = 11833
REMARK  0 active torsions:
REMARK  status: ('A' for Active; 'I' for Inactive)
REMARK                            x       y       z     vdW  Elec       q    Type
REMARK                         _______ _______ _______ _____ _____    ______ ____
ROOT
ATOM      1  O   UNL     1      34.170 -14.482 -22.183  0.00  0.00    -0.421 OA
ATOM      2  O   UNL     1      34.941 -15.261 -20.176  0.00  0.00    -0.244 OA
ATOM      3  C   UNL     1      34.162 -15.972 -24.119  0.00  0.00    +0.031 C 
ATOM      4  C   UNL     1      34.728 -17.033 -23.275  0.00  0.00    -0.012 C 
ATOM      5  C   UNL     1      33.901 -14.728 -23.544  0.00  0.00    +0.148 C 
ATOM      6  C   UNL     1      33.867 -16.136 -25.479  0.00  0.00    +0.003 C 
ATOM      7  C   UNL     1      34.974 -16.771 -21.983  0.00  0.00    +0.078 C 
ATOM      8  C   UNL     1      33.364 -13.666 -24.276  0.00  0.00    +0.038 C 
ATOM      9  C   UNL     1      35.020 -18.382 -23.863  0.00  0.00    +0.031 C 
ATOM     10  C   UNL     1      33.328 -15.081 -26.226  0.00  0.00    +0.000 C 
ATOM     11  C   UNL     1      33.077 -13.848 -25.625  0.00  0.00    +0.003 C 
ATOM     12  C   UNL     1      34.702 -15.464 -21.362  0.00  0.00    +0.346 C 
ENDROOT
TORSDOF 0
ENDMDL
MODEL 9
REMARK VINA RESULT:      -7.2      1.951      2.854
REMARK  Name = 11833
REMARK  0 active torsions:
REMARK  status: ('A' for Active; 'I' for Inactive)
REMARK                            x       y       z     vdW  Elec       q    Type
REMARK                         _______ _______ _______ _____ _____    ______ ____
ROOT
ATOM      1  O   UNL     1      34.926 -18.399 -22.906  0.00  0.00    -0.421 OA
ATOM      2  O   UNL     1      34.980 -19.916 -24.616  0.00  0.00    -0.244 OA
ATOM      3  C   UNL     1      34.274 -16.092 -23.376  0.00  0.00    +0.031 C 
ATOM      4  C   UNL     1      34.101 -16.455 -24.789  0.00  0.00    -0.012 C 
ATOM      5  C   UNL     1      34.682 -17.079 -22.478  0.00  0.00    +0.148 C 
ATOM      6  C   UNL     1      34.053 -14.804 -22.871  0.00  0.00    +0.003 C 
ATOM      7  C   UNL     1      34.339 -17.718 -25.168  0.00  0.00    +0.078 C 
ATOM      8  C   UNL     1      34.871 -16.818 -21.119  0.00  0.00    +0.038 C 
ATOM      9  C   UNL     1      33.663 -15.416 -25.780  0.00  0.00    +0.031 C 
ATOM     10  C   UNL     1      34.238 -14.527 -21.511  0.00  0.00    +0.000 C 
ATOM     11  C   UNL     1      34.646 -15.534 -20.637  0.00  0.00    +0.003 C 
ATOM     12  C   UNL     1      34.770 -18.770 -24.233  0.00  0.00    +0.346 C 
ENDROOT
TORSDOF 0
ENDMDL
