MODEL 1
REMARK VINA RESULT:     -11.8      0.000      0.000
REMARK  Name = 4369497
REMARK  6 active torsions:
REMARK  status: ('A' for Active; 'I' for Inactive)
REMARK    1  A    between atoms: N_2  and  C_9
REMARK    2  A    between atoms: C_5  and  C_21
REMARK    3  A    between atoms: C_8  and  S_14
REMARK    4  A    between atoms: C_12  and  O_19
REMARK    5  A    between atoms: S_14  and  C_17
REMARK    6  A    between atoms: C_22  and  C_28
REMARK                            x       y       z     vdW  Elec       q    Type
REMARK                         _______ _______ _______ _____ _____    ______ ____
ROOT
ATOM      1  O   UNL     1      33.544 -20.535 -20.370  0.00  0.00    -0.424 OA
ATOM      2  N   UNL     1      32.878 -21.925 -18.667  0.00  0.00    -0.265 N 
ATOM      3  N   UNL     1      35.191 -21.429 -19.104  0.00  0.00    -0.193 NA
ATOM      4  C   UNL     1      33.900 -21.335 -19.328  0.00  0.00    +0.293 C 
ATOM      5  C   UNL     1      34.737 -20.088 -20.837  0.00  0.00    +0.168 C 
ATOM      6  C   UNL     1      35.735 -20.627 -20.075  0.00  0.00    +0.141 C 
ATOM      7  H   UNL     1      31.991 -21.796 -19.075  0.00  0.00    +0.157 HD
ENDROOT
BRANCH   2   9
ATOM      8  C   UNL     1      34.100 -23.993 -15.849  0.00  0.00    +0.107 C 
ATOM      9  C   UNL     1      32.881 -22.701 -17.474  0.00  0.00    +0.087 C 
ATOM     10  C   UNL     1      34.083 -23.230 -17.017  0.00  0.00    +0.036 C 
ATOM     11  C   UNL     1      32.916 -24.221 -15.148  0.00  0.00    +0.022 C 
ATOM     12  C   UNL     1      31.697 -22.923 -16.782  0.00  0.00    +0.152 C 
ATOM     13  C   UNL     1      31.715 -23.686 -15.614  0.00  0.00    +0.040 C 
BRANCH   8  14
ATOM     14  S   UNL     1      35.603 -24.663 -15.266  0.00  0.00    +0.009 S 
ATOM     15  O   UNL     1      35.607 -26.086 -15.573  0.00  0.00    -0.169 OA
ATOM     16  O   UNL     1      36.702 -23.822 -15.717  0.00  0.00    -0.169 OA
BRANCH  14  17
ATOM     17  C   UNL     1      35.507 -24.487 -13.498  0.00  0.00    +0.156 C 
ATOM     18  C   UNL     1      36.446 -23.412 -12.997  0.00  0.00    +0.028 C 
ENDBRANCH  14  17
ENDBRANCH   8  14
BRANCH  12  19
ATOM     19  O   UNL     1      30.514 -22.411 -17.221  0.00  0.00    -0.470 OA
ATOM     20  C   UNL     1      29.337 -22.802 -16.516  0.00  0.00    +0.253 C 
ENDBRANCH  12  19
ENDBRANCH   2   9
BRANCH   5  21
ATOM     21  C   UNL     1      34.679 -19.197 -21.971  0.00  0.00    +0.036 C 
ATOM     22  C   UNL     1      34.200 -17.017 -22.898  0.00  0.00    +0.018 C 
ATOM     23  C   UNL     1      34.258 -17.878 -21.801  0.00  0.00    +0.005 C 
ATOM     24  C   UNL     1      35.042 -19.656 -23.237  0.00  0.00    +0.003 C 
ATOM     25  C   UNL     1      34.563 -17.476 -24.163  0.00  0.00    +0.001 C 
ATOM     26  C   UNL     1      34.984 -18.795 -24.333  0.00  0.00    +0.000 C 
BRANCH  22  28
ATOM     27  N   UNL     1      34.200 -14.788 -23.666  0.00  0.00    -0.244 NA
ATOM     28  C   UNL     1      33.763 -15.649 -22.722  0.00  0.00    +0.081 C 
ATOM     29  C   UNL     1      32.958 -15.293 -21.653  0.00  0.00    +0.019 C 
ATOM     30  C   UNL     1      32.576 -13.960 -21.547  0.00  0.00    +0.003 C 
ATOM     31  C   UNL     1      33.808 -13.501 -23.529  0.00  0.00    +0.099 C 
ATOM     32  C   UNL     1      33.005 -13.041 -22.498  0.00  0.00    +0.021 C 
ENDBRANCH  22  28
ENDBRANCH   5  21
TORSDOF 6
ENDMDL
MODEL 2
REMARK VINA RESULT:     -11.8      6.047     10.905
REMARK  Name = 4369497
REMARK  6 active torsions:
REMARK  status: ('A' for Active; 'I' for Inactive)
REMARK    1  A    between atoms: N_2  and  C_9
REMARK    2  A    between atoms: C_5  and  C_21
REMARK    3  A    between atoms: C_8  and  S_14
REMARK    4  A    between atoms: C_12  and  O_19
REMARK    5  A    between atoms: S_14  and  C_17
REMARK    6  A    between atoms: C_22  and  C_28
REMARK                            x       y       z     vdW  Elec       q    Type
REMARK                         _______ _______ _______ _____ _____    ______ ____
ROOT
ATOM      1  O   UNL     1      32.600 -11.012 -22.884  0.00  0.00    -0.424 OA
ATOM      2  N   UNL     1      32.831 -13.265 -23.269  0.00  0.00    -0.265 N 
ATOM      3  N   UNL     1      34.212 -11.619 -24.350  0.00  0.00    -0.193 NA
ATOM      4  C   UNL     1      33.255 -12.010 -23.540  0.00  0.00    +0.293 C 
ATOM      5  C   UNL     1      33.216  -9.891 -23.336  0.00  0.00    +0.168 C 
ATOM      6  C   UNL     1      34.190 -10.253 -24.222  0.00  0.00    +0.141 C 
ATOM      7  H   UNL     1      32.025 -13.318 -22.706  0.00  0.00    +0.157 HD
ENDROOT
BRANCH   2   9
ATOM      8  C   UNL     1      34.498 -16.566 -23.084  0.00  0.00    +0.107 C 
ATOM      9  C   UNL     1      33.368 -14.522 -23.666  0.00  0.00    +0.087 C 
ATOM     10  C   UNL     1      33.968 -15.332 -22.708  0.00  0.00    +0.036 C 
ATOM     11  C   UNL     1      34.426 -16.980 -24.414  0.00  0.00    +0.022 C 
ATOM     12  C   UNL     1      33.292 -14.927 -24.993  0.00  0.00    +0.152 C 
ATOM     13  C   UNL     1      33.823 -16.161 -25.368  0.00  0.00    +0.040 C 
BRANCH   8  14
ATOM     14  S   UNL     1      35.254 -17.592 -21.891  0.00  0.00    +0.009 S 
ATOM     15  O   UNL     1      36.503 -18.088 -22.453  0.00  0.00    -0.169 OA
ATOM     16  O   UNL     1      35.262 -16.900 -20.610  0.00  0.00    -0.169 OA
BRANCH  14  17
ATOM     17  C   UNL     1      34.143 -18.971 -21.727  0.00  0.00    +0.156 C 
ATOM     18  C   UNL     1      34.582 -19.910 -20.626  0.00  0.00    +0.028 C 
ENDBRANCH  14  17
ENDBRANCH   8  14
BRANCH  12  19
ATOM     19  O   UNL     1      32.708 -14.140 -25.940  0.00  0.00    -0.470 OA
ATOM     20  C   UNL     1      33.492 -13.815 -27.086  0.00  0.00    +0.253 C 
ENDBRANCH  12  19
ENDBRANCH   2   9
BRANCH   5  21
ATOM     21  C   UNL     1      32.725  -8.642 -22.805  0.00  0.00    +0.036 C 
ATOM     22  C   UNL     1      32.042  -6.348 -23.141  0.00  0.00    +0.018 C 
ATOM     23  C   UNL     1      32.515  -7.556 -23.656  0.00  0.00    +0.005 C 
ATOM     24  C   UNL     1      32.463  -8.520 -21.441  0.00  0.00    +0.003 C 
ATOM     25  C   UNL     1      31.780  -6.227 -21.777  0.00  0.00    +0.001 C 
ATOM     26  C   UNL     1      31.990  -7.313 -20.926  0.00  0.00    +0.000 C 
BRANCH  22  28
ATOM     27  N   UNL     1      31.052  -4.240 -23.509  0.00  0.00    -0.244 NA
ATOM     28  C   UNL     1      31.824  -5.222 -24.022  0.00  0.00    +0.081 C 
ATOM     29  C   UNL     1      32.383  -5.192 -25.289  0.00  0.00    +0.019 C 
ATOM     30  C   UNL     1      32.132  -4.078 -26.082  0.00  0.00    +0.003 C 
ATOM     31  C   UNL     1      30.829  -3.173 -24.309  0.00  0.00    +0.099 C 
ATOM     32  C   UNL     1      31.341  -3.046 -25.591  0.00  0.00    +0.021 C 
ENDBRANCH  22  28
ENDBRANCH   5  21
TORSDOF 6
ENDMDL
MODEL 3
REMARK VINA RESULT:     -11.6      5.804     10.754
REMARK  Name = 4369497
REMARK  6 active torsions:
REMARK  status: ('A' for Active; 'I' for Inactive)
REMARK    1  A    between atoms: N_2  and  C_9
REMARK    2  A    between atoms: C_5  and  C_21
REMARK    3  A    between atoms: C_8  and  S_14
REMARK    4  A    between atoms: C_12  and  O_19
REMARK    5  A    between atoms: S_14  and  C_17
REMARK    6  A    between atoms: C_22  and  C_28
REMARK                            x       y       z     vdW  Elec       q    Type
REMARK                         _______ _______ _______ _____ _____    ______ ____
ROOT
ATOM      1  O   UNL     1      33.240 -10.855 -22.808  0.00  0.00    -0.424 OA
ATOM      2  N   UNL     1      33.996 -12.908 -23.509  0.00  0.00    -0.265 N 
ATOM      3  N   UNL     1      31.935 -12.630 -22.299  0.00  0.00    -0.193 NA
ATOM      4  C   UNL     1      33.036 -12.200 -22.870  0.00  0.00    +0.293 C 
ATOM      5  C   UNL     1      32.152 -10.410 -22.129  0.00  0.00    +0.168 C 
ATOM      6  C   UNL     1      31.361 -11.480 -21.820  0.00  0.00    +0.141 C 
ATOM      7  H   UNL     1      34.790 -12.388 -23.769  0.00  0.00    +0.157 HD
ENDROOT
BRANCH   2   9
ATOM      8  C   UNL     1      34.632 -16.549 -23.311  0.00  0.00    +0.107 C 
ATOM      9  C   UNL     1      34.037 -14.284 -23.867  0.00  0.00    +0.087 C 
ATOM     10  C   UNL     1      34.584 -15.197 -22.972  0.00  0.00    +0.036 C 
ATOM     11  C   UNL     1      34.132 -16.978 -24.540  0.00  0.00    +0.022 C 
ATOM     12  C   UNL     1      33.538 -14.703 -25.093  0.00  0.00    +0.152 C 
ATOM     13  C   UNL     1      33.586 -16.055 -25.432  0.00  0.00    +0.040 C 
BRANCH   8  14
ATOM     14  S   UNL     1      35.317 -17.705 -22.196  0.00  0.00    +0.009 S 
ATOM     15  O   UNL     1      36.588 -18.157 -22.744  0.00  0.00    -0.169 OA
ATOM     16  O   UNL     1      35.266 -17.151 -20.850  0.00  0.00    -0.169 OA
BRANCH  14  17
ATOM     17  C   UNL     1      34.187 -19.079 -22.234  0.00  0.00    +0.156 C 
ATOM     18  C   UNL     1      34.026 -19.703 -20.867  0.00  0.00    +0.028 C 
ENDBRANCH  14  17
ENDBRANCH   8  14
BRANCH  12  19
ATOM     19  O   UNL     1      33.001 -13.817 -25.979  0.00  0.00    -0.470 OA
ATOM     20  C   UNL     1      33.558 -13.794 -27.291  0.00  0.00    +0.253 C 
ENDBRANCH  12  19
ENDBRANCH   2   9
BRANCH   5  21
ATOM     21  C   UNL     1      32.086  -8.986 -21.903  0.00  0.00    +0.036 C 
ATOM     22  C   UNL     1      32.010  -6.730 -22.765  0.00  0.00    +0.018 C 
ATOM     23  C   UNL     1      32.071  -8.107 -22.985  0.00  0.00    +0.005 C 
ATOM     24  C   UNL     1      32.041  -8.490 -20.600  0.00  0.00    +0.003 C 
ATOM     25  C   UNL     1      31.964  -6.234 -21.463  0.00  0.00    +0.001 C 
ATOM     26  C   UNL     1      31.979  -7.114 -20.380  0.00  0.00    +0.000 C 
BRANCH  22  28
ATOM     27  N   UNL     1      30.991  -4.913 -23.870  0.00  0.00    -0.244 NA
ATOM     28  C   UNL     1      31.994  -5.818 -23.887  0.00  0.00    +0.081 C 
ATOM     29  C   UNL     1      32.953  -5.899 -24.883  0.00  0.00    +0.019 C 
ATOM     30  C   UNL     1      32.878  -4.990 -25.932  0.00  0.00    +0.003 C 
ATOM     31  C   UNL     1      30.950  -4.046 -24.907  0.00  0.00    +0.099 C 
ATOM     32  C   UNL     1      31.859  -4.043 -25.952  0.00  0.00    +0.021 C 
ENDBRANCH  22  28
ENDBRANCH   5  21
TORSDOF 6
ENDMDL
MODEL 4
REMARK VINA RESULT:     -11.5      6.041     12.337
REMARK  Name = 4369497
REMARK  6 active torsions:
REMARK  status: ('A' for Active; 'I' for Inactive)
REMARK    1  A    between atoms: N_2  and  C_9
REMARK    2  A    between atoms: C_5  and  C_21
REMARK    3  A    between atoms: C_8  and  S_14
REMARK    4  A    between atoms: C_12  and  O_19
REMARK    5  A    between atoms: S_14  and  C_17
REMARK    6  A    between atoms: C_22  and  C_28
REMARK                            x       y       z     vdW  Elec       q    Type
REMARK                         _______ _______ _______ _____ _____    ______ ____
ROOT
ATOM      1  O   UNL     1      34.320 -14.395 -24.034  0.00  0.00    -0.424 OA
ATOM      2  N   UNL     1      34.175 -12.131 -24.395  0.00  0.00    -0.265 N 
ATOM      3  N   UNL     1      33.657 -13.141 -22.274  0.00  0.00    -0.193 NA
ATOM      4  C   UNL     1      34.034 -13.163 -23.531  0.00  0.00    +0.293 C 
ATOM      5  C   UNL     1      34.098 -15.218 -22.979  0.00  0.00    +0.168 C 
ATOM      6  C   UNL     1      33.697 -14.463 -21.913  0.00  0.00    +0.141 C 
ATOM      7  H   UNL     1      34.369 -12.392 -25.324  0.00  0.00    +0.157 HD
ENDROOT
BRANCH   2   9
ATOM      8  C   UNL     1      32.961  -8.858 -23.162  0.00  0.00    +0.107 C 
ATOM      9  C   UNL     1      34.091 -10.728 -24.172  0.00  0.00    +0.087 C 
ATOM     10  C   UNL     1      33.056 -10.231 -23.388  0.00  0.00    +0.036 C 
ATOM     11  C   UNL     1      33.900  -7.993 -23.722  0.00  0.00    +0.022 C 
ATOM     12  C   UNL     1      35.030  -9.873 -24.734  0.00  0.00    +0.152 C 
ATOM     13  C   UNL     1      34.935  -8.500 -24.508  0.00  0.00    +0.040 C 
BRANCH   8  14
ATOM     14  S   UNL     1      31.665  -8.222 -22.179  0.00  0.00    +0.009 S 
ATOM     15  O   UNL     1      30.525  -7.972 -23.049  0.00  0.00    -0.169 OA
ATOM     16  O   UNL     1      31.506  -9.066 -21.004  0.00  0.00    -0.169 OA
BRANCH  14  17
ATOM     17  C   UNL     1      32.274  -6.650 -21.610  0.00  0.00    +0.156 C 
ATOM     18  C   UNL     1      31.361  -5.519 -22.025  0.00  0.00    +0.028 C 
ENDBRANCH  14  17
ENDBRANCH   8  14
BRANCH  12  19
ATOM     19  O   UNL     1      36.048 -10.349 -25.505  0.00  0.00    -0.470 OA
ATOM     20  C   UNL     1      35.778 -10.532 -26.894  0.00  0.00    +0.253 C 
ENDBRANCH  12  19
ENDBRANCH   2   9
BRANCH   5  21
ATOM     21  C   UNL     1      34.323 -16.624 -23.213  0.00  0.00    +0.036 C 
ATOM     22  C   UNL     1      34.519 -18.882 -22.375  0.00  0.00    +0.018 C 
ATOM     23  C   UNL     1      34.298 -17.523 -22.147  0.00  0.00    +0.005 C 
ATOM     24  C   UNL     1      34.570 -17.083 -24.507  0.00  0.00    +0.003 C 
ATOM     25  C   UNL     1      34.765 -19.341 -23.668  0.00  0.00    +0.001 C 
ATOM     26  C   UNL     1      34.789 -18.442 -24.735  0.00  0.00    +0.000 C 
BRANCH  22  28
ATOM     27  N   UNL     1      35.706 -20.245 -20.861  0.00  0.00    -0.244 NA
ATOM     28  C   UNL     1      34.493 -19.814 -21.269  0.00  0.00    +0.081 C 
ATOM     29  C   UNL     1      33.294 -20.209 -20.701  0.00  0.00    +0.019 C 
ATOM     30  C   UNL     1      33.343 -21.108 -19.641  0.00  0.00    +0.003 C 
ATOM     31  C   UNL     1      35.715 -21.119 -19.829  0.00  0.00    +0.099 C 
ATOM     32  C   UNL     1      34.573 -21.577 -19.192  0.00  0.00    +0.021 C 
ENDBRANCH  22  28
ENDBRANCH   5  21
TORSDOF 6
ENDMDL
MODEL 5
REMARK VINA RESULT:     -11.1      6.112     10.884
REMARK  Name = 4369497
REMARK  6 active torsions:
REMARK  status: ('A' for Active; 'I' for Inactive)
REMARK    1  A    between atoms: N_2  and  C_9
REMARK    2  A    between atoms: C_5  and  C_21
REMARK    3  A    between atoms: C_8  and  S_14
REMARK    4  A    between atoms: C_12  and  O_19
REMARK    5  A    between atoms: S_14  and  C_17
REMARK    6  A    between atoms: C_22  and  C_28
REMARK                            x       y       z     vdW  Elec       q    Type
REMARK                         _______ _______ _______ _____ _____    ______ ____
ROOT
ATOM      1  O   UNL     1      33.254 -10.514 -22.965  0.00  0.00    -0.424 OA
ATOM      2  N   UNL     1      34.009 -12.641 -23.392  0.00  0.00    -0.265 N 
ATOM      3  N   UNL     1      31.873 -12.205 -22.376  0.00  0.00    -0.193 NA
ATOM      4  C   UNL     1      33.023 -11.854 -22.904  0.00  0.00    +0.293 C 
ATOM      5  C   UNL     1      32.131  -9.982 -22.420  0.00  0.00    +0.168 C 
ATOM      6  C   UNL     1      31.294 -11.001 -22.063  0.00  0.00    +0.141 C 
ATOM      7  H   UNL     1      34.833 -12.165 -23.644  0.00  0.00    +0.157 HD
ENDROOT
BRANCH   2   9
ATOM      8  C   UNL     1      34.402 -16.262 -22.728  0.00  0.00    +0.107 C 
ATOM      9  C   UNL     1      34.043 -14.048 -23.602  0.00  0.00    +0.087 C 
ATOM     10  C   UNL     1      34.365 -14.881 -22.536  0.00  0.00    +0.036 C 
ATOM     11  C   UNL     1      34.119 -16.799 -23.984  0.00  0.00    +0.022 C 
ATOM     12  C   UNL     1      33.760 -14.575 -24.856  0.00  0.00    +0.152 C 
ATOM     13  C   UNL     1      33.798 -15.956 -25.047  0.00  0.00    +0.040 C 
BRANCH   8  14
ATOM     14  S   UNL     1      34.805 -17.318 -21.398  0.00  0.00    +0.009 S 
ATOM     15  O   UNL     1      35.278 -16.491 -20.296  0.00  0.00    -0.169 OA
ATOM     16  O   UNL     1      33.706 -18.248 -21.183  0.00  0.00    -0.169 OA
BRANCH  14  17
ATOM     17  C   UNL     1      36.183 -18.273 -21.994  0.00  0.00    +0.156 C 
ATOM     18  C   UNL     1      36.717 -19.202 -20.926  0.00  0.00    +0.028 C 
ENDBRANCH  14  17
ENDBRANCH   8  14
BRANCH  12  19
ATOM     19  O   UNL     1      33.445 -13.768 -25.908  0.00  0.00    -0.470 OA
ATOM     20  C   UNL     1      32.696 -14.353 -26.971  0.00  0.00    +0.253 C 
ENDBRANCH  12  19
ENDBRANCH   2   9
BRANCH   5  21
ATOM     21  C   UNL     1      32.083  -8.542 -22.347  0.00  0.00    +0.036 C 
ATOM     22  C   UNL     1      32.237  -6.385 -23.425  0.00  0.00    +0.018 C 
ATOM     23  C   UNL     1      32.281  -7.777 -23.497  0.00  0.00    +0.005 C 
ATOM     24  C   UNL     1      31.843  -7.914 -21.125  0.00  0.00    +0.003 C 
ATOM     25  C   UNL     1      31.996  -5.757 -22.204  0.00  0.00    +0.001 C 
ATOM     26  C   UNL     1      31.798  -6.521 -21.054  0.00  0.00    +0.000 C 
BRANCH  22  28
ATOM     27  N   UNL     1      31.543  -4.601 -24.803  0.00  0.00    -0.244 NA
ATOM     28  C   UNL     1      32.442  -5.592 -24.618  0.00  0.00    +0.081 C 
ATOM     29  C   UNL     1      33.493  -5.861 -25.478  0.00  0.00    +0.019 C 
ATOM     30  C   UNL     1      33.630  -5.058 -26.605  0.00  0.00    +0.003 C 
ATOM     31  C   UNL     1      31.708  -3.842 -25.909  0.00  0.00    +0.099 C 
ATOM     32  C   UNL     1      32.724  -4.028 -26.832  0.00  0.00    +0.021 C 
ENDBRANCH  22  28
ENDBRANCH   5  21
TORSDOF 6
ENDMDL
MODEL 6
REMARK VINA RESULT:     -10.6      4.765      9.263
REMARK  Name = 4369497
REMARK  6 active torsions:
REMARK  status: ('A' for Active; 'I' for Inactive)
REMARK    1  A    between atoms: N_2  and  C_9
REMARK    2  A    between atoms: C_5  and  C_21
REMARK    3  A    between atoms: C_8  and  S_14
REMARK    4  A    between atoms: C_12  and  O_19
REMARK    5  A    between atoms: S_14  and  C_17
REMARK    6  A    between atoms: C_22  and  C_28
REMARK                            x       y       z     vdW  Elec       q    Type
REMARK                         _______ _______ _______ _____ _____    ______ ____
ROOT
ATOM      1  O   UNL     1      34.531 -12.557 -23.880  0.00  0.00    -0.424 OA
ATOM      2  N   UNL     1      34.900 -14.825 -23.908  0.00  0.00    -0.265 N 
ATOM      3  N   UNL     1      32.777 -13.865 -23.309  0.00  0.00    -0.193 NA
ATOM      4  C   UNL     1      34.033 -13.810 -23.687  0.00  0.00    +0.293 C 
ATOM      5  C   UNL     1      33.473 -11.758 -23.592  0.00  0.00    +0.168 C 
ATOM      6  C   UNL     1      32.411 -12.545 -23.246  0.00  0.00    +0.141 C 
ATOM      7  H   UNL     1      35.828 -14.546 -24.084  0.00  0.00    +0.157 HD
ENDROOT
BRANCH   2   9
ATOM      8  C   UNL     1      34.688 -18.343 -22.776  0.00  0.00    +0.107 C 
ATOM      9  C   UNL     1      34.682 -16.231 -23.930  0.00  0.00    +0.087 C 
ATOM     10  C   UNL     1      34.897 -16.964 -22.769  0.00  0.00    +0.036 C 
ATOM     11  C   UNL     1      34.267 -18.978 -23.945  0.00  0.00    +0.022 C 
ATOM     12  C   UNL     1      34.263 -16.855 -25.098  0.00  0.00    +0.152 C 
ATOM     13  C   UNL     1      34.054 -18.234 -25.105  0.00  0.00    +0.040 C 
BRANCH   8  14
ATOM     14  S   UNL     1      34.955 -19.275 -21.325  0.00  0.00    +0.009 S 
ATOM     15  O   UNL     1      35.493 -20.570 -21.716  0.00  0.00    -0.169 OA
ATOM     16  O   UNL     1      35.675 -18.454 -20.362  0.00  0.00    -0.169 OA
BRANCH  14  17
ATOM     17  C   UNL     1      33.325 -19.539 -20.663  0.00  0.00    +0.156 C 
ATOM     18  C   UNL     1      33.238 -20.844 -19.904  0.00  0.00    +0.028 C 
ENDBRANCH  14  17
ENDBRANCH   8  14
BRANCH  12  19
ATOM     19  O   UNL     1      34.050 -16.147 -26.242  0.00  0.00    -0.470 OA
ATOM     20  C   UNL     1      32.727 -15.663 -26.469  0.00  0.00    +0.253 C 
ENDBRANCH  12  19
ENDBRANCH   2   9
BRANCH   5  21
ATOM     21  C   UNL     1      33.702 -10.338 -23.711  0.00  0.00    +0.036 C 
ATOM     22  C   UNL     1      33.065  -8.064 -23.197  0.00  0.00    +0.018 C 
ATOM     23  C   UNL     1      32.844  -9.437 -23.080  0.00  0.00    +0.005 C 
ATOM     24  C   UNL     1      34.780  -9.867 -24.460  0.00  0.00    +0.003 C 
ATOM     25  C   UNL     1      34.144  -7.594 -23.946  0.00  0.00    +0.001 C 
ATOM     26  C   UNL     1      35.002  -8.494 -24.577  0.00  0.00    +0.000 C 
BRANCH  22  28
ATOM     27  N   UNL     1      31.412  -6.393 -23.378  0.00  0.00    -0.244 NA
ATOM     28  C   UNL     1      32.176  -7.129 -22.543  0.00  0.00    +0.081 C 
ATOM     29  C   UNL     1      32.141  -7.029 -21.162  0.00  0.00    +0.019 C 
ATOM     30  C   UNL     1      31.262  -6.110 -20.601  0.00  0.00    +0.003 C 
ATOM     31  C   UNL     1      30.570  -5.509 -22.797  0.00  0.00    +0.099 C 
ATOM     32  C   UNL     1      30.459  -5.331 -21.427  0.00  0.00    +0.021 C 
ENDBRANCH  22  28
ENDBRANCH   5  21
TORSDOF 6
ENDMDL
MODEL 7
REMARK VINA RESULT:     -10.6      5.937     12.012
REMARK  Name = 4369497
REMARK  6 active torsions:
REMARK  status: ('A' for Active; 'I' for Inactive)
REMARK    1  A    between atoms: N_2  and  C_9
REMARK    2  A    between atoms: C_5  and  C_21
REMARK    3  A    between atoms: C_8  and  S_14
REMARK    4  A    between atoms: C_12  and  O_19
REMARK    5  A    between atoms: S_14  and  C_17
REMARK    6  A    between atoms: C_22  and  C_28
REMARK                            x       y       z     vdW  Elec       q    Type
REMARK                         _______ _______ _______ _____ _____    ______ ____
ROOT
ATOM      1  O   UNL     1      33.615 -14.764 -23.103  0.00  0.00    -0.424 OA
ATOM      2  N   UNL     1      32.949 -12.577 -23.326  0.00  0.00    -0.265 N 
ATOM      3  N   UNL     1      33.692 -13.497 -21.231  0.00  0.00    -0.193 NA
ATOM      4  C   UNL     1      33.412 -13.554 -22.513  0.00  0.00    +0.293 C 
ATOM      5  C   UNL     1      34.067 -15.533 -22.080  0.00  0.00    +0.168 C 
ATOM      6  C   UNL     1      34.115 -14.771 -20.948  0.00  0.00    +0.141 C 
ATOM      7  H   UNL     1      32.709 -12.872 -24.233  0.00  0.00    +0.157 HD
ENDROOT
BRANCH   2   9
ATOM      8  C   UNL     1      33.409  -8.906 -23.474  0.00  0.00    +0.107 C 
ATOM      9  C   UNL     1      32.757 -11.189 -23.077  0.00  0.00    +0.087 C 
ATOM     10  C   UNL     1      33.586 -10.269 -23.710  0.00  0.00    +0.036 C 
ATOM     11  C   UNL     1      32.406  -8.473 -22.607  0.00  0.00    +0.022 C 
ATOM     12  C   UNL     1      31.757 -10.766 -22.211  0.00  0.00    +0.152 C 
ATOM     13  C   UNL     1      31.580  -9.402 -21.975  0.00  0.00    +0.040 C 
BRANCH   8  14
ATOM     14  S   UNL     1      34.443  -7.742 -24.263  0.00  0.00    +0.009 S 
ATOM     15  O   UNL     1      35.379  -7.230 -23.272  0.00  0.00    -0.169 OA
ATOM     16  O   UNL     1      34.946  -8.319 -25.502  0.00  0.00    -0.169 OA
BRANCH  14  17
ATOM     17  C   UNL     1      33.348  -6.415 -24.717  0.00  0.00    +0.156 C 
ATOM     18  C   UNL     1      33.876  -5.641 -25.904  0.00  0.00    +0.028 C 
ENDBRANCH  14  17
ENDBRANCH   8  14
BRANCH  12  19
ATOM     19  O   UNL     1      30.940 -11.658 -21.584  0.00  0.00    -0.470 OA
ATOM     20  C   UNL     1      30.476 -11.307 -20.281  0.00  0.00    +0.253 C 
ENDBRANCH  12  19
ENDBRANCH   2   9
BRANCH   5  21
ATOM     21  C   UNL     1      34.375 -16.905 -22.409  0.00  0.00    +0.036 C 
ATOM     22  C   UNL     1      34.611 -19.215 -21.741  0.00  0.00    +0.018 C 
ATOM     23  C   UNL     1      34.310 -17.890 -21.423  0.00  0.00    +0.005 C 
ATOM     24  C   UNL     1      34.740 -17.244 -23.711  0.00  0.00    +0.003 C 
ATOM     25  C   UNL     1      34.975 -19.554 -23.043  0.00  0.00    +0.001 C 
ATOM     26  C   UNL     1      35.040 -18.569 -24.029  0.00  0.00    +0.000 C 
BRANCH  22  28
ATOM     27  N   UNL     1      35.741 -20.701 -20.301  0.00  0.00    -0.244 NA
ATOM     28  C   UNL     1      34.544 -20.237 -20.719  0.00  0.00    +0.081 C 
ATOM     29  C   UNL     1      33.324 -20.678 -20.234  0.00  0.00    +0.019 C 
ATOM     30  C   UNL     1      33.334 -21.663 -19.253  0.00  0.00    +0.003 C 
ATOM     31  C   UNL     1      35.712 -21.658 -19.346  0.00  0.00    +0.099 C 
ATOM     32  C   UNL     1      34.546 -22.167 -18.795  0.00  0.00    +0.021 C 
ENDBRANCH  22  28
ENDBRANCH   5  21
TORSDOF 6
ENDMDL
MODEL 8
REMARK VINA RESULT:     -10.4      1.922      3.449
REMARK  Name = 4369497
REMARK  6 active torsions:
REMARK  status: ('A' for Active; 'I' for Inactive)
REMARK    1  A    between atoms: N_2  and  C_9
REMARK    2  A    between atoms: C_5  and  C_21
REMARK    3  A    between atoms: C_8  and  S_14
REMARK    4  A    between atoms: C_12  and  O_19
REMARK    5  A    between atoms: S_14  and  C_17
REMARK    6  A    between atoms: C_22  and  C_28
REMARK                            x       y       z     vdW  Elec       q    Type
REMARK                         _______ _______ _______ _____ _____    ______ ____
ROOT
ATOM      1  O   UNL     1      33.747 -20.438 -21.166  0.00  0.00    -0.424 OA
ATOM      2  N   UNL     1      33.237 -21.815 -19.399  0.00  0.00    -0.265 N 
ATOM      3  N   UNL     1      35.288 -20.563 -19.515  0.00  0.00    -0.193 NA
ATOM      4  C   UNL     1      34.119 -20.959 -19.964  0.00  0.00    +0.293 C 
ATOM      5  C   UNL     1      34.793 -19.637 -21.491  0.00  0.00    +0.168 C 
ATOM      6  C   UNL     1      35.726 -19.710 -20.496  0.00  0.00    +0.141 C 
ATOM      7  H   UNL     1      32.467 -22.051 -19.966  0.00  0.00    +0.157 HD
ENDROOT
BRANCH   2   9
ATOM      8  C   UNL     1      32.025 -23.296 -16.230  0.00  0.00    +0.107 C 
ATOM      9  C   UNL     1      33.244 -22.426 -18.114  0.00  0.00    +0.087 C 
ATOM     10  C   UNL     1      32.032 -22.698 -17.490  0.00  0.00    +0.036 C 
ATOM     11  C   UNL     1      33.230 -23.618 -15.605  0.00  0.00    +0.022 C 
ATOM     12  C   UNL     1      34.448 -22.743 -17.498  0.00  0.00    +0.152 C 
ATOM     13  C   UNL     1      34.441 -23.341 -16.238  0.00  0.00    +0.040 C 
BRANCH   8  14
ATOM     14  S   UNL     1      30.510 -23.642 -15.436  0.00  0.00    +0.009 S 
ATOM     15  O   UNL     1      30.222 -25.058 -15.616  0.00  0.00    -0.169 OA
ATOM     16  O   UNL     1      30.539 -23.075 -14.095  0.00  0.00    -0.169 OA
BRANCH  14  17
ATOM     17  C   UNL     1      29.304 -22.718 -16.362  0.00  0.00    +0.156 C 
ATOM     18  C   UNL     1      28.247 -23.623 -16.954  0.00  0.00    +0.028 C 
ENDBRANCH  14  17
ENDBRANCH   8  14
BRANCH  12  19
ATOM     19  O   UNL     1      35.642 -22.480 -18.100  0.00  0.00    -0.470 OA
ATOM     20  C   UNL     1      36.731 -22.123 -17.251  0.00  0.00    +0.253 C 
ENDBRANCH  12  19
ENDBRANCH   2   9
BRANCH   5  21
ATOM     21  C   UNL     1      34.683 -18.932 -22.746  0.00  0.00    +0.036 C 
ATOM     22  C   UNL     1      34.305 -16.883 -23.970  0.00  0.00    +0.018 C 
ATOM     23  C   UNL     1      34.413 -17.563 -22.756  0.00  0.00    +0.005 C 
ATOM     24  C   UNL     1      34.845 -19.620 -23.948  0.00  0.00    +0.003 C 
ATOM     25  C   UNL     1      34.468 -17.571 -25.171  0.00  0.00    +0.001 C 
ATOM     26  C   UNL     1      34.738 -18.940 -25.161  0.00  0.00    +0.000 C 
BRANCH  22  28
ATOM     27  N   UNL     1      33.512 -14.996 -25.140  0.00  0.00    -0.244 NA
ATOM     28  C   UNL     1      34.024 -15.464 -23.981  0.00  0.00    +0.081 C 
ATOM     29  C   UNL     1      34.276 -14.681 -22.867  0.00  0.00    +0.019 C 
ATOM     30  C   UNL     1      33.981 -13.324 -22.949  0.00  0.00    +0.003 C 
ATOM     31  C   UNL     1      33.239 -13.672 -25.182  0.00  0.00    +0.099 C 
ATOM     32  C   UNL     1      33.454 -12.803 -24.125  0.00  0.00    +0.021 C 
ENDBRANCH  22  28
ENDBRANCH   5  21
TORSDOF 6
ENDMDL
MODEL 9
REMARK VINA RESULT:     -10.2      1.815      2.325
REMARK  Name = 4369497
REMARK  6 active torsions:
REMARK  status: ('A' for Active; 'I' for Inactive)
REMARK    1  A    between atoms: N_2  and  C_9
REMARK    2  A    between atoms: C_5  and  C_21
REMARK    3  A    between atoms: C_8  and  S_14
REMARK    4  A    between atoms: C_12  and  O_19
REMARK    5  A    between atoms: S_14  and  C_17
REMARK    6  A    between atoms: C_22  and  C_28
REMARK                            x       y       z     vdW  Elec       q    Type
REMARK                         _______ _______ _______ _____ _____    ______ ____
ROOT
ATOM      1  O   UNL     1      35.599 -20.615 -19.114  0.00  0.00    -0.424 OA
ATOM      2  N   UNL     1      35.926 -21.886 -17.229  0.00  0.00    -0.265 N 
ATOM      3  N   UNL     1      34.206 -22.375 -18.838  0.00  0.00    -0.193 NA
ATOM      4  C   UNL     1      35.216 -21.684 -18.362  0.00  0.00    +0.293 C 
ATOM      5  C   UNL     1      34.738 -20.651 -20.162  0.00  0.00    +0.168 C 
ATOM      6  C   UNL     1      33.894 -21.713 -19.998  0.00  0.00    +0.141 C 
ATOM      7  H   UNL     1      36.576 -21.178 -17.015  0.00  0.00    +0.157 HD
ENDROOT
BRANCH   2   9
ATOM      8  C   UNL     1      37.048 -24.604 -14.979  0.00  0.00    +0.107 C 
ATOM      9  C   UNL     1      35.883 -22.961 -16.298  0.00  0.00    +0.087 C 
ATOM     10  C   UNL     1      37.076 -23.548 -15.891  0.00  0.00    +0.036 C 
ATOM     11  C   UNL     1      35.829 -25.064 -14.483  0.00  0.00    +0.022 C 
ATOM     12  C   UNL     1      34.665 -23.415 -15.809  0.00  0.00    +0.152 C 
ATOM     13  C   UNL     1      34.637 -24.471 -14.898  0.00  0.00    +0.040 C 
BRANCH   8  14
ATOM     14  S   UNL     1      38.539 -25.349 -14.460  0.00  0.00    +0.009 S 
ATOM     15  O   UNL     1      38.556 -26.715 -14.964  0.00  0.00    -0.169 OA
ATOM     16  O   UNL     1      39.646 -24.452 -14.764  0.00  0.00    -0.169 OA
BRANCH  14  17
ATOM     17  C   UNL     1      38.403 -25.421 -12.688  0.00  0.00    +0.156 C 
ATOM     18  C   UNL     1      38.379 -24.039 -12.076  0.00  0.00    +0.028 C 
ENDBRANCH  14  17
ENDBRANCH   8  14
BRANCH  12  19
ATOM     19  O   UNL     1      33.489 -22.848 -16.202  0.00  0.00    -0.470 OA
ATOM     20  C   UNL     1      32.288 -23.491 -15.781  0.00  0.00    +0.253 C 
ENDBRANCH  12  19
ENDBRANCH   2   9
BRANCH   5  21
ATOM     21  C   UNL     1      34.902 -19.614 -21.153  0.00  0.00    +0.036 C 
ATOM     22  C   UNL     1      34.425 -17.383 -21.947  0.00  0.00    +0.018 C 
ATOM     23  C   UNL     1      34.267 -18.384 -20.988  0.00  0.00    +0.005 C 
ATOM     24  C   UNL     1      35.694 -19.845 -22.277  0.00  0.00    +0.003 C 
ATOM     25  C   UNL     1      35.217 -17.614 -23.071  0.00  0.00    +0.001 C 
ATOM     26  C   UNL     1      35.853 -18.844 -23.236  0.00  0.00    +0.000 C 
BRANCH  22  28
ATOM     27  N   UNL     1      33.584 -15.404 -22.916  0.00  0.00    -0.244 NA
ATOM     28  C   UNL     1      33.766 -16.106 -21.777  0.00  0.00    +0.081 C 
ATOM     29  C   UNL     1      33.368 -15.675 -20.523  0.00  0.00    +0.019 C 
ATOM     30  C   UNL     1      32.740 -14.437 -20.432  0.00  0.00    +0.003 C 
ATOM     31  C   UNL     1      32.971 -14.206 -22.789  0.00  0.00    +0.099 C 
ATOM     32  C   UNL     1      32.535 -13.682 -21.582  0.00  0.00    +0.021 C 
ENDBRANCH  22  28
ENDBRANCH   5  21
TORSDOF 6
ENDMDL
