MODEL 1
REMARK VINA RESULT:      -8.6      0.000      0.000
REMARK  Name = 445085
REMARK  17 active torsions:
REMARK  status: ('A' for Active; 'I' for Inactive)
REMARK    1  A    between atoms: C_1  and  C_3
REMARK    2  A    between atoms: C_1  and  N_19
REMARK    3  A    between atoms: C_4  and  C_11
REMARK    4  A    between atoms: C_5  and  O_9
REMARK    5  A    between atoms: C_11  and  O_12
REMARK    6  A    between atoms: O_12  and  P_13
REMARK    7  A    between atoms: P_13  and  O_15
REMARK    8  A    between atoms: P_13  and  O_17
REMARK    9  A    between atoms: N_19  and  C_22
REMARK   10  A    between atoms: C_22  and  C_25
REMARK   11  A    between atoms: C_25  and  C_26
REMARK   12  A    between atoms: C_26  and  C_27
REMARK   13  A    between atoms: C_27  and  C_28
REMARK   14  A    between atoms: C_28  and  C_29
REMARK   15  A    between atoms: C_29  and  C_30
REMARK   16  A    between atoms: C_30  and  C_32
REMARK   17  A    between atoms: C_32  and  O_33
REMARK                            x       y       z     vdW  Elec       q    Type
REMARK                         _______ _______ _______ _____ _____    ______ ____
ROOT
ATOM      1  C   UNL     1      33.485 -23.523 -17.581  0.00  0.00    -0.051 C 
ENDROOT
BRANCH   1   3
ATOM      2  N   UNL     1      32.640 -23.623 -13.365  0.00  0.00    -0.245 NA
ATOM      3  C   UNL     1      33.187 -23.557 -16.106  0.00  0.00    -0.009 C 
ATOM      4  C   UNL     1      31.928 -23.202 -15.636  0.00  0.00    +0.024 C 
ATOM      5  C   UNL     1      34.174 -23.945 -15.207  0.00  0.00    +0.141 C 
ATOM      6  C   UNL     1      33.853 -23.960 -13.858  0.00  0.00    +0.092 C 
ATOM      7  C   UNL     1      31.707 -23.251 -14.269  0.00  0.00    +0.096 C 
ATOM      8  C   UNL     1      34.876 -24.370 -12.850  0.00  0.00    +0.055 C 
BRANCH   5   9
ATOM      9  O   UNL     1      35.413 -24.297 -15.637  0.00  0.00    -0.505 OA
ATOM     10  H   UNL     1      35.547 -25.127 -16.051  0.00  0.00    +0.292 HD
ENDBRANCH   5   9
BRANCH   4  11
ATOM     11  C   UNL     1      30.833 -22.778 -16.553  0.00  0.00    +0.181 C 
BRANCH  11  12
ATOM     12  O   UNL     1      29.675 -22.454 -15.791  0.00  0.00    -0.268 OA
BRANCH  12  13
ATOM     13  P   UNL     1      28.255 -23.070 -16.255  0.00  0.00    +0.473 P 
ATOM     14  O   UNL     1      28.109 -23.290 -17.732  0.00  0.00    -0.227 OA
BRANCH  13  15
ATOM     15  O   UNL     1      28.134 -24.406 -15.351  0.00  0.00    -0.303 OA
ATOM     16  H   UNL     1      28.879 -24.996 -15.546  0.00  0.00    +0.222 HD
ENDBRANCH  13  15
BRANCH  13  17
ATOM     17  O   UNL     1      27.168 -22.073 -15.593  0.00  0.00    -0.303 OA
ATOM     18  H   UNL     1      27.004 -22.337 -14.674  0.00  0.00    +0.222 HD
ENDBRANCH  13  17
ENDBRANCH  12  13
ENDBRANCH  11  12
ENDBRANCH   4  11
ENDBRANCH   1   3
BRANCH   1  19
ATOM     19  N   UNL     1      34.481 -22.514 -17.911  0.00  0.00    +0.392 N 
ATOM     20  H   UNL     1      34.348 -21.704 -17.307  0.00  0.00    -0.083 HD
ATOM     21  H   UNL     1      35.409 -22.914 -17.770  0.00  0.00    -0.083 HD
BRANCH  19  22
ATOM     22  C   UNL     1      34.355 -22.099 -19.306  0.00  0.00    -0.002 C 
ATOM     23  C   UNL     1      33.078 -21.300 -19.526  0.00  0.00    -0.016 C 
BRANCH  22  25
ATOM     24  O   UNL     1      36.678 -21.456 -19.147  0.00  0.00    -0.298 OA
ATOM     25  C   UNL     1      35.577 -21.261 -19.662  0.00  0.00    +0.131 C 
BRANCH  25  26
ATOM     26  C   UNL     1      35.346 -20.142 -20.668  0.00  0.00    +0.062 C 
BRANCH  26  27
ATOM     27  C   UNL     1      36.580 -19.261 -20.860  0.00  0.00    +0.008 C 
BRANCH  27  28
ATOM     28  C   UNL     1      36.401 -18.300 -22.037  0.00  0.00    +0.001 C 
BRANCH  28  29
ATOM     29  C   UNL     1      34.960 -18.324 -22.557  0.00  0.00    +0.012 C 
BRANCH  29  30
ATOM     30  C   UNL     1      34.889 -18.403 -24.082  0.00  0.00    +0.109 C 
BRANCH  30  32
ATOM     31  O   UNL     1      34.783 -16.811 -25.923  0.00  0.00    -0.250 OA
ATOM     32  C   UNL     1      34.614 -17.070 -24.739  0.00  0.00    +0.314 C 
BRANCH  32  33
ATOM     33  O   UNL     1      34.120 -16.170 -23.848  0.00  0.00    -0.480 OA
ATOM     34  H   UNL     1      34.659 -15.861 -23.147  0.00  0.00    +0.295 HD
ENDBRANCH  32  33
ENDBRANCH  30  32
ENDBRANCH  29  30
ENDBRANCH  28  29
ENDBRANCH  27  28
ENDBRANCH  26  27
ENDBRANCH  25  26
ENDBRANCH  22  25
ENDBRANCH  19  22
ENDBRANCH   1  19
TORSDOF 17
ENDMDL
MODEL 2
REMARK VINA RESULT:      -8.5      2.881      4.709
REMARK  Name = 445085
REMARK  17 active torsions:
REMARK  status: ('A' for Active; 'I' for Inactive)
REMARK    1  A    between atoms: C_1  and  C_3
REMARK    2  A    between atoms: C_1  and  N_19
REMARK    3  A    between atoms: C_4  and  C_11
REMARK    4  A    between atoms: C_5  and  O_9
REMARK    5  A    between atoms: C_11  and  O_12
REMARK    6  A    between atoms: O_12  and  P_13
REMARK    7  A    between atoms: P_13  and  O_15
REMARK    8  A    between atoms: P_13  and  O_17
REMARK    9  A    between atoms: N_19  and  C_22
REMARK   10  A    between atoms: C_22  and  C_25
REMARK   11  A    between atoms: C_25  and  C_26
REMARK   12  A    between atoms: C_26  and  C_27
REMARK   13  A    between atoms: C_27  and  C_28
REMARK   14  A    between atoms: C_28  and  C_29
REMARK   15  A    between atoms: C_29  and  C_30
REMARK   16  A    between atoms: C_30  and  C_32
REMARK   17  A    between atoms: C_32  and  O_33
REMARK                            x       y       z     vdW  Elec       q    Type
REMARK                         _______ _______ _______ _____ _____    ______ ____
ROOT
ATOM      1  C   UNL     1      34.395 -22.791 -15.789  0.00  0.00    -0.051 C 
ENDROOT
BRANCH   1   3
ATOM      2  N   UNL     1      31.173 -24.970 -13.953  0.00  0.00    -0.245 NA
ATOM      3  C   UNL     1      33.269 -23.555 -15.145  0.00  0.00    -0.009 C 
ATOM      4  C   UNL     1      33.498 -24.308 -13.999  0.00  0.00    +0.024 C 
ATOM      5  C   UNL     1      31.994 -23.508 -15.696  0.00  0.00    +0.141 C 
ATOM      6  C   UNL     1      30.989 -24.228 -15.068  0.00  0.00    +0.092 C 
ATOM      7  C   UNL     1      32.427 -24.991 -13.446  0.00  0.00    +0.096 C 
ATOM      8  C   UNL     1      29.600 -24.211 -15.618  0.00  0.00    +0.055 C 
BRANCH   5   9
ATOM      9  O   UNL     1      31.740 -22.780 -16.815  0.00  0.00    -0.505 OA
ATOM     10  H   UNL     1      32.396 -22.698 -17.479  0.00  0.00    +0.292 HD
ENDBRANCH   5   9
BRANCH   4  11
ATOM     11  C   UNL     1      34.843 -24.394 -13.366  0.00  0.00    +0.181 C 
BRANCH  11  12
ATOM     12  O   UNL     1      34.768 -23.916 -12.027  0.00  0.00    -0.268 OA
BRANCH  12  13
ATOM     13  P   UNL     1      36.018 -24.199 -11.041  0.00  0.00    +0.473 P 
ATOM     14  O   UNL     1      37.027 -23.091 -10.959  0.00  0.00    -0.227 OA
BRANCH  13  15
ATOM     15  O   UNL     1      35.292 -24.566  -9.643  0.00  0.00    -0.303 OA
ATOM     16  H   UNL     1      35.689 -24.046  -8.927  0.00  0.00    +0.222 HD
ENDBRANCH  13  15
BRANCH  13  17
ATOM     17  O   UNL     1      36.593 -25.623 -11.547  0.00  0.00    -0.303 OA
ATOM     18  H   UNL     1      36.607 -25.641 -12.517  0.00  0.00    +0.222 HD
ENDBRANCH  13  17
ENDBRANCH  12  13
ENDBRANCH  11  12
ENDBRANCH   4  11
ENDBRANCH   1   3
BRANCH   1  19
ATOM     19  N   UNL     1      34.586 -23.174 -17.180  0.00  0.00    +0.392 N 
ATOM     20  H   UNL     1      35.239 -23.955 -17.225  0.00  0.00    -0.083 HD
ATOM     21  H   UNL     1      33.682 -23.445 -17.570  0.00  0.00    -0.083 HD
BRANCH  19  22
ATOM     22  C   UNL     1      35.117 -22.057 -17.957  0.00  0.00    -0.002 C 
ATOM     23  C   UNL     1      36.607 -21.877 -17.705  0.00  0.00    -0.016 C 
BRANCH  22  25
ATOM     24  O   UNL     1      34.217 -23.323 -19.807  0.00  0.00    -0.298 OA
ATOM     25  C   UNL     1      34.856 -22.340 -19.432  0.00  0.00    +0.131 C 
BRANCH  25  26
ATOM     26  C   UNL     1      35.466 -21.352 -20.417  0.00  0.00    +0.062 C 
BRANCH  26  27
ATOM     27  C   UNL     1      34.772 -19.991 -20.387  0.00  0.00    +0.008 C 
BRANCH  27  28
ATOM     28  C   UNL     1      34.233 -19.611 -21.767  0.00  0.00    +0.001 C 
BRANCH  28  29
ATOM     29  C   UNL     1      35.081 -18.509 -22.410  0.00  0.00    +0.012 C 
BRANCH  29  30
ATOM     30  C   UNL     1      35.067 -18.575 -23.937  0.00  0.00    +0.109 C 
BRANCH  30  32
ATOM     31  O   UNL     1      34.390 -16.975 -25.646  0.00  0.00    -0.250 OA
ATOM     32  C   UNL     1      34.967 -17.217 -24.594  0.00  0.00    +0.314 C 
BRANCH  32  33
ATOM     33  O   UNL     1      35.586 -16.260 -23.853  0.00  0.00    -0.480 OA
ATOM     34  H   UNL     1      35.087 -15.722 -23.270  0.00  0.00    +0.295 HD
ENDBRANCH  32  33
ENDBRANCH  30  32
ENDBRANCH  29  30
ENDBRANCH  28  29
ENDBRANCH  27  28
ENDBRANCH  26  27
ENDBRANCH  25  26
ENDBRANCH  22  25
ENDBRANCH  19  22
ENDBRANCH   1  19
TORSDOF 17
ENDMDL
MODEL 3
REMARK VINA RESULT:      -8.5      1.064      1.745
REMARK  Name = 445085
REMARK  17 active torsions:
REMARK  status: ('A' for Active; 'I' for Inactive)
REMARK    1  A    between atoms: C_1  and  C_3
REMARK    2  A    between atoms: C_1  and  N_19
REMARK    3  A    between atoms: C_4  and  C_11
REMARK    4  A    between atoms: C_5  and  O_9
REMARK    5  A    between atoms: C_11  and  O_12
REMARK    6  A    between atoms: O_12  and  P_13
REMARK    7  A    between atoms: P_13  and  O_15
REMARK    8  A    between atoms: P_13  and  O_17
REMARK    9  A    between atoms: N_19  and  C_22
REMARK   10  A    between atoms: C_22  and  C_25
REMARK   11  A    between atoms: C_25  and  C_26
REMARK   12  A    between atoms: C_26  and  C_27
REMARK   13  A    between atoms: C_27  and  C_28
REMARK   14  A    between atoms: C_28  and  C_29
REMARK   15  A    between atoms: C_29  and  C_30
REMARK   16  A    between atoms: C_30  and  C_32
REMARK   17  A    between atoms: C_32  and  O_33
REMARK                            x       y       z     vdW  Elec       q    Type
REMARK                         _______ _______ _______ _____ _____    ______ ____
ROOT
ATOM      1  C   UNL     1      33.360 -23.374 -17.580  0.00  0.00    -0.051 C 
ENDROOT
BRANCH   1   3
ATOM      2  N   UNL     1      32.604 -23.683 -13.357  0.00  0.00    -0.245 NA
ATOM      3  C   UNL     1      33.093 -23.481 -16.103  0.00  0.00    -0.009 C 
ATOM      4  C   UNL     1      31.830 -23.200 -15.596  0.00  0.00    +0.024 C 
ATOM      5  C   UNL     1      34.113 -23.864 -15.238  0.00  0.00    +0.141 C 
ATOM      6  C   UNL     1      33.819 -23.949 -13.886  0.00  0.00    +0.092 C 
ATOM      7  C   UNL     1      31.638 -23.315 -14.228  0.00  0.00    +0.096 C 
ATOM      8  C   UNL     1      34.878 -24.356 -12.914  0.00  0.00    +0.055 C 
BRANCH   5   9
ATOM      9  O   UNL     1      35.357 -24.146 -15.705  0.00  0.00    -0.505 OA
ATOM     10  H   UNL     1      35.517 -24.174 -16.628  0.00  0.00    +0.292 HD
ENDBRANCH   5   9
BRANCH   4  11
ATOM     11  C   UNL     1      30.700 -22.786 -16.474  0.00  0.00    +0.181 C 
BRANCH  11  12
ATOM     12  O   UNL     1      29.576 -22.443 -15.671  0.00  0.00    -0.268 OA
BRANCH  12  13
ATOM     13  P   UNL     1      28.150 -23.119 -16.021  0.00  0.00    +0.473 P 
ATOM     14  O   UNL     1      26.950 -22.355 -15.545  0.00  0.00    -0.227 OA
BRANCH  13  15
ATOM     15  O   UNL     1      28.237 -23.325 -17.623  0.00  0.00    -0.303 OA
ATOM     16  H   UNL     1      29.053 -23.801 -17.844  0.00  0.00    +0.222 HD
ENDBRANCH  13  15
BRANCH  13  17
ATOM     17  O   UNL     1      28.285 -24.624 -15.445  0.00  0.00    -0.303 OA
ATOM     18  H   UNL     1      27.642 -24.757 -14.731  0.00  0.00    +0.222 HD
ENDBRANCH  13  17
ENDBRANCH  12  13
ENDBRANCH  11  12
ENDBRANCH   4  11
ENDBRANCH   1   3
BRANCH   1  19
ATOM     19  N   UNL     1      34.493 -22.507 -17.866  0.00  0.00    +0.392 N 
ATOM     20  H   UNL     1      34.455 -21.695 -17.249  0.00  0.00    -0.083 HD
ATOM     21  H   UNL     1      35.353 -23.032 -17.709  0.00  0.00    -0.083 HD
BRANCH  19  22
ATOM     22  C   UNL     1      34.463 -22.057 -19.255  0.00  0.00    -0.002 C 
ATOM     23  C   UNL     1      33.189 -21.278 -19.550  0.00  0.00    -0.016 C 
BRANCH  22  25
ATOM     24  O   UNL     1      36.553 -21.016 -18.635  0.00  0.00    -0.298 OA
ATOM     25  C   UNL     1      35.690 -21.184 -19.496  0.00  0.00    +0.131 C 
BRANCH  25  26
ATOM     26  C   UNL     1      35.765 -20.502 -20.855  0.00  0.00    +0.062 C 
BRANCH  26  27
ATOM     27  C   UNL     1      36.330 -19.086 -20.771  0.00  0.00    +0.008 C 
BRANCH  27  28
ATOM     28  C   UNL     1      36.264 -18.378 -22.126  0.00  0.00    +0.001 C 
BRANCH  28  29
ATOM     29  C   UNL     1      34.819 -18.034 -22.501  0.00  0.00    +0.012 C 
BRANCH  29  30
ATOM     30  C   UNL     1      34.086 -17.289 -21.385  0.00  0.00    +0.109 C 
BRANCH  30  32
ATOM     31  O   UNL     1      34.971 -15.417 -20.102  0.00  0.00    -0.250 OA
ATOM     32  C   UNL     1      34.596 -15.882 -21.170  0.00  0.00    +0.314 C 
BRANCH  32  33
ATOM     33  O   UNL     1      34.613 -15.177 -22.331  0.00  0.00    -0.480 OA
ATOM     34  H   UNL     1      35.326 -14.597 -22.516  0.00  0.00    +0.295 HD
ENDBRANCH  32  33
ENDBRANCH  30  32
ENDBRANCH  29  30
ENDBRANCH  28  29
ENDBRANCH  27  28
ENDBRANCH  26  27
ENDBRANCH  25  26
ENDBRANCH  22  25
ENDBRANCH  19  22
ENDBRANCH   1  19
TORSDOF 17
ENDMDL
MODEL 4
REMARK VINA RESULT:      -8.5      4.146      8.506
REMARK  Name = 445085
REMARK  17 active torsions:
REMARK  status: ('A' for Active; 'I' for Inactive)
REMARK    1  A    between atoms: C_1  and  C_3
REMARK    2  A    between atoms: C_1  and  N_19
REMARK    3  A    between atoms: C_4  and  C_11
REMARK    4  A    between atoms: C_5  and  O_9
REMARK    5  A    between atoms: C_11  and  O_12
REMARK    6  A    between atoms: O_12  and  P_13
REMARK    7  A    between atoms: P_13  and  O_15
REMARK    8  A    between atoms: P_13  and  O_17
REMARK    9  A    between atoms: N_19  and  C_22
REMARK   10  A    between atoms: C_22  and  C_25
REMARK   11  A    between atoms: C_25  and  C_26
REMARK   12  A    between atoms: C_26  and  C_27
REMARK   13  A    between atoms: C_27  and  C_28
REMARK   14  A    between atoms: C_28  and  C_29
REMARK   15  A    between atoms: C_29  and  C_30
REMARK   16  A    between atoms: C_30  and  C_32
REMARK   17  A    between atoms: C_32  and  O_33
REMARK                            x       y       z     vdW  Elec       q    Type
REMARK                         _______ _______ _______ _____ _____    ______ ____
ROOT
ATOM      1  C   UNL     1      34.534 -23.950 -15.918  0.00  0.00    -0.051 C 
ENDROOT
BRANCH   1   3
ATOM      2  N   UNL     1      36.552 -21.095 -18.423  0.00  0.00    -0.245 NA
ATOM      3  C   UNL     1      35.241 -22.950 -16.792  0.00  0.00    -0.009 C 
ATOM      4  C   UNL     1      36.465 -22.419 -16.403  0.00  0.00    +0.024 C 
ATOM      5  C   UNL     1      34.671 -22.554 -17.997  0.00  0.00    +0.141 C 
ATOM      6  C   UNL     1      35.361 -21.632 -18.769  0.00  0.00    +0.092 C 
ATOM      7  C   UNL     1      37.075 -21.504 -17.245  0.00  0.00    +0.096 C 
ATOM      8  C   UNL     1      34.793 -21.173 -20.073  0.00  0.00    +0.055 C 
BRANCH   5   9
ATOM      9  O   UNL     1      33.477 -23.056 -18.405  0.00  0.00    -0.505 OA
ATOM     10  H   UNL     1      33.120 -22.803 -19.233  0.00  0.00    +0.292 HD
ENDBRANCH   5   9
BRANCH   4  11
ATOM     11  C   UNL     1      37.123 -22.807 -15.123  0.00  0.00    +0.181 C 
BRANCH  11  12
ATOM     12  O   UNL     1      38.282 -23.585 -15.403  0.00  0.00    -0.268 OA
BRANCH  12  13
ATOM     13  P   UNL     1      38.449 -25.007 -14.654  0.00  0.00    +0.473 P 
ATOM     14  O   UNL     1      37.174 -25.773 -14.452  0.00  0.00    -0.227 OA
BRANCH  13  15
ATOM     15  O   UNL     1      39.560 -25.758 -15.560  0.00  0.00    -0.303 OA
ATOM     16  H   UNL     1      39.404 -26.715 -15.534  0.00  0.00    +0.222 HD
ENDBRANCH  13  15
BRANCH  13  17
ATOM     17  O   UNL     1      39.257 -24.640 -13.303  0.00  0.00    -0.303 OA
ATOM     18  H   UNL     1      40.072 -25.164 -13.260  0.00  0.00    +0.222 HD
ENDBRANCH  13  17
ENDBRANCH  12  13
ENDBRANCH  11  12
ENDBRANCH   4  11
ENDBRANCH   1   3
BRANCH   1  19
ATOM     19  N   UNL     1      33.199 -23.501 -15.551  0.00  0.00    +0.392 N 
ATOM     20  H   UNL     1      33.217 -22.493 -15.392  0.00  0.00    -0.083 HD
ATOM     21  H   UNL     1      32.557 -23.729 -16.311  0.00  0.00    -0.083 HD
BRANCH  19  22
ATOM     22  C   UNL     1      32.743 -24.171 -14.335  0.00  0.00    -0.002 C 
ATOM     23  C   UNL     1      33.876 -24.305 -13.328  0.00  0.00    -0.016 C 
BRANCH  22  25
ATOM     24  O   UNL     1      31.587 -23.000 -12.566  0.00  0.00    -0.298 OA
ATOM     25  C   UNL     1      31.599 -23.353 -13.745  0.00  0.00    +0.131 C 
BRANCH  25  26
ATOM     26  C   UNL     1      30.455 -23.029 -14.695  0.00  0.00    +0.062 C 
BRANCH  26  27
ATOM     27  C   UNL     1      29.632 -24.262 -15.065  0.00  0.00    +0.008 C 
BRANCH  27  28
ATOM     28  C   UNL     1      28.448 -23.893 -15.961  0.00  0.00    +0.001 C 
BRANCH  28  29
ATOM     29  C   UNL     1      28.253 -22.375 -16.024  0.00  0.00    +0.012 C 
BRANCH  29  30
ATOM     30  C   UNL     1      26.792 -21.982 -16.249  0.00  0.00    +0.109 C 
BRANCH  30  32
ATOM     31  O   UNL     1      26.575 -22.420 -18.635  0.00  0.00    -0.250 OA
ATOM     32  C   UNL     1      26.476 -21.650 -17.690  0.00  0.00    +0.314 C 
BRANCH  32  33
ATOM     33  O   UNL     1      26.035 -20.371 -17.820  0.00  0.00    -0.480 OA
ATOM     34  H   UNL     1      26.352 -19.835 -18.521  0.00  0.00    +0.295 HD
ENDBRANCH  32  33
ENDBRANCH  30  32
ENDBRANCH  29  30
ENDBRANCH  28  29
ENDBRANCH  27  28
ENDBRANCH  26  27
ENDBRANCH  25  26
ENDBRANCH  22  25
ENDBRANCH  19  22
ENDBRANCH   1  19
TORSDOF 17
ENDMDL
MODEL 5
REMARK VINA RESULT:      -8.5      2.536      4.672
REMARK  Name = 445085
REMARK  17 active torsions:
REMARK  status: ('A' for Active; 'I' for Inactive)
REMARK    1  A    between atoms: C_1  and  C_3
REMARK    2  A    between atoms: C_1  and  N_19
REMARK    3  A    between atoms: C_4  and  C_11
REMARK    4  A    between atoms: C_5  and  O_9
REMARK    5  A    between atoms: C_11  and  O_12
REMARK    6  A    between atoms: O_12  and  P_13
REMARK    7  A    between atoms: P_13  and  O_15
REMARK    8  A    between atoms: P_13  and  O_17
REMARK    9  A    between atoms: N_19  and  C_22
REMARK   10  A    between atoms: C_22  and  C_25
REMARK   11  A    between atoms: C_25  and  C_26
REMARK   12  A    between atoms: C_26  and  C_27
REMARK   13  A    between atoms: C_27  and  C_28
REMARK   14  A    between atoms: C_28  and  C_29
REMARK   15  A    between atoms: C_29  and  C_30
REMARK   16  A    between atoms: C_30  and  C_32
REMARK   17  A    between atoms: C_32  and  O_33
REMARK                            x       y       z     vdW  Elec       q    Type
REMARK                         _______ _______ _______ _____ _____    ______ ____
ROOT
ATOM      1  C   UNL     1      33.473 -23.279 -18.123  0.00  0.00    -0.051 C 
ENDROOT
BRANCH   1   3
ATOM      2  N   UNL     1      32.201 -23.174 -14.015  0.00  0.00    -0.245 NA
ATOM      3  C   UNL     1      33.030 -23.243 -16.685  0.00  0.00    -0.009 C 
ATOM      4  C   UNL     1      33.956 -23.409 -15.662  0.00  0.00    +0.024 C 
ATOM      5  C   UNL     1      31.689 -23.043 -16.375  0.00  0.00    +0.141 C 
ATOM      6  C   UNL     1      31.329 -23.017 -15.037  0.00  0.00    +0.092 C 
ATOM      7  C   UNL     1      33.495 -23.367 -14.355  0.00  0.00    +0.096 C 
ATOM      8  C   UNL     1      29.902 -22.804 -14.649  0.00  0.00    +0.055 C 
BRANCH   5   9
ATOM      9  O   UNL     1      30.762 -22.877 -17.354  0.00  0.00    -0.505 OA
ATOM     10  H   UNL     1      30.610 -22.026 -17.716  0.00  0.00    +0.292 HD
ENDBRANCH   5   9
BRANCH   4  11
ATOM     11  C   UNL     1      35.404 -23.626 -15.934  0.00  0.00    +0.181 C 
BRANCH  11  12
ATOM     12  O   UNL     1      35.753 -24.967 -15.604  0.00  0.00    -0.268 OA
BRANCH  12  13
ATOM     13  P   UNL     1      37.083 -25.216 -14.721  0.00  0.00    +0.473 P 
ATOM     14  O   UNL     1      37.897 -23.988 -14.436  0.00  0.00    -0.227 OA
BRANCH  13  15
ATOM     15  O   UNL     1      36.506 -25.972 -13.412  0.00  0.00    -0.303 OA
ATOM     16  H   UNL     1      35.603 -25.664 -13.234  0.00  0.00    +0.222 HD
ENDBRANCH  13  15
BRANCH  13  17
ATOM     17  O   UNL     1      37.859 -26.391 -15.516  0.00  0.00    -0.303 OA
ATOM     18  H   UNL     1      37.357 -27.218 -15.442  0.00  0.00    +0.222 HD
ENDBRANCH  13  17
ENDBRANCH  12  13
ENDBRANCH  11  12
ENDBRANCH   4  11
ENDBRANCH   1   3
BRANCH   1  19
ATOM     19  N   UNL     1      32.995 -22.123 -18.867  0.00  0.00    +0.392 N 
ATOM     20  H   UNL     1      32.551 -22.440 -19.728  0.00  0.00    -0.083 HD
ATOM     21  H   UNL     1      32.325 -21.616 -18.288  0.00  0.00    -0.083 HD
BRANCH  19  22
ATOM     22  C   UNL     1      34.101 -21.228 -19.199  0.00  0.00    -0.002 C 
ATOM     23  C   UNL     1      35.377 -22.013 -19.470  0.00  0.00    -0.016 C 
BRANCH  22  25
ATOM     24  O   UNL     1      32.541 -20.376 -20.835  0.00  0.00    -0.298 OA
ATOM     25  C   UNL     1      33.702 -20.418 -20.428  0.00  0.00    +0.131 C 
BRANCH  25  26
ATOM     26  C   UNL     1      34.833 -19.693 -21.143  0.00  0.00    +0.062 C 
BRANCH  26  27
ATOM     27  C   UNL     1      34.327 -18.622 -22.108  0.00  0.00    +0.008 C 
BRANCH  27  28
ATOM     28  C   UNL     1      34.266 -17.250 -21.434  0.00  0.00    +0.001 C 
BRANCH  28  29
ATOM     29  C   UNL     1      34.722 -16.143 -22.388  0.00  0.00    +0.012 C 
BRANCH  29  30
ATOM     30  C   UNL     1      35.118 -16.682 -23.764  0.00  0.00    +0.109 C 
BRANCH  30  32
ATOM     31  O   UNL     1      33.815 -17.045 -25.790  0.00  0.00    -0.250 OA
ATOM     32  C   UNL     1      34.132 -16.325 -24.853  0.00  0.00    +0.314 C 
BRANCH  32  33
ATOM     33  O   UNL     1      33.602 -15.088 -24.657  0.00  0.00    -0.480 OA
ATOM     34  H   UNL     1      32.793 -14.855 -25.069  0.00  0.00    +0.295 HD
ENDBRANCH  32  33
ENDBRANCH  30  32
ENDBRANCH  29  30
ENDBRANCH  28  29
ENDBRANCH  27  28
ENDBRANCH  26  27
ENDBRANCH  25  26
ENDBRANCH  22  25
ENDBRANCH  19  22
ENDBRANCH   1  19
TORSDOF 17
ENDMDL
MODEL 6
REMARK VINA RESULT:      -8.4      3.890      7.856
REMARK  Name = 445085
REMARK  17 active torsions:
REMARK  status: ('A' for Active; 'I' for Inactive)
REMARK    1  A    between atoms: C_1  and  C_3
REMARK    2  A    between atoms: C_1  and  N_19
REMARK    3  A    between atoms: C_4  and  C_11
REMARK    4  A    between atoms: C_5  and  O_9
REMARK    5  A    between atoms: C_11  and  O_12
REMARK    6  A    between atoms: O_12  and  P_13
REMARK    7  A    between atoms: P_13  and  O_15
REMARK    8  A    between atoms: P_13  and  O_17
REMARK    9  A    between atoms: N_19  and  C_22
REMARK   10  A    between atoms: C_22  and  C_25
REMARK   11  A    between atoms: C_25  and  C_26
REMARK   12  A    between atoms: C_26  and  C_27
REMARK   13  A    between atoms: C_27  and  C_28
REMARK   14  A    between atoms: C_28  and  C_29
REMARK   15  A    between atoms: C_29  and  C_30
REMARK   16  A    between atoms: C_30  and  C_32
REMARK   17  A    between atoms: C_32  and  O_33
REMARK                            x       y       z     vdW  Elec       q    Type
REMARK                         _______ _______ _______ _____ _____    ______ ____
ROOT
ATOM      1  C   UNL     1      34.618 -24.040 -15.359  0.00  0.00    -0.051 C 
ENDROOT
BRANCH   1   3
ATOM      2  N   UNL     1      34.228 -21.754 -18.981  0.00  0.00    -0.245 NA
ATOM      3  C   UNL     1      34.479 -23.241 -16.626  0.00  0.00    -0.009 C 
ATOM      4  C   UNL     1      33.226 -23.034 -17.191  0.00  0.00    +0.024 C 
ATOM      5  C   UNL     1      35.607 -22.706 -17.238  0.00  0.00    +0.141 C 
ATOM      6  C   UNL     1      35.430 -21.977 -18.403  0.00  0.00    +0.092 C 
ATOM      7  C   UNL     1      33.154 -22.290 -18.358  0.00  0.00    +0.096 C 
ATOM      8  C   UNL     1      36.608 -21.379 -19.100  0.00  0.00    +0.055 C 
BRANCH   5   9
ATOM      9  O   UNL     1      36.845 -22.891 -16.709  0.00  0.00    -0.505 OA
ATOM     10  H   UNL     1      37.250 -22.207 -16.212  0.00  0.00    +0.292 HD
ENDBRANCH   5   9
BRANCH   4  11
ATOM     11  C   UNL     1      31.983 -23.583 -16.580  0.00  0.00    +0.181 C 
BRANCH  11  12
ATOM     12  O   UNL     1      30.857 -22.857 -17.061  0.00  0.00    -0.268 OA
BRANCH  12  13
ATOM     13  P   UNL     1      29.490 -22.905 -16.201  0.00  0.00    +0.473 P 
ATOM     14  O   UNL     1      28.431 -21.935 -16.636  0.00  0.00    -0.227 OA
BRANCH  13  15
ATOM     15  O   UNL     1      29.066 -24.464 -16.293  0.00  0.00    -0.303 OA
ATOM     16  H   UNL     1      28.220 -24.596 -15.838  0.00  0.00    +0.222 HD
ENDBRANCH  13  15
BRANCH  13  17
ATOM     17  O   UNL     1      29.990 -22.746 -14.672  0.00  0.00    -0.303 OA
ATOM     18  H   UNL     1      29.654 -21.912 -14.307  0.00  0.00    +0.222 HD
ENDBRANCH  13  17
ENDBRANCH  12  13
ENDBRANCH  11  12
ENDBRANCH   4  11
ENDBRANCH   1   3
BRANCH   1  19
ATOM     19  N   UNL     1      35.012 -23.207 -14.232  0.00  0.00    +0.392 N 
ATOM     20  H   UNL     1      36.013 -23.318 -14.069  0.00  0.00    -0.083 HD
ATOM     21  H   UNL     1      34.794 -22.235 -14.453  0.00  0.00    -0.083 HD
BRANCH  19  22
ATOM     22  C   UNL     1      34.283 -23.590 -13.025  0.00  0.00    -0.002 C 
ATOM     23  C   UNL     1      33.202 -24.613 -13.342  0.00  0.00    -0.016 C 
BRANCH  22  25
ATOM     24  O   UNL     1      34.942 -24.901 -11.106  0.00  0.00    -0.298 OA
ATOM     25  C   UNL     1      35.286 -24.165 -12.030  0.00  0.00    +0.131 C 
BRANCH  25  26
ATOM     26  C   UNL     1      36.735 -23.743 -12.228  0.00  0.00    +0.062 C 
BRANCH  26  27
ATOM     27  C   UNL     1      37.679 -24.936 -12.366  0.00  0.00    +0.008 C 
BRANCH  27  28
ATOM     28  C   UNL     1      37.044 -26.056 -13.192  0.00  0.00    +0.001 C 
BRANCH  28  29
ATOM     29  C   UNL     1      37.768 -26.237 -14.530  0.00  0.00    +0.012 C 
BRANCH  29  30
ATOM     30  C   UNL     1      38.911 -25.238 -14.717  0.00  0.00    +0.109 C 
BRANCH  30  32
ATOM     31  O   UNL     1      40.954 -26.299 -13.919  0.00  0.00    -0.250 OA
ATOM     32  C   UNL     1      40.266 -25.896 -14.847  0.00  0.00    +0.314 C 
BRANCH  32  33
ATOM     33  O   UNL     1      40.636 -26.017 -16.150  0.00  0.00    -0.480 OA
ATOM     34  H   UNL     1      41.212 -26.709 -16.410  0.00  0.00    +0.295 HD
ENDBRANCH  32  33
ENDBRANCH  30  32
ENDBRANCH  29  30
ENDBRANCH  28  29
ENDBRANCH  27  28
ENDBRANCH  26  27
ENDBRANCH  25  26
ENDBRANCH  22  25
ENDBRANCH  19  22
ENDBRANCH   1  19
TORSDOF 17
ENDMDL
MODEL 7
REMARK VINA RESULT:      -8.3      2.377      4.497
REMARK  Name = 445085
REMARK  17 active torsions:
REMARK  status: ('A' for Active; 'I' for Inactive)
REMARK    1  A    between atoms: C_1  and  C_3
REMARK    2  A    between atoms: C_1  and  N_19
REMARK    3  A    between atoms: C_4  and  C_11
REMARK    4  A    between atoms: C_5  and  O_9
REMARK    5  A    between atoms: C_11  and  O_12
REMARK    6  A    between atoms: O_12  and  P_13
REMARK    7  A    between atoms: P_13  and  O_15
REMARK    8  A    between atoms: P_13  and  O_17
REMARK    9  A    between atoms: N_19  and  C_22
REMARK   10  A    between atoms: C_22  and  C_25
REMARK   11  A    between atoms: C_25  and  C_26
REMARK   12  A    between atoms: C_26  and  C_27
REMARK   13  A    between atoms: C_27  and  C_28
REMARK   14  A    between atoms: C_28  and  C_29
REMARK   15  A    between atoms: C_29  and  C_30
REMARK   16  A    between atoms: C_30  and  C_32
REMARK   17  A    between atoms: C_32  and  O_33
REMARK                            x       y       z     vdW  Elec       q    Type
REMARK                         _______ _______ _______ _____ _____    ______ ____
ROOT
ATOM      1  C   UNL     1      32.524 -22.577 -17.270  0.00  0.00    -0.051 C 
ENDROOT
BRANCH   1   3
ATOM      2  N   UNL     1      31.207 -24.961 -13.940  0.00  0.00    -0.245 NA
ATOM      3  C   UNL     1      32.066 -23.411 -16.104  0.00  0.00    -0.009 C 
ATOM      4  C   UNL     1      32.971 -23.809 -15.127  0.00  0.00    +0.024 C 
ATOM      5  C   UNL     1      30.731 -23.787 -16.001  0.00  0.00    +0.141 C 
ATOM      6  C   UNL     1      30.356 -24.556 -14.910  0.00  0.00    +0.092 C 
ATOM      7  C   UNL     1      32.497 -24.576 -14.075  0.00  0.00    +0.096 C 
ATOM      8  C   UNL     1      28.934 -24.987 -14.750  0.00  0.00    +0.055 C 
BRANCH   5   9
ATOM      9  O   UNL     1      29.824 -23.413 -16.940  0.00  0.00    -0.505 OA
ATOM     10  H   UNL     1      29.900 -22.578 -17.359  0.00  0.00    +0.292 HD
ENDBRANCH   5   9
BRANCH   4  11
ATOM     11  C   UNL     1      34.412 -23.435 -15.186  0.00  0.00    +0.181 C 
BRANCH  11  12
ATOM     12  O   UNL     1      35.157 -24.507 -15.754  0.00  0.00    -0.268 OA
BRANCH  12  13
ATOM     13  P   UNL     1      36.489 -25.005 -14.987  0.00  0.00    +0.473 P 
ATOM     14  O   UNL     1      37.584 -23.984 -14.884  0.00  0.00    -0.227 OA
BRANCH  13  15
ATOM     15  O   UNL     1      35.909 -25.529 -13.570  0.00  0.00    -0.303 OA
ATOM     16  H   UNL     1      36.626 -25.938 -13.060  0.00  0.00    +0.222 HD
ENDBRANCH  13  15
BRANCH  13  17
ATOM     17  O   UNL     1      36.888 -26.372 -15.754  0.00  0.00    -0.303 OA
ATOM     18  H   UNL     1      37.455 -26.911 -15.182  0.00  0.00    +0.222 HD
ENDBRANCH  13  17
ENDBRANCH  12  13
ENDBRANCH  11  12
ENDBRANCH   4  11
ENDBRANCH   1   3
BRANCH   1  19
ATOM     19  N   UNL     1      33.473 -23.292 -18.110  0.00  0.00    +0.392 N 
ATOM     20  H   UNL     1      34.319 -23.481 -17.572  0.00  0.00    -0.083 HD
ATOM     21  H   UNL     1      33.044 -24.166 -18.415  0.00  0.00    -0.083 HD
BRANCH  19  22
ATOM     22  C   UNL     1      33.820 -22.501 -19.288  0.00  0.00    -0.002 C 
ATOM     23  C   UNL     1      32.924 -21.277 -19.407  0.00  0.00    -0.016 C 
BRANCH  22  25
ATOM     24  O   UNL     1      35.929 -22.268 -18.133  0.00  0.00    -0.298 OA
ATOM     25  C   UNL     1      35.281 -22.083 -19.164  0.00  0.00    +0.131 C 
BRANCH  25  26
ATOM     26  C   UNL     1      35.881 -21.391 -20.379  0.00  0.00    +0.062 C 
BRANCH  26  27
ATOM     27  C   UNL     1      36.783 -20.217 -20.001  0.00  0.00    +0.008 C 
BRANCH  27  28
ATOM     28  C   UNL     1      36.724 -19.107 -21.051  0.00  0.00    +0.001 C 
BRANCH  28  29
ATOM     29  C   UNL     1      35.339 -19.033 -21.701  0.00  0.00    +0.012 C 
BRANCH  29  30
ATOM     30  C   UNL     1      34.460 -17.944 -21.084  0.00  0.00    +0.109 C 
BRANCH  30  32
ATOM     31  O   UNL     1      35.177 -16.177 -22.600  0.00  0.00    -0.250 OA
ATOM     32  C   UNL     1      34.881 -16.545 -21.471  0.00  0.00    +0.314 C 
BRANCH  32  33
ATOM     33  O   UNL     1      34.871 -15.708 -20.400  0.00  0.00    -0.480 OA
ATOM     34  H   UNL     1      35.435 -15.875 -19.670  0.00  0.00    +0.295 HD
ENDBRANCH  32  33
ENDBRANCH  30  32
ENDBRANCH  29  30
ENDBRANCH  28  29
ENDBRANCH  27  28
ENDBRANCH  26  27
ENDBRANCH  25  26
ENDBRANCH  22  25
ENDBRANCH  19  22
ENDBRANCH   1  19
TORSDOF 17
ENDMDL
MODEL 8
REMARK VINA RESULT:      -8.2      2.945      4.102
REMARK  Name = 445085
REMARK  17 active torsions:
REMARK  status: ('A' for Active; 'I' for Inactive)
REMARK    1  A    between atoms: C_1  and  C_3
REMARK    2  A    between atoms: C_1  and  N_19
REMARK    3  A    between atoms: C_4  and  C_11
REMARK    4  A    between atoms: C_5  and  O_9
REMARK    5  A    between atoms: C_11  and  O_12
REMARK    6  A    between atoms: O_12  and  P_13
REMARK    7  A    between atoms: P_13  and  O_15
REMARK    8  A    between atoms: P_13  and  O_17
REMARK    9  A    between atoms: N_19  and  C_22
REMARK   10  A    between atoms: C_22  and  C_25
REMARK   11  A    between atoms: C_25  and  C_26
REMARK   12  A    between atoms: C_26  and  C_27
REMARK   13  A    between atoms: C_27  and  C_28
REMARK   14  A    between atoms: C_28  and  C_29
REMARK   15  A    between atoms: C_29  and  C_30
REMARK   16  A    between atoms: C_30  and  C_32
REMARK   17  A    between atoms: C_32  and  O_33
REMARK                            x       y       z     vdW  Elec       q    Type
REMARK                         _______ _______ _______ _____ _____    ______ ____
ROOT
ATOM      1  C   UNL     1      35.891 -22.707 -15.313  0.00  0.00    -0.051 C 
ENDROOT
BRANCH   1   3
ATOM      2  N   UNL     1      38.051 -25.806 -13.255  0.00  0.00    -0.245 NA
ATOM      3  C   UNL     1      36.645 -23.792 -14.591  0.00  0.00    -0.009 C 
ATOM      4  C   UNL     1      36.035 -24.510 -13.569  0.00  0.00    +0.024 C 
ATOM      5  C   UNL     1      37.958 -24.080 -14.946  0.00  0.00    +0.141 C 
ATOM      6  C   UNL     1      38.612 -25.087 -14.253  0.00  0.00    +0.092 C 
ATOM      7  C   UNL     1      36.773 -25.498 -12.938  0.00  0.00    +0.096 C 
ATOM      8  C   UNL     1      40.024 -25.437 -14.595  0.00  0.00    +0.055 C 
BRANCH   5   9
ATOM      9  O   UNL     1      38.580 -23.395 -15.941  0.00  0.00    -0.505 OA
ATOM     10  H   UNL     1      39.332 -23.762 -16.363  0.00  0.00    +0.292 HD
ENDBRANCH   5   9
BRANCH   4  11
ATOM     11  C   UNL     1      34.631 -24.245 -13.147  0.00  0.00    +0.181 C 
BRANCH  11  12
ATOM     12  O   UNL     1      33.738 -24.699 -14.159  0.00  0.00    -0.268 OA
BRANCH  12  13
ATOM     13  P   UNL     1      32.245 -24.080 -14.197  0.00  0.00    +0.473 P 
ATOM     14  O   UNL     1      31.137 -25.090 -14.136  0.00  0.00    -0.227 OA
BRANCH  13  15
ATOM     15  O   UNL     1      32.268 -23.019 -12.975  0.00  0.00    -0.303 OA
ATOM     16  H   UNL     1      32.718 -22.208 -13.262  0.00  0.00    +0.222 HD
ENDBRANCH  13  15
BRANCH  13  17
ATOM     17  O   UNL     1      32.251 -23.137 -15.509  0.00  0.00    -0.303 OA
ATOM     18  H   UNL     1      31.354 -22.809 -15.677  0.00  0.00    +0.222 HD
ENDBRANCH  13  17
ENDBRANCH  12  13
ENDBRANCH  11  12
ENDBRANCH   4  11
ENDBRANCH   1   3
BRANCH   1  19
ATOM     19  N   UNL     1      35.295 -23.191 -16.549  0.00  0.00    +0.392 N 
ATOM     20  H   UNL     1      35.873 -23.942 -16.927  0.00  0.00    -0.083 HD
ATOM     21  H   UNL     1      34.356 -23.534 -16.346  0.00  0.00    -0.083 HD
BRANCH  19  22
ATOM     22  C   UNL     1      35.200 -22.116 -17.533  0.00  0.00    -0.002 C 
ATOM     23  C   UNL     1      36.548 -21.855 -18.189  0.00  0.00    -0.016 C 
BRANCH  22  25
ATOM     24  O   UNL     1      33.852 -23.698 -18.765  0.00  0.00    -0.298 OA
ATOM     25  C   UNL     1      34.168 -22.522 -18.580  0.00  0.00    +0.131 C 
BRANCH  25  26
ATOM     26  C   UNL     1      33.577 -21.389 -19.407  0.00  0.00    +0.062 C 
BRANCH  26  27
ATOM     27  C   UNL     1      34.636 -20.636 -20.210  0.00  0.00    +0.008 C 
BRANCH  27  28
ATOM     28  C   UNL     1      33.997 -19.750 -21.281  0.00  0.00    +0.001 C 
BRANCH  28  29
ATOM     29  C   UNL     1      34.725 -18.408 -21.399  0.00  0.00    +0.012 C 
BRANCH  29  30
ATOM     30  C   UNL     1      33.795 -17.215 -21.175  0.00  0.00    +0.109 C 
BRANCH  30  32
ATOM     31  O   UNL     1      34.938 -15.328 -20.141  0.00  0.00    -0.250 OA
ATOM     32  C   UNL     1      34.520 -15.889 -21.145  0.00  0.00    +0.314 C 
BRANCH  32  33
ATOM     33  O   UNL     1      34.682 -15.383 -22.396  0.00  0.00    -0.480 OA
ATOM     34  H   UNL     1      35.358 -14.756 -22.564  0.00  0.00    +0.295 HD
ENDBRANCH  32  33
ENDBRANCH  30  32
ENDBRANCH  29  30
ENDBRANCH  28  29
ENDBRANCH  27  28
ENDBRANCH  26  27
ENDBRANCH  25  26
ENDBRANCH  22  25
ENDBRANCH  19  22
ENDBRANCH   1  19
TORSDOF 17
ENDMDL
MODEL 9
REMARK VINA RESULT:      -8.1      9.836     13.602
REMARK  Name = 445085
REMARK  17 active torsions:
REMARK  status: ('A' for Active; 'I' for Inactive)
REMARK    1  A    between atoms: C_1  and  C_3
REMARK    2  A    between atoms: C_1  and  N_19
REMARK    3  A    between atoms: C_4  and  C_11
REMARK    4  A    between atoms: C_5  and  O_9
REMARK    5  A    between atoms: C_11  and  O_12
REMARK    6  A    between atoms: O_12  and  P_13
REMARK    7  A    between atoms: P_13  and  O_15
REMARK    8  A    between atoms: P_13  and  O_17
REMARK    9  A    between atoms: N_19  and  C_22
REMARK   10  A    between atoms: C_22  and  C_25
REMARK   11  A    between atoms: C_25  and  C_26
REMARK   12  A    between atoms: C_26  and  C_27
REMARK   13  A    between atoms: C_27  and  C_28
REMARK   14  A    between atoms: C_28  and  C_29
REMARK   15  A    between atoms: C_29  and  C_30
REMARK   16  A    between atoms: C_30  and  C_32
REMARK   17  A    between atoms: C_32  and  O_33
REMARK                            x       y       z     vdW  Elec       q    Type
REMARK                         _______ _______ _______ _____ _____    ______ ____
ROOT
ATOM      1  C   UNL     1      32.520  -9.748 -23.480  0.00  0.00    -0.051 C 
ENDROOT
BRANCH   1   3
ATOM      2  N   UNL     1      31.973  -8.577 -19.377  0.00  0.00    -0.245 NA
ATOM      3  C   UNL     1      32.330  -9.336 -22.045  0.00  0.00    -0.009 C 
ATOM      4  C   UNL     1      32.584  -8.028 -21.651  0.00  0.00    +0.024 C 
ATOM      5  C   UNL     1      31.897 -10.266 -21.106  0.00  0.00    +0.141 C 
ATOM      6  C   UNL     1      31.737  -9.840 -19.797  0.00  0.00    +0.092 C 
ATOM      7  C   UNL     1      32.392  -7.701 -20.319  0.00  0.00    +0.096 C 
ATOM      8  C   UNL     1      31.274 -10.799 -18.749  0.00  0.00    +0.055 C 
BRANCH   5   9
ATOM      9  O   UNL     1      31.641 -11.552 -21.462  0.00  0.00    -0.505 OA
ATOM     10  H   UNL     1      31.257 -11.740 -22.296  0.00  0.00    +0.292 HD
ENDBRANCH   5   9
BRANCH   4  11
ATOM     11  C   UNL     1      33.048  -6.989 -22.613  0.00  0.00    +0.181 C 
BRANCH  11  12
ATOM     12  O   UNL     1      32.475  -5.733 -22.268  0.00  0.00    -0.268 OA
BRANCH  12  13
ATOM     13  P   UNL     1      31.223  -5.197 -23.138  0.00  0.00    +0.473 P 
ATOM     14  O   UNL     1      31.423  -3.856 -23.782  0.00  0.00    -0.227 OA
BRANCH  13  15
ATOM     15  O   UNL     1      30.958  -6.416 -24.169  0.00  0.00    -0.303 OA
ATOM     16  H   UNL     1      31.752  -6.562 -24.707  0.00  0.00    +0.222 HD
ENDBRANCH  13  15
BRANCH  13  17
ATOM     17  O   UNL     1      29.973  -5.295 -22.117  0.00  0.00    -0.303 OA
ATOM     18  H   UNL     1      30.061  -6.094 -21.574  0.00  0.00    +0.222 HD
ENDBRANCH  13  17
ENDBRANCH  12  13
ENDBRANCH  11  12
ENDBRANCH   4  11
ENDBRANCH   1   3
BRANCH   1  19
ATOM     19  N   UNL     1      33.696 -10.587 -23.653  0.00  0.00    +0.392 N 
ATOM     20  H   UNL     1      34.533 -10.020 -23.518  0.00  0.00    -0.083 HD
ATOM     21  H   UNL     1      33.664 -11.340 -22.965  0.00  0.00    -0.083 HD
BRANCH  19  22
ATOM     22  C   UNL     1      33.723 -11.173 -24.991  0.00  0.00    -0.002 C 
ATOM     23  C   UNL     1      34.993 -10.783 -25.733  0.00  0.00    -0.016 C 
BRANCH  22  25
ATOM     24  O   UNL     1      33.289 -13.416 -25.776  0.00  0.00    -0.298 OA
ATOM     25  C   UNL     1      33.634 -12.688 -24.845  0.00  0.00    +0.131 C 
BRANCH  25  26
ATOM     26  C   UNL     1      33.964 -13.244 -23.467  0.00  0.00    +0.062 C 
BRANCH  26  27
ATOM     27  C   UNL     1      32.945 -14.279 -22.993  0.00  0.00    +0.008 C 
BRANCH  27  28
ATOM     28  C   UNL     1      33.634 -15.547 -22.485  0.00  0.00    +0.001 C 
BRANCH  28  29
ATOM     29  C   UNL     1      34.948 -15.800 -23.231  0.00  0.00    +0.012 C 
BRANCH  29  30
ATOM     30  C   UNL     1      35.026 -17.211 -23.816  0.00  0.00    +0.109 C 
BRANCH  30  32
ATOM     31  O   UNL     1      33.739 -18.328 -25.558  0.00  0.00    -0.250 OA
ATOM     32  C   UNL     1      34.342 -17.340 -25.158  0.00  0.00    +0.314 C 
BRANCH  32  33
ATOM     33  O   UNL     1      34.453 -16.197 -25.885  0.00  0.00    -0.480 OA
ATOM     34  H   UNL     1      34.469 -16.237 -26.821  0.00  0.00    +0.295 HD
ENDBRANCH  32  33
ENDBRANCH  30  32
ENDBRANCH  29  30
ENDBRANCH  28  29
ENDBRANCH  27  28
ENDBRANCH  26  27
ENDBRANCH  25  26
ENDBRANCH  22  25
ENDBRANCH  19  22
ENDBRANCH   1  19
TORSDOF 17
ENDMDL
