MODEL 1
REMARK VINA RESULT:      -8.9      0.000      0.000
REMARK  Name = 2451
REMARK  1 active torsions:
REMARK  status: ('A' for Active; 'I' for Inactive)
REMARK    1  A    between atoms: C_10  and  C_17
REMARK                            x       y       z     vdW  Elec       q    Type
REMARK                         _______ _______ _______ _____ _____    ______ ____
ROOT
ATOM      1 BR   UNL     1      31.031 -23.946 -14.535  0.00  0.00    -0.042 Br
ATOM      2  S   UNL     1      32.793 -22.986 -17.002  0.00  0.00    -0.063 S 
ATOM      3  N   UNL     1      35.187 -22.307 -17.949  0.00  0.00    -0.273 N 
ATOM      4  N   UNL     1      37.363 -22.640 -15.788  0.00  0.00    -0.262 NA
ATOM      5  N   UNL     1      36.851 -21.396 -19.078  0.00  0.00    -0.131 NA
ATOM      6  N   UNL     1      35.835 -21.672 -19.960  0.00  0.00    -0.133 NA
ATOM      7  C   UNL     1      34.477 -22.828 -16.875  0.00  0.00    +0.098 C 
ATOM      8  C   UNL     1      34.999 -23.260 -15.669  0.00  0.00    +0.041 C 
ATOM      9  C   UNL     1      36.445 -21.746 -17.877  0.00  0.00    +0.172 A 
ATOM     10  C   UNL     1      36.425 -23.406 -15.353  0.00  0.00    +0.079 C 
ATOM     11  C   UNL     1      37.108 -21.451 -16.584  0.00  0.00    +0.191 C 
ATOM     12  C   UNL     1      34.840 -22.182 -19.271  0.00  0.00    +0.148 A 
ATOM     13  C   UNL     1      33.912 -23.628 -14.793  0.00  0.00    +0.017 C 
ATOM     14  C   UNL     1      32.674 -23.521 -15.386  0.00  0.00    +0.065 C 
ATOM     15  C   UNL     1      33.581 -22.638 -19.895  0.00  0.00    +0.074 C 
ENDROOT
BRANCH  10  17
ATOM     16 CL   UNL     1      37.173 -22.788 -12.420  0.00  0.00    -0.082 Cl
ATOM     17  C   UNL     1      36.825 -24.543 -14.482  0.00  0.00    +0.028 C 
ATOM     18  C   UNL     1      37.177 -24.355 -13.147  0.00  0.00    +0.059 C 
ATOM     19  C   UNL     1      36.839 -25.819 -15.039  0.00  0.00    +0.002 C 
ATOM     20  C   UNL     1      37.544 -25.451 -12.365  0.00  0.00    +0.011 C 
ATOM     21  C   UNL     1      37.205 -26.914 -14.258  0.00  0.00    +0.000 C 
ATOM     22  C   UNL     1      37.558 -26.731 -12.921  0.00  0.00    +0.001 C 
ENDBRANCH  10  17
TORSDOF 1
ENDMDL
MODEL 2
REMARK VINA RESULT:      -8.0     15.479     18.128
REMARK  Name = 2451
REMARK  1 active torsions:
REMARK  status: ('A' for Active; 'I' for Inactive)
REMARK    1  A    between atoms: C_10  and  C_17
REMARK                            x       y       z     vdW  Elec       q    Type
REMARK                         _______ _______ _______ _____ _____    ______ ____
ROOT
ATOM      1 BR   UNL     1      35.598 -10.340 -26.076  0.00  0.00    -0.042 Br
ATOM      2  S   UNL     1      33.693 -10.952 -23.604  0.00  0.00    -0.063 S 
ATOM      3  N   UNL     1      32.283 -10.023 -21.546  0.00  0.00    -0.273 N 
ATOM      4  N   UNL     1      32.386  -6.942 -21.438  0.00  0.00    -0.262 NA
ATOM      5  N   UNL     1      31.256  -9.771 -19.608  0.00  0.00    -0.131 NA
ATOM      6  N   UNL     1      31.039 -11.055 -20.045  0.00  0.00    -0.133 NA
ATOM      7  C   UNL     1      33.024  -9.700 -22.676  0.00  0.00    +0.098 C 
ATOM      8  C   UNL     1      33.285  -8.431 -23.159  0.00  0.00    +0.041 C 
ATOM      9  C   UNL     1      32.026  -9.173 -20.490  0.00  0.00    +0.172 A 
ATOM     10  C   UNL     1      32.689  -7.183 -22.666  0.00  0.00    +0.079 C 
ATOM     11  C   UNL     1      32.695  -7.857 -20.353  0.00  0.00    +0.191 C 
ATOM     12  C   UNL     1      31.682 -11.201 -21.180  0.00  0.00    +0.148 A 
ATOM     13  C   UNL     1      34.176  -8.535 -24.290  0.00  0.00    +0.017 C 
ATOM     14  C   UNL     1      34.478  -9.835 -24.628  0.00  0.00    +0.065 C 
ATOM     15  C   UNL     1      31.646 -12.450 -21.969  0.00  0.00    +0.074 C 
ENDROOT
BRANCH  10  17
ATOM     16 CL   UNL     1      30.291  -5.317 -22.109  0.00  0.00    -0.082 Cl
ATOM     17  C   UNL     1      32.386  -6.122 -23.662  0.00  0.00    +0.028 C 
ATOM     18  C   UNL     1      31.325  -5.236 -23.491  0.00  0.00    +0.059 C 
ATOM     19  C   UNL     1      33.202  -6.032 -24.787  0.00  0.00    +0.002 C 
ATOM     20  C   UNL     1      31.079  -4.254 -24.450  0.00  0.00    +0.011 C 
ATOM     21  C   UNL     1      32.956  -5.050 -25.746  0.00  0.00    +0.000 C 
ATOM     22  C   UNL     1      31.895  -4.161 -25.578  0.00  0.00    +0.001 C 
ENDBRANCH  10  17
TORSDOF 1
ENDMDL
MODEL 3
REMARK VINA RESULT:      -7.8     12.192     14.551
REMARK  Name = 2451
REMARK  1 active torsions:
REMARK  status: ('A' for Active; 'I' for Inactive)
REMARK    1  A    between atoms: C_10  and  C_17
REMARK                            x       y       z     vdW  Elec       q    Type
REMARK                         _______ _______ _______ _____ _____    ______ ____
ROOT
ATOM      1 BR   UNL     1      35.831 -10.416 -26.808  0.00  0.00    -0.042 Br
ATOM      2  S   UNL     1      34.361  -9.306 -24.216  0.00  0.00    -0.063 S 
ATOM      3  N   UNL     1      32.689  -9.753 -22.193  0.00  0.00    -0.273 N 
ATOM      4  N   UNL     1      31.721 -12.682 -22.189  0.00  0.00    -0.262 NA
ATOM      5  N   UNL     1      31.188  -9.555 -20.586  0.00  0.00    -0.131 NA
ATOM      6  N   UNL     1      32.004  -8.450 -20.551  0.00  0.00    -0.133 NA
ATOM      7  C   UNL     1      33.391 -10.311 -23.254  0.00  0.00    +0.098 C 
ATOM      8  C   UNL     1      33.402 -11.641 -23.631  0.00  0.00    +0.041 C 
ATOM      9  C   UNL     1      31.581 -10.310 -21.589  0.00  0.00    +0.172 A 
ATOM     10  C   UNL     1      32.804 -12.753 -22.880  0.00  0.00    +0.079 C 
ATOM     11  C   UNL     1      30.886 -11.494 -22.148  0.00  0.00    +0.191 C 
ATOM     12  C   UNL     1      32.869  -8.565 -21.531  0.00  0.00    +0.148 A 
ATOM     13  C   UNL     1      34.173 -11.779 -24.844  0.00  0.00    +0.017 C 
ATOM     14  C   UNL     1      34.737 -10.596 -25.268  0.00  0.00    +0.065 C 
ATOM     15  C   UNL     1      33.936  -7.573 -21.781  0.00  0.00    +0.074 C 
ENDROOT
BRANCH  10  17
ATOM     16 CL   UNL     1      32.666 -14.447 -25.459  0.00  0.00    -0.082 Cl
ATOM     17  C   UNL     1      33.517 -14.058 -22.895  0.00  0.00    +0.028 C 
ATOM     18  C   UNL     1      33.509 -14.885 -24.016  0.00  0.00    +0.059 C 
ATOM     19  C   UNL     1      34.205 -14.439 -21.746  0.00  0.00    +0.002 C 
ATOM     20  C   UNL     1      34.194 -16.100 -23.987  0.00  0.00    +0.011 C 
ATOM     21  C   UNL     1      34.890 -15.653 -21.717  0.00  0.00    +0.000 C 
ATOM     22  C   UNL     1      34.884 -16.484 -22.837  0.00  0.00    +0.001 C 
ENDBRANCH  10  17
TORSDOF 1
ENDMDL
MODEL 4
REMARK VINA RESULT:      -7.8      3.658      6.163
REMARK  Name = 2451
REMARK  1 active torsions:
REMARK  status: ('A' for Active; 'I' for Inactive)
REMARK    1  A    between atoms: C_10  and  C_17
REMARK                            x       y       z     vdW  Elec       q    Type
REMARK                         _______ _______ _______ _____ _____    ______ ____
ROOT
ATOM      1 BR   UNL     1      36.946 -21.383 -17.986  0.00  0.00    -0.042 Br
ATOM      2  S   UNL     1      37.560 -23.517 -15.710  0.00  0.00    -0.063 S 
ATOM      3  N   UNL     1      36.737 -24.806 -13.530  0.00  0.00    -0.273 N 
ATOM      4  N   UNL     1      33.836 -24.033 -12.821  0.00  0.00    -0.262 NA
ATOM      5  N   UNL     1      36.625 -25.863 -11.596  0.00  0.00    -0.131 NA
ATOM      6  N   UNL     1      37.721 -26.333 -12.279  0.00  0.00    -0.133 NA
ATOM      7  C   UNL     1      36.385 -23.948 -14.565  0.00  0.00    +0.098 C 
ATOM      8  C   UNL     1      35.141 -23.385 -14.787  0.00  0.00    +0.041 C 
ATOM      9  C   UNL     1      36.063 -24.930 -12.333  0.00  0.00    +0.172 A 
ATOM     10  C   UNL     1      33.906 -23.720 -14.067  0.00  0.00    +0.079 C 
ATOM     11  C   UNL     1      34.984 -23.997 -11.931  0.00  0.00    +0.191 C 
ATOM     12  C   UNL     1      37.794 -25.672 -13.411  0.00  0.00    +0.148 A 
ATOM     13  C   UNL     1      35.232 -22.475 -15.903  0.00  0.00    +0.017 C 
ATOM     14  C   UNL     1      36.480 -22.447 -16.485  0.00  0.00    +0.065 C 
ATOM     15  C   UNL     1      38.832 -25.936 -14.429  0.00  0.00    +0.074 C 
ENDROOT
BRANCH  10  17
ATOM     16 CL   UNL     1      31.566 -25.433 -13.003  0.00  0.00    -0.082 Cl
ATOM     17  C   UNL     1      32.636 -23.722 -14.841  0.00  0.00    +0.028 C 
ATOM     18  C   UNL     1      31.530 -24.465 -14.434  0.00  0.00    +0.059 C 
ATOM     19  C   UNL     1      32.577 -22.952 -16.000  0.00  0.00    +0.002 C 
ATOM     20  C   UNL     1      30.358 -24.436 -15.190  0.00  0.00    +0.011 C 
ATOM     21  C   UNL     1      31.406 -22.923 -16.756  0.00  0.00    +0.000 C 
ATOM     22  C   UNL     1      30.296 -23.665 -16.351  0.00  0.00    +0.001 C 
ENDBRANCH  10  17
TORSDOF 1
ENDMDL
MODEL 5
REMARK VINA RESULT:      -7.1     12.064     14.400
REMARK  Name = 2451
REMARK  1 active torsions:
REMARK  status: ('A' for Active; 'I' for Inactive)
REMARK    1  A    between atoms: C_10  and  C_17
REMARK                            x       y       z     vdW  Elec       q    Type
REMARK                         _______ _______ _______ _____ _____    ______ ____
ROOT
ATOM      1 BR   UNL     1      35.620 -11.165 -27.284  0.00  0.00    -0.042 Br
ATOM      2  S   UNL     1      34.444  -9.573 -24.795  0.00  0.00    -0.063 S 
ATOM      3  N   UNL     1      32.928  -9.589 -22.607  0.00  0.00    -0.273 N 
ATOM      4  N   UNL     1      31.792 -12.407 -22.072  0.00  0.00    -0.262 NA
ATOM      5  N   UNL     1      31.584  -9.043 -20.943  0.00  0.00    -0.131 NA
ATOM      6  N   UNL     1      32.463  -8.007 -21.142  0.00  0.00    -0.133 NA
ATOM      7  C   UNL     1      33.503 -10.349 -23.618  0.00  0.00    +0.098 C 
ATOM      8  C   UNL     1      33.402 -11.719 -23.782  0.00  0.00    +0.041 C 
ATOM      9  C   UNL     1      31.845  -9.968 -21.841  0.00  0.00    +0.172 A 
ATOM     10  C   UNL     1      32.807 -12.658 -22.823  0.00  0.00    +0.079 C 
ATOM     11  C   UNL     1      31.035 -11.169 -22.154  0.00  0.00    +0.191 C 
ATOM     12  C   UNL     1      33.234  -8.330 -22.155  0.00  0.00    +0.148 A 
ATOM     13  C   UNL     1      34.058 -12.093 -25.012  0.00  0.00    +0.017 C 
ATOM     14  C   UNL     1      34.653 -11.031 -25.657  0.00  0.00    +0.065 C 
ATOM     15  C   UNL     1      34.332  -7.467 -22.636  0.00  0.00    +0.074 C 
ENDROOT
BRANCH  10  17
ATOM     16 CL   UNL     1      32.604 -14.082 -20.089  0.00  0.00    -0.082 Cl
ATOM     17  C   UNL     1      33.437 -13.998 -22.687  0.00  0.00    +0.028 C 
ATOM     18  C   UNL     1      33.393 -14.712 -21.491  0.00  0.00    +0.059 C 
ATOM     19  C   UNL     1      34.081 -14.532 -23.800  0.00  0.00    +0.002 C 
ATOM     20  C   UNL     1      33.997 -15.967 -21.410  0.00  0.00    +0.011 C 
ATOM     21  C   UNL     1      34.684 -15.786 -23.719  0.00  0.00    +0.000 C 
ATOM     22  C   UNL     1      34.642 -16.504 -22.524  0.00  0.00    +0.001 C 
ENDBRANCH  10  17
TORSDOF 1
ENDMDL
MODEL 6
REMARK VINA RESULT:      -6.8     11.055     14.171
REMARK  Name = 2451
REMARK  1 active torsions:
REMARK  status: ('A' for Active; 'I' for Inactive)
REMARK    1  A    between atoms: C_10  and  C_17
REMARK                            x       y       z     vdW  Elec       q    Type
REMARK                         _______ _______ _______ _____ _____    ______ ____
ROOT
ATOM      1 BR   UNL     1      31.934 -12.735 -19.656  0.00  0.00    -0.042 Br
ATOM      2  S   UNL     1      33.125 -14.971 -21.579  0.00  0.00    -0.063 S 
ATOM      3  N   UNL     1      33.856 -15.692 -24.036  0.00  0.00    -0.273 N 
ATOM      4  N   UNL     1      33.529 -13.350 -26.016  0.00  0.00    -0.262 NA
ATOM      5  N   UNL     1      34.294 -16.818 -25.883  0.00  0.00    -0.131 NA
ATOM      6  N   UNL     1      34.705 -17.574 -24.812  0.00  0.00    -0.133 NA
ATOM      7  C   UNL     1      33.433 -14.653 -23.216  0.00  0.00    +0.098 C 
ATOM      8  C   UNL     1      33.233 -13.335 -23.587  0.00  0.00    +0.041 C 
ATOM      9  C   UNL     1      33.758 -15.713 -25.411  0.00  0.00    +0.172 A 
ATOM     10  C   UNL     1      33.590 -12.743 -24.882  0.00  0.00    +0.079 C 
ATOM     11  C   UNL     1      32.995 -14.692 -26.167  0.00  0.00    +0.191 C 
ATOM     12  C   UNL     1      34.408 -16.908 -23.720  0.00  0.00    +0.148 A 
ATOM     13  C   UNL     1      32.694 -12.609 -22.462  0.00  0.00    +0.017 C 
ATOM     14  C   UNL     1      32.580 -13.374 -21.323  0.00  0.00    +0.065 C 
ATOM     15  C   UNL     1      34.738 -17.398 -22.366  0.00  0.00    +0.074 C 
ENDROOT
BRANCH  10  17
ATOM     16 CL   UNL     1      35.340 -11.834 -27.260  0.00  0.00    -0.082 Cl
ATOM     17  C   UNL     1      34.085 -11.341 -24.887  0.00  0.00    +0.028 C 
ATOM     18  C   UNL     1      34.879 -10.847 -25.920  0.00  0.00    +0.059 C 
ATOM     19  C   UNL     1      33.730 -10.521 -23.819  0.00  0.00    +0.002 C 
ATOM     20  C   UNL     1      35.319  -9.523 -25.884  0.00  0.00    +0.011 C 
ATOM     21  C   UNL     1      34.170  -9.198 -23.784  0.00  0.00    +0.000 C 
ATOM     22  C   UNL     1      34.964  -8.699 -24.815  0.00  0.00    +0.001 C 
ENDBRANCH  10  17
TORSDOF 1
ENDMDL
MODEL 7
REMARK VINA RESULT:      -6.8     11.988     14.870
REMARK  Name = 2451
REMARK  1 active torsions:
REMARK  status: ('A' for Active; 'I' for Inactive)
REMARK    1  A    between atoms: C_10  and  C_17
REMARK                            x       y       z     vdW  Elec       q    Type
REMARK                         _______ _______ _______ _____ _____    ______ ____
ROOT
ATOM      1 BR   UNL     1      30.528 -10.837 -19.138  0.00  0.00    -0.042 Br
ATOM      2  S   UNL     1      32.312 -13.108 -20.470  0.00  0.00    -0.063 S 
ATOM      3  N   UNL     1      33.628 -13.993 -22.608  0.00  0.00    -0.273 N 
ATOM      4  N   UNL     1      33.530 -11.927 -24.897  0.00  0.00    -0.262 NA
ATOM      5  N   UNL     1      34.562 -15.249 -24.165  0.00  0.00    -0.131 NA
ATOM      6  N   UNL     1      34.796 -15.834 -22.945  0.00  0.00    -0.133 NA
ATOM      7  C   UNL     1      32.942 -12.930 -22.034  0.00  0.00    +0.098 C 
ATOM      8  C   UNL     1      32.707 -11.692 -22.604  0.00  0.00    +0.041 C 
ATOM      9  C   UNL     1      33.837 -14.171 -23.960  0.00  0.00    +0.172 A 
ATOM     10  C   UNL     1      33.284 -11.202 -23.863  0.00  0.00    +0.079 C 
ATOM     11  C   UNL     1      33.167 -13.332 -24.982  0.00  0.00    +0.191 C 
ATOM     12  C   UNL     1      34.207 -15.096 -22.032  0.00  0.00    +0.148 A 
ATOM     13  C   UNL     1      31.871 -10.919 -21.718  0.00  0.00    +0.017 C 
ATOM     14  C   UNL     1      31.580 -11.568 -20.539  0.00  0.00    +0.065 C 
ATOM     15  C   UNL     1      34.275 -15.398 -20.587  0.00  0.00    +0.074 C 
ENDROOT
BRANCH  10  17
ATOM     16 CL   UNL     1      35.714 -10.403 -25.595  0.00  0.00    -0.082 Cl
ATOM     17  C   UNL     1      33.637  -9.760 -23.944  0.00  0.00    +0.028 C 
ATOM     18  C   UNL     1      34.716  -9.311 -24.703  0.00  0.00    +0.059 C 
ATOM     19  C   UNL     1      32.851  -8.855 -23.236  0.00  0.00    +0.002 C 
ATOM     20  C   UNL     1      35.009  -7.947 -24.752  0.00  0.00    +0.011 C 
ATOM     21  C   UNL     1      33.145  -7.493 -23.285  0.00  0.00    +0.000 C 
ATOM     22  C   UNL     1      34.223  -7.039 -24.043  0.00  0.00    +0.001 C 
ENDBRANCH  10  17
TORSDOF 1
ENDMDL
MODEL 8
REMARK VINA RESULT:      -6.6      2.397      5.604
REMARK  Name = 2451
REMARK  1 active torsions:
REMARK  status: ('A' for Active; 'I' for Inactive)
REMARK    1  A    between atoms: C_10  and  C_17
REMARK                            x       y       z     vdW  Elec       q    Type
REMARK                         _______ _______ _______ _____ _____    ______ ____
ROOT
ATOM      1 BR   UNL     1      30.644 -23.493 -13.775  0.00  0.00    -0.042 Br
ATOM      2  S   UNL     1      33.509 -23.959 -12.477  0.00  0.00    -0.063 S 
ATOM      3  N   UNL     1      36.095 -24.491 -12.823  0.00  0.00    -0.273 N 
ATOM      4  N   UNL     1      36.788 -24.687 -15.823  0.00  0.00    -0.262 NA
ATOM      5  N   UNL     1      38.176 -25.190 -12.589  0.00  0.00    -0.131 NA
ATOM      6  N   UNL     1      37.748 -24.704 -11.378  0.00  0.00    -0.133 NA
ATOM      7  C   UNL     1      34.886 -24.189 -13.439  0.00  0.00    +0.098 C 
ATOM      8  C   UNL     1      34.664 -24.039 -14.796  0.00  0.00    +0.041 C 
ATOM      9  C   UNL     1      37.175 -25.091 -13.437  0.00  0.00    +0.172 A 
ATOM     10  C   UNL     1      35.698 -24.004 -15.838  0.00  0.00    +0.079 C 
ATOM     11  C   UNL     1      37.090 -25.672 -14.798  0.00  0.00    +0.191 C 
ATOM     12  C   UNL     1      36.500 -24.323 -11.523  0.00  0.00    +0.148 A 
ATOM     13  C   UNL     1      33.253 -23.832 -15.019  0.00  0.00    +0.017 C 
ATOM     14  C   UNL     1      32.519 -23.776 -13.854  0.00  0.00    +0.065 C 
ATOM     15  C   UNL     1      35.715 -23.708 -10.432  0.00  0.00    +0.074 C 
ENDROOT
BRANCH  10  17
ATOM     16 CL   UNL     1      37.912 -21.950 -16.486  0.00  0.00    -0.082 Cl
ATOM     17  C   UNL     1      35.484 -23.090 -16.991  0.00  0.00    +0.028 C 
ATOM     18  C   UNL     1      36.430 -22.135 -17.355  0.00  0.00    +0.059 C 
ATOM     19  C   UNL     1      34.298 -23.214 -17.711  0.00  0.00    +0.002 C 
ATOM     20  C   UNL     1      36.189 -21.299 -18.446  0.00  0.00    +0.011 C 
ATOM     21  C   UNL     1      34.057 -22.379 -18.801  0.00  0.00    +0.000 C 
ATOM     22  C   UNL     1      35.002 -21.422 -19.169  0.00  0.00    +0.001 C 
ENDBRANCH  10  17
TORSDOF 1
ENDMDL
MODEL 9
REMARK VINA RESULT:      -6.6     13.750     15.900
REMARK  Name = 2451
REMARK  1 active torsions:
REMARK  status: ('A' for Active; 'I' for Inactive)
REMARK    1  A    between atoms: C_10  and  C_17
REMARK                            x       y       z     vdW  Elec       q    Type
REMARK                         _______ _______ _______ _____ _____    ______ ____
ROOT
ATOM      1 BR   UNL     1      30.417 -11.388 -20.375  0.00  0.00    -0.042 Br
ATOM      2  S   UNL     1      31.577  -8.988 -22.110  0.00  0.00    -0.063 S 
ATOM      3  N   UNL     1      33.321  -8.151 -23.939  0.00  0.00    -0.273 N 
ATOM      4  N   UNL     1      34.999 -10.502 -25.022  0.00  0.00    -0.262 NA
ATOM      5  N   UNL     1      34.735  -6.960 -25.146  0.00  0.00    -0.131 NA
ATOM      6  N   UNL     1      33.667  -6.160 -24.822  0.00  0.00    -0.133 NA
ATOM      7  C   UNL     1      32.776  -9.247 -23.281  0.00  0.00    +0.098 C 
ATOM      8  C   UNL     1      33.099 -10.577 -23.480  0.00  0.00    +0.041 C 
ATOM      9  C   UNL     1      34.538  -8.135 -24.588  0.00  0.00    +0.172 A 
ATOM     10  C   UNL     1      33.963 -11.101 -24.546  0.00  0.00    +0.079 C 
ATOM     11  C   UNL     1      35.507  -9.253 -24.483  0.00  0.00    +0.191 C 
ATOM     12  C   UNL     1      32.851  -6.869 -24.077  0.00  0.00    +0.148 A 
ATOM     13  C   UNL     1      32.379 -11.382 -22.523  0.00  0.00    +0.017 C 
ATOM     14  C   UNL     1      31.532 -10.650 -21.723  0.00  0.00    +0.065 C 
ATOM     15  C   UNL     1      31.567  -6.345 -23.568  0.00  0.00    +0.074 C 
ENDROOT
BRANCH  10  17
ATOM     16 CL   UNL     1      34.309 -13.625 -22.799  0.00  0.00    -0.082 Cl
ATOM     17  C   UNL     1      33.604 -12.415 -25.142  0.00  0.00    +0.028 C 
ATOM     18  C   UNL     1      33.727 -13.603 -24.425  0.00  0.00    +0.059 C 
ATOM     19  C   UNL     1      33.132 -12.430 -26.452  0.00  0.00    +0.002 C 
ATOM     20  C   UNL     1      33.375 -14.813 -25.024  0.00  0.00    +0.011 C 
ATOM     21  C   UNL     1      32.780 -13.639 -27.050  0.00  0.00    +0.000 C 
ATOM     22  C   UNL     1      32.902 -14.831 -26.336  0.00  0.00    +0.001 C 
ENDBRANCH  10  17
TORSDOF 1
ENDMDL
