MODEL 1
REMARK VINA RESULT:      -9.9      0.000      0.000
REMARK  Name = 133866
REMARK  8 active torsions:
REMARK  status: ('A' for Active; 'I' for Inactive)
REMARK    1  A    between atoms: N_1  and  C_22
REMARK    2  A    between atoms: C_2  and  C_19
REMARK    3  A    between atoms: C_3  and  N_9
REMARK    4  A    between atoms: N_9  and  C_11
REMARK    5  A    between atoms: C_10  and  C_17
REMARK    6  A    between atoms: C_19  and  C_20
REMARK    7  A    between atoms: C_22  and  C_23
REMARK    8  A    between atoms: C_23  and  C_24
REMARK                            x       y       z     vdW  Elec       q    Type
REMARK                         _______ _______ _______ _____ _____    ______ ____
ROOT
ATOM      1  N   UNL     1      34.616 -16.454 -21.715  0.00  0.00    +0.387 N 
ATOM      2  C   UNL     1      33.962 -14.076 -22.092  0.00  0.00    +0.002 C 
ATOM      3  C   UNL     1      34.451 -14.182 -23.551  0.00  0.00    +0.076 C 
ATOM      4  C   UNL     1      34.741 -15.076 -21.216  0.00  0.00    -0.075 C 
ATOM      5  C   UNL     1      34.406 -15.629 -24.046  0.00  0.00    -0.003 C 
ATOM      6  C   UNL     1      35.136 -16.569 -23.085  0.00  0.00    -0.076 C 
ATOM      7  H   UNL     1      33.625 -16.694 -21.732  0.00  0.00    -0.080 HD
ENDROOT
BRANCH   3   9
ATOM      8  O   UNL     1      32.450 -14.863 -25.674  0.00  0.00    -0.275 OA
ATOM      9  N   UNL     1      33.734 -13.300 -24.438  0.00  0.00    -0.260 N 
ATOM     10  C   UNL     1      33.003 -13.765 -25.572  0.00  0.00    +0.229 C 
BRANCH   9  11
ATOM     11  C   UNL     1      33.754 -11.865 -24.163  0.00  0.00    +0.054 C 
ATOM     12  C   UNL     1      32.721 -11.280 -23.433  0.00  0.00    +0.015 C 
ATOM     13  C   UNL     1      34.809 -11.081 -24.631  0.00  0.00    +0.015 C 
ATOM     14  C   UNL     1      32.742  -9.910 -23.170  0.00  0.00    +0.001 C 
ATOM     15  C   UNL     1      34.829  -9.711 -24.369  0.00  0.00    +0.001 C 
ATOM     16  C   UNL     1      33.796  -9.126 -23.638  0.00  0.00    +0.000 C 
ENDBRANCH   9  11
BRANCH  10  17
ATOM     17  C   UNL     1      32.967 -12.801 -26.755  0.00  0.00    +0.086 C 
ATOM     18  C   UNL     1      34.157 -12.967 -27.687  0.00  0.00    +0.010 C 
ENDBRANCH  10  17
ENDBRANCH   3   9
BRANCH   2  19
ATOM     19  C   UNL     1      32.447 -14.284 -21.942  0.00  0.00    +0.026 C 
BRANCH  19  20
ATOM     20  C   UNL     1      31.957 -13.752 -20.633  0.00  0.00    -0.026 C 
ATOM     21  C   UNL     1      31.911 -12.450 -20.328  0.00  0.00    -0.005 C 
ENDBRANCH  19  20
ENDBRANCH   2  19
BRANCH   1  22
ATOM     22  C   UNL     1      35.308 -17.386 -20.825  0.00  0.00    -0.073 C 
BRANCH  22  23
ATOM     23  C   UNL     1      35.550 -18.728 -21.519  0.00  0.00    +0.004 C 
BRANCH  23  24
ATOM     24  C   UNL     1      34.988 -19.874 -20.718  0.00  0.00    -0.024 C 
ATOM     25  C   UNL     1      35.846 -20.789 -20.110  0.00  0.00    -0.004 C 
ATOM     26  C   UNL     1      33.606 -20.020 -20.584  0.00  0.00    -0.004 C 
ATOM     27  C   UNL     1      35.326 -21.849 -19.369  0.00  0.00    -0.000 C 
ATOM     28  C   UNL     1      33.086 -21.080 -19.843  0.00  0.00    -0.000 C 
ATOM     29  C   UNL     1      33.946 -21.995 -19.235  0.00  0.00    -0.000 C 
ENDBRANCH  23  24
ENDBRANCH  22  23
ENDBRANCH   1  22
TORSDOF 8
ENDMDL
MODEL 2
REMARK VINA RESULT:      -9.2      1.940      8.246
REMARK  Name = 133866
REMARK  8 active torsions:
REMARK  status: ('A' for Active; 'I' for Inactive)
REMARK    1  A    between atoms: N_1  and  C_22
REMARK    2  A    between atoms: C_2  and  C_19
REMARK    3  A    between atoms: C_3  and  N_9
REMARK    4  A    between atoms: N_9  and  C_11
REMARK    5  A    between atoms: C_10  and  C_17
REMARK    6  A    between atoms: C_19  and  C_20
REMARK    7  A    between atoms: C_22  and  C_23
REMARK    8  A    between atoms: C_23  and  C_24
REMARK                            x       y       z     vdW  Elec       q    Type
REMARK                         _______ _______ _______ _____ _____    ______ ____
ROOT
ATOM      1  N   UNL     1      32.428 -13.871 -21.202  0.00  0.00    +0.387 N 
ATOM      2  C   UNL     1      34.209 -14.970 -22.561  0.00  0.00    +0.002 C 
ATOM      3  C   UNL     1      34.300 -16.098 -21.513  0.00  0.00    +0.076 C 
ATOM      4  C   UNL     1      33.719 -13.678 -21.881  0.00  0.00    -0.075 C 
ATOM      5  C   UNL     1      32.987 -16.245 -20.741  0.00  0.00    -0.003 C 
ATOM      6  C   UNL     1      32.529 -14.905 -20.162  0.00  0.00    -0.076 C 
ATOM      7  H   UNL     1      31.751 -14.187 -21.896  0.00  0.00    -0.080 HD
ENDROOT
BRANCH   3   9
ATOM      8  O   UNL     1      36.106 -16.597 -23.850  0.00  0.00    -0.275 OA
ATOM      9  N   UNL     1      34.714 -17.354 -22.088  0.00  0.00    -0.260 N 
ATOM     10  C   UNL     1      35.369 -17.451 -23.352  0.00  0.00    +0.229 C 
BRANCH   9  11
ATOM     11  C   UNL     1      34.452 -18.583 -21.343  0.00  0.00    +0.054 C 
ATOM     12  C   UNL     1      33.141 -19.007 -21.134  0.00  0.00    +0.015 C 
ATOM     13  C   UNL     1      35.516 -19.333 -20.840  0.00  0.00    +0.015 C 
ATOM     14  C   UNL     1      32.892 -20.180 -20.422  0.00  0.00    +0.001 C 
ATOM     15  C   UNL     1      35.267 -20.507 -20.128  0.00  0.00    +0.001 C 
ATOM     16  C   UNL     1      33.954 -20.931 -19.920  0.00  0.00    +0.000 C 
ENDBRANCH   9  11
BRANCH  10  17
ATOM     17  C   UNL     1      35.067 -18.724 -24.138  0.00  0.00    +0.086 C 
ATOM     18  C   UNL     1      33.974 -18.529 -25.178  0.00  0.00    +0.010 C 
ENDBRANCH  10  17
ENDBRANCH   3   9
BRANCH   2  19
ATOM     19  C   UNL     1      33.318 -15.327 -23.761  0.00  0.00    +0.026 C 
BRANCH  19  20
ATOM     20  C   UNL     1      33.213 -14.180 -24.715  0.00  0.00    -0.026 C 
ATOM     21  C   UNL     1      33.008 -14.320 -26.029  0.00  0.00    -0.005 C 
ENDBRANCH  19  20
ENDBRANCH   2  19
BRANCH   1  22
ATOM     22  C   UNL     1      31.958 -12.611 -20.626  0.00  0.00    -0.073 C 
BRANCH  22  23
ATOM     23  C   UNL     1      31.391 -11.693 -21.709  0.00  0.00    +0.004 C 
BRANCH  23  24
ATOM     24  C   UNL     1      31.848 -10.269 -21.521  0.00  0.00    -0.024 C 
ATOM     25  C   UNL     1      31.836  -9.694 -20.251  0.00  0.00    -0.004 C 
ATOM     26  C   UNL     1      32.283  -9.525 -22.618  0.00  0.00    -0.004 C 
ATOM     27  C   UNL     1      32.258  -8.376 -20.076  0.00  0.00    -0.000 C 
ATOM     28  C   UNL     1      32.705  -8.207 -22.444  0.00  0.00    -0.000 C 
ATOM     29  C   UNL     1      32.693  -7.632 -21.172  0.00  0.00    -0.000 C 
ENDBRANCH  23  24
ENDBRANCH  22  23
ENDBRANCH   1  22
TORSDOF 8
ENDMDL
MODEL 3
REMARK VINA RESULT:      -8.8      3.475      6.325
REMARK  Name = 133866
REMARK  8 active torsions:
REMARK  status: ('A' for Active; 'I' for Inactive)
REMARK    1  A    between atoms: N_1  and  C_22
REMARK    2  A    between atoms: C_2  and  C_19
REMARK    3  A    between atoms: C_3  and  N_9
REMARK    4  A    between atoms: N_9  and  C_11
REMARK    5  A    between atoms: C_10  and  C_17
REMARK    6  A    between atoms: C_19  and  C_20
REMARK    7  A    between atoms: C_22  and  C_23
REMARK    8  A    between atoms: C_23  and  C_24
REMARK                            x       y       z     vdW  Elec       q    Type
REMARK                         _______ _______ _______ _____ _____    ______ ____
ROOT
ATOM      1  N   UNL     1      32.745 -11.969 -23.059  0.00  0.00    +0.387 N 
ATOM      2  C   UNL     1      33.055  -9.755 -24.169  0.00  0.00    +0.002 C 
ATOM      3  C   UNL     1      32.136  -9.108 -23.112  0.00  0.00    +0.076 C 
ATOM      4  C   UNL     1      32.677 -11.240 -24.335  0.00  0.00    -0.075 C 
ATOM      5  C   UNL     1      32.135  -9.913 -21.811  0.00  0.00    -0.003 C 
ATOM      6  C   UNL     1      31.826 -11.389 -22.070  0.00  0.00    -0.076 C 
ATOM      7  H   UNL     1      33.695 -11.882 -22.698  0.00  0.00    -0.080 HD
ENDROOT
BRANCH   3   9
ATOM      8  O   UNL     1      32.790  -7.744 -20.526  0.00  0.00    -0.275 OA
ATOM      9  N   UNL     1      32.461  -7.724 -22.873  0.00  0.00    -0.260 N 
ATOM     10  C   UNL     1      32.502  -7.149 -21.568  0.00  0.00    +0.229 C 
BRANCH   9  11
ATOM     11  C   UNL     1      32.765  -6.870 -24.020  0.00  0.00    +0.054 C 
ATOM     12  C   UNL     1      31.737  -6.202 -24.683  0.00  0.00    +0.015 C 
ATOM     13  C   UNL     1      34.084  -6.723 -24.450  0.00  0.00    +0.015 C 
ATOM     14  C   UNL     1      32.027  -5.387 -25.777  0.00  0.00    +0.001 C 
ATOM     15  C   UNL     1      34.374  -5.908 -25.544  0.00  0.00    +0.001 C 
ATOM     16  C   UNL     1      33.345  -5.239 -26.207  0.00  0.00    +0.000 C 
ENDBRANCH   9  11
BRANCH  10  17
ATOM     17  C   UNL     1      32.105  -5.677 -21.498  0.00  0.00    +0.086 C 
ATOM     18  C   UNL     1      30.600  -5.475 -21.419  0.00  0.00    +0.010 C 
ENDBRANCH  10  17
ENDBRANCH   3   9
BRANCH   2  19
ATOM     19  C   UNL     1      34.550  -9.606 -23.847  0.00  0.00    +0.026 C 
BRANCH  19  20
ATOM     20  C   UNL     1      35.388 -10.400 -24.798  0.00  0.00    -0.026 C 
ATOM     21  C   UNL     1      35.674 -10.008 -26.045  0.00  0.00    -0.005 C 
ENDBRANCH  19  20
ENDBRANCH   2  19
BRANCH   1  22
ATOM     22  C   UNL     1      32.449 -13.387 -23.263  0.00  0.00    -0.073 C 
BRANCH  22  23
ATOM     23  C   UNL     1      33.096 -13.902 -24.549  0.00  0.00    +0.004 C 
BRANCH  23  24
ATOM     24  C   UNL     1      33.814 -15.207 -24.322  0.00  0.00    -0.024 C 
ATOM     25  C   UNL     1      34.414 -15.469 -23.091  0.00  0.00    -0.004 C 
ATOM     26  C   UNL     1      33.879 -16.155 -25.344  0.00  0.00    -0.004 C 
ATOM     27  C   UNL     1      35.079 -16.677 -22.880  0.00  0.00    -0.000 C 
ATOM     28  C   UNL     1      34.544 -17.363 -25.134  0.00  0.00    -0.000 C 
ATOM     29  C   UNL     1      35.144 -17.624 -23.902  0.00  0.00    -0.000 C 
ENDBRANCH  23  24
ENDBRANCH  22  23
ENDBRANCH   1  22
TORSDOF 8
ENDMDL
MODEL 4
REMARK VINA RESULT:      -8.6      1.761      8.415
REMARK  Name = 133866
REMARK  8 active torsions:
REMARK  status: ('A' for Active; 'I' for Inactive)
REMARK    1  A    between atoms: N_1  and  C_22
REMARK    2  A    between atoms: C_2  and  C_19
REMARK    3  A    between atoms: C_3  and  N_9
REMARK    4  A    between atoms: N_9  and  C_11
REMARK    5  A    between atoms: C_10  and  C_17
REMARK    6  A    between atoms: C_19  and  C_20
REMARK    7  A    between atoms: C_22  and  C_23
REMARK    8  A    between atoms: C_23  and  C_24
REMARK                            x       y       z     vdW  Elec       q    Type
REMARK                         _______ _______ _______ _____ _____    ______ ____
ROOT
ATOM      1  N   UNL     1      32.796 -13.310 -22.931  0.00  0.00    +0.387 N 
ATOM      2  C   UNL     1      34.189 -14.833 -24.332  0.00  0.00    +0.002 C 
ATOM      3  C   UNL     1      34.407 -15.745 -23.107  0.00  0.00    +0.076 C 
ATOM      4  C   UNL     1      33.936 -13.390 -23.857  0.00  0.00    -0.075 C 
ATOM      5  C   UNL     1      33.266 -15.599 -22.097  0.00  0.00    -0.003 C 
ATOM      6  C   UNL     1      33.028 -14.132 -21.735  0.00  0.00    -0.076 C 
ATOM      7  H   UNL     1      31.974 -13.675 -23.411  0.00  0.00    -0.080 HD
ENDROOT
BRANCH   3   9
ATOM      8  O   UNL     1      35.076 -16.902 -25.788  0.00  0.00    -0.275 OA
ATOM      9  N   UNL     1      34.609 -17.124 -23.475  0.00  0.00    -0.260 N 
ATOM     10  C   UNL     1      34.670 -17.566 -24.830  0.00  0.00    +0.229 C 
BRANCH   9  11
ATOM     11  C   UNL     1      34.760 -18.116 -22.412  0.00  0.00    +0.054 C 
ATOM     12  C   UNL     1      36.020 -18.376 -21.874  0.00  0.00    +0.015 C 
ATOM     13  C   UNL     1      33.643 -18.802 -21.935  0.00  0.00    +0.015 C 
ATOM     14  C   UNL     1      36.163 -19.322 -20.859  0.00  0.00    +0.001 C 
ATOM     15  C   UNL     1      33.786 -19.747 -20.920  0.00  0.00    +0.001 C 
ATOM     16  C   UNL     1      35.046 -20.007 -20.381  0.00  0.00    +0.000 C 
ENDBRANCH   9  11
BRANCH  10  17
ATOM     17  C   UNL     1      34.137 -18.975 -25.074  0.00  0.00    +0.086 C 
ATOM     18  C   UNL     1      35.228 -20.034 -25.036  0.00  0.00    +0.010 C 
ENDBRANCH  10  17
ENDBRANCH   3   9
BRANCH   2  19
ATOM     19  C   UNL     1      33.055 -15.312 -25.251  0.00  0.00    +0.026 C 
BRANCH  19  20
ATOM     20  C   UNL     1      32.648 -14.238 -26.209  0.00  0.00    -0.026 C 
ATOM     21  C   UNL     1      33.397 -13.840 -27.244  0.00  0.00    -0.005 C 
ENDBRANCH  19  20
ENDBRANCH   2  19
BRANCH   1  22
ATOM     22  C   UNL     1      32.539 -11.920 -22.553  0.00  0.00    -0.073 C 
BRANCH  22  23
ATOM     23  C   UNL     1      33.119 -10.955 -23.588  0.00  0.00    +0.004 C 
BRANCH  23  24
ATOM     24  C   UNL     1      33.033  -9.525 -23.120  0.00  0.00    -0.024 C 
ATOM     25  C   UNL     1      33.911  -8.569 -23.630  0.00  0.00    -0.004 C 
ATOM     26  C   UNL     1      32.074  -9.156 -22.175  0.00  0.00    -0.004 C 
ATOM     27  C   UNL     1      33.832  -7.246 -23.197  0.00  0.00    -0.000 C 
ATOM     28  C   UNL     1      31.995  -7.833 -21.743  0.00  0.00    -0.000 C 
ATOM     29  C   UNL     1      32.873  -6.877 -22.254  0.00  0.00    -0.000 C 
ENDBRANCH  23  24
ENDBRANCH  22  23
ENDBRANCH   1  22
TORSDOF 8
ENDMDL
MODEL 5
REMARK VINA RESULT:      -8.5      3.056      5.427
REMARK  Name = 133866
REMARK  8 active torsions:
REMARK  status: ('A' for Active; 'I' for Inactive)
REMARK    1  A    between atoms: N_1  and  C_22
REMARK    2  A    between atoms: C_2  and  C_19
REMARK    3  A    between atoms: C_3  and  N_9
REMARK    4  A    between atoms: N_9  and  C_11
REMARK    5  A    between atoms: C_10  and  C_17
REMARK    6  A    between atoms: C_19  and  C_20
REMARK    7  A    between atoms: C_22  and  C_23
REMARK    8  A    between atoms: C_23  and  C_24
REMARK                            x       y       z     vdW  Elec       q    Type
REMARK                         _______ _______ _______ _____ _____    ______ ____
ROOT
ATOM      1  N   UNL     1      33.045 -12.495 -24.129  0.00  0.00    +0.387 N 
ATOM      2  C   UNL     1      32.688 -10.874 -22.266  0.00  0.00    +0.002 C 
ATOM      3  C   UNL     1      33.484  -9.811 -23.050  0.00  0.00    +0.076 C 
ATOM      4  C   UNL     1      33.165 -12.280 -22.679  0.00  0.00    -0.075 C 
ATOM      5  C   UNL     1      33.436 -10.082 -24.556  0.00  0.00    -0.003 C 
ATOM      6  C   UNL     1      33.851 -11.519 -24.876  0.00  0.00    -0.076 C 
ATOM      7  H   UNL     1      32.068 -12.362 -24.387  0.00  0.00    -0.080 HD
ENDROOT
BRANCH   3   9
ATOM      8  O   UNL     1      32.891  -8.582 -20.384  0.00  0.00    -0.275 OA
ATOM      9  N   UNL     1      33.060  -8.468 -22.744  0.00  0.00    -0.260 N 
ATOM     10  C   UNL     1      32.566  -8.081 -21.463  0.00  0.00    +0.229 C 
BRANCH   9  11
ATOM     11  C   UNL     1      33.141  -7.454 -23.795  0.00  0.00    +0.054 C 
ATOM     12  C   UNL     1      31.979  -6.843 -24.265  0.00  0.00    +0.015 C 
ATOM     13  C   UNL     1      34.381  -7.099 -24.326  0.00  0.00    +0.015 C 
ATOM     14  C   UNL     1      32.057  -5.876 -25.267  0.00  0.00    +0.001 C 
ATOM     15  C   UNL     1      34.458  -6.131 -25.328  0.00  0.00    +0.001 C 
ATOM     16  C   UNL     1      33.296  -5.520 -25.798  0.00  0.00    +0.000 C 
ENDBRANCH   9  11
BRANCH  10  17
ATOM     17  C   UNL     1      31.514  -6.976 -21.484  0.00  0.00    +0.086 C 
ATOM     18  C   UNL     1      32.024  -5.666 -20.904  0.00  0.00    +0.010 C 
ENDBRANCH  10  17
ENDBRANCH   3   9
BRANCH   2  19
ATOM     19  C   UNL     1      31.166 -10.743 -22.437  0.00  0.00    +0.026 C 
BRANCH  19  20
ATOM     20  C   UNL     1      30.445 -11.179 -21.202  0.00  0.00    -0.026 C 
ATOM     21  C   UNL     1      30.991 -11.177 -19.981  0.00  0.00    -0.005 C 
ENDBRANCH  19  20
ENDBRANCH   2  19
BRANCH   1  22
ATOM     22  C   UNL     1      33.440 -13.860 -24.479  0.00  0.00    -0.073 C 
BRANCH  22  23
ATOM     23  C   UNL     1      34.285 -14.487 -23.369  0.00  0.00    +0.004 C 
BRANCH  23  24
ATOM     24  C   UNL     1      34.544 -15.948 -23.630  0.00  0.00    -0.024 C 
ATOM     25  C   UNL     1      34.212 -16.507 -24.864  0.00  0.00    -0.004 C 
ATOM     26  C   UNL     1      35.116 -16.744 -22.637  0.00  0.00    -0.004 C 
ATOM     27  C   UNL     1      34.452 -17.859 -25.105  0.00  0.00    -0.000 C 
ATOM     28  C   UNL     1      35.356 -18.096 -22.878  0.00  0.00    -0.000 C 
ATOM     29  C   UNL     1      35.024 -18.654 -24.113  0.00  0.00    -0.000 C 
ENDBRANCH  23  24
ENDBRANCH  22  23
ENDBRANCH   1  22
TORSDOF 8
ENDMDL
MODEL 6
REMARK VINA RESULT:      -8.4      0.985      2.663
REMARK  Name = 133866
REMARK  8 active torsions:
REMARK  status: ('A' for Active; 'I' for Inactive)
REMARK    1  A    between atoms: N_1  and  C_22
REMARK    2  A    between atoms: C_2  and  C_19
REMARK    3  A    between atoms: C_3  and  N_9
REMARK    4  A    between atoms: N_9  and  C_11
REMARK    5  A    between atoms: C_10  and  C_17
REMARK    6  A    between atoms: C_19  and  C_20
REMARK    7  A    between atoms: C_22  and  C_23
REMARK    8  A    between atoms: C_23  and  C_24
REMARK                            x       y       z     vdW  Elec       q    Type
REMARK                         _______ _______ _______ _____ _____    ______ ____
ROOT
ATOM      1  N   UNL     1      34.982 -16.314 -21.666  0.00  0.00    +0.387 N 
ATOM      2  C   UNL     1      33.667 -15.774 -23.717  0.00  0.00    +0.002 C 
ATOM      3  C   UNL     1      33.326 -14.392 -23.123  0.00  0.00    +0.076 C 
ATOM      4  C   UNL     1      33.919 -16.775 -22.572  0.00  0.00    -0.075 C 
ATOM      5  C   UNL     1      34.385 -13.947 -22.111  0.00  0.00    -0.003 C 
ATOM      6  C   UNL     1      34.632 -15.024 -21.054  0.00  0.00    -0.076 C 
ATOM      7  H   UNL     1      35.830 -16.182 -22.216  0.00  0.00    -0.080 HD
ENDROOT
BRANCH   3   9
ATOM      8  O   UNL     1      32.294 -14.727 -25.915  0.00  0.00    -0.275 OA
ATOM      9  N   UNL     1      33.117 -13.391 -24.140  0.00  0.00    -0.260 N 
ATOM     10  C   UNL     1      32.864 -13.712 -25.506  0.00  0.00    +0.229 C 
BRANCH   9  11
ATOM     11  C   UNL     1      33.166 -11.982 -23.753  0.00  0.00    +0.054 C 
ATOM     12  C   UNL     1      34.174 -11.157 -24.250  0.00  0.00    +0.015 C 
ATOM     13  C   UNL     1      32.204 -11.464 -22.886  0.00  0.00    +0.015 C 
ATOM     14  C   UNL     1      34.219  -9.813 -23.881  0.00  0.00    +0.001 C 
ATOM     15  C   UNL     1      32.249 -10.120 -22.517  0.00  0.00    +0.001 C 
ATOM     16  C   UNL     1      33.257  -9.294 -23.015  0.00  0.00    +0.000 C 
ENDBRANCH   9  11
BRANCH  10  17
ATOM     17  C   UNL     1      33.402 -12.703 -26.517  0.00  0.00    +0.086 C 
ATOM     18  C   UNL     1      34.104 -13.364 -27.693  0.00  0.00    +0.010 C 
ENDBRANCH  10  17
ENDBRANCH   3   9
BRANCH   2  19
ATOM     19  C   UNL     1      34.858 -15.742 -24.686  0.00  0.00    +0.026 C 
BRANCH  19  20
ATOM     20  C   UNL     1      34.889 -16.967 -25.543  0.00  0.00    -0.026 C 
ATOM     21  C   UNL     1      34.486 -18.174 -25.132  0.00  0.00    -0.005 C 
ENDBRANCH  19  20
ENDBRANCH   2  19
BRANCH   1  22
ATOM     22  C   UNL     1      35.245 -17.315 -20.633  0.00  0.00    -0.073 C 
BRANCH  22  23
ATOM     23  C   UNL     1      35.739 -18.623 -21.251  0.00  0.00    +0.004 C 
BRANCH  23  24
ATOM     24  C   UNL     1      35.102 -19.821 -20.595  0.00  0.00    -0.024 C 
ATOM     25  C   UNL     1      33.714 -19.948 -20.569  0.00  0.00    -0.004 C 
ATOM     26  C   UNL     1      35.902 -20.805 -20.012  0.00  0.00    -0.004 C 
ATOM     27  C   UNL     1      33.125 -21.056 -19.961  0.00  0.00    -0.000 C 
ATOM     28  C   UNL     1      35.313 -21.914 -19.405  0.00  0.00    -0.000 C 
ATOM     29  C   UNL     1      33.924 -22.039 -19.379  0.00  0.00    -0.000 C 
ENDBRANCH  23  24
ENDBRANCH  22  23
ENDBRANCH   1  22
TORSDOF 8
ENDMDL
MODEL 7
REMARK VINA RESULT:      -8.3      2.920      5.591
REMARK  Name = 133866
REMARK  8 active torsions:
REMARK  status: ('A' for Active; 'I' for Inactive)
REMARK    1  A    between atoms: N_1  and  C_22
REMARK    2  A    between atoms: C_2  and  C_19
REMARK    3  A    between atoms: C_3  and  N_9
REMARK    4  A    between atoms: N_9  and  C_11
REMARK    5  A    between atoms: C_10  and  C_17
REMARK    6  A    between atoms: C_19  and  C_20
REMARK    7  A    between atoms: C_22  and  C_23
REMARK    8  A    between atoms: C_23  and  C_24
REMARK                            x       y       z     vdW  Elec       q    Type
REMARK                         _______ _______ _______ _____ _____    ______ ____
ROOT
ATOM      1  N   UNL     1      32.911 -13.195 -22.854  0.00  0.00    +0.387 N 
ATOM      2  C   UNL     1      32.647 -10.827 -23.596  0.00  0.00    +0.002 C 
ATOM      3  C   UNL     1      31.895 -10.510 -22.287  0.00  0.00    +0.076 C 
ATOM      4  C   UNL     1      32.461 -12.316 -23.946  0.00  0.00    -0.075 C 
ATOM      5  C   UNL     1      32.294 -11.479 -21.171  0.00  0.00    -0.003 C 
ATOM      6  C   UNL     1      32.154 -12.934 -21.621  0.00  0.00    -0.076 C 
ATOM      7  H   UNL     1      33.893 -12.992 -22.671  0.00  0.00    -0.080 HD
ENDROOT
BRANCH   3   9
ATOM      8  O   UNL     1      32.645  -9.426 -19.597  0.00  0.00    -0.275 OA
ATOM      9  N   UNL     1      32.059  -9.138 -21.875  0.00  0.00    -0.260 N 
ATOM     10  C   UNL     1      32.168  -8.745 -20.508  0.00  0.00    +0.229 C 
BRANCH   9  11
ATOM     11  C   UNL     1      32.119  -8.103 -22.905  0.00  0.00    +0.054 C 
ATOM     12  C   UNL     1      33.337  -7.505 -23.223  0.00  0.00    +0.015 C 
ATOM     13  C   UNL     1      30.956  -7.713 -23.569  0.00  0.00    +0.015 C 
ATOM     14  C   UNL     1      33.394  -6.518 -24.207  0.00  0.00    +0.001 C 
ATOM     15  C   UNL     1      31.012  -6.725 -24.552  0.00  0.00    +0.001 C 
ATOM     16  C   UNL     1      32.232  -6.128 -24.871  0.00  0.00    +0.000 C 
ENDBRANCH   9  11
BRANCH  10  17
ATOM     17  C   UNL     1      31.590  -7.370 -20.185  0.00  0.00    +0.086 C 
ATOM     18  C   UNL     1      32.663  -6.341 -19.862  0.00  0.00    +0.010 C 
ENDBRANCH  10  17
ENDBRANCH   3   9
BRANCH   2  19
ATOM     19  C   UNL     1      34.138 -10.460 -23.545  0.00  0.00    +0.026 C 
BRANCH  19  20
ATOM     20  C   UNL     1      34.828 -10.831 -24.819  0.00  0.00    -0.026 C 
ATOM     21  C   UNL     1      35.493  -9.960 -25.587  0.00  0.00    -0.005 C 
ENDBRANCH  19  20
ENDBRANCH   2  19
BRANCH   1  22
ATOM     22  C   UNL     1      32.787 -14.600 -23.243  0.00  0.00    -0.073 C 
BRANCH  22  23
ATOM     23  C   UNL     1      33.906 -15.003 -24.204  0.00  0.00    +0.004 C 
BRANCH  23  24
ATOM     24  C   UNL     1      34.312 -16.441 -24.008  0.00  0.00    -0.024 C 
ATOM     25  C   UNL     1      34.231 -17.340 -25.071  0.00  0.00    -0.004 C 
ATOM     26  C   UNL     1      34.769 -16.873 -22.763  0.00  0.00    -0.004 C 
ATOM     27  C   UNL     1      34.607 -18.671 -24.890  0.00  0.00    -0.000 C 
ATOM     28  C   UNL     1      35.145 -18.204 -22.582  0.00  0.00    -0.000 C 
ATOM     29  C   UNL     1      35.064 -19.103 -23.646  0.00  0.00    -0.000 C 
ENDBRANCH  23  24
ENDBRANCH  22  23
ENDBRANCH   1  22
TORSDOF 8
ENDMDL
MODEL 8
REMARK VINA RESULT:      -8.2      3.544      6.274
REMARK  Name = 133866
REMARK  8 active torsions:
REMARK  status: ('A' for Active; 'I' for Inactive)
REMARK    1  A    between atoms: N_1  and  C_22
REMARK    2  A    between atoms: C_2  and  C_19
REMARK    3  A    between atoms: C_3  and  N_9
REMARK    4  A    between atoms: N_9  and  C_11
REMARK    5  A    between atoms: C_10  and  C_17
REMARK    6  A    between atoms: C_19  and  C_20
REMARK    7  A    between atoms: C_22  and  C_23
REMARK    8  A    between atoms: C_23  and  C_24
REMARK                            x       y       z     vdW  Elec       q    Type
REMARK                         _______ _______ _______ _____ _____    ______ ____
ROOT
ATOM      1  N   UNL     1      34.309 -21.472 -19.156  0.00  0.00    +0.387 N 
ATOM      2  C   UNL     1      35.378 -20.399 -21.139  0.00  0.00    +0.002 C 
ATOM      3  C   UNL     1      34.007 -19.832 -21.559  0.00  0.00    +0.076 C 
ATOM      4  C   UNL     1      35.170 -21.693 -20.328  0.00  0.00    -0.075 C 
ATOM      5  C   UNL     1      33.075 -19.683 -20.354  0.00  0.00    -0.003 C 
ATOM      6  C   UNL     1      32.981 -20.987 -19.559  0.00  0.00    -0.076 C 
ATOM      7  H   UNL     1      34.744 -20.756 -18.576  0.00  0.00    -0.080 HD
ENDROOT
BRANCH   3   9
ATOM      8  O   UNL     1      34.232 -19.398 -24.514  0.00  0.00    -0.275 OA
ATOM      9  N   UNL     1      34.123 -18.593 -22.289  0.00  0.00    -0.260 N 
ATOM     10  C   UNL     1      34.478 -18.535 -23.669  0.00  0.00    +0.229 C 
BRANCH   9  11
ATOM     11  C   UNL     1      33.863 -17.340 -21.582  0.00  0.00    +0.054 C 
ATOM     12  C   UNL     1      32.553 -16.895 -21.411  0.00  0.00    +0.015 C 
ATOM     13  C   UNL     1      34.926 -16.590 -21.080  0.00  0.00    +0.015 C 
ATOM     14  C   UNL     1      32.306 -15.699 -20.736  0.00  0.00    +0.001 C 
ATOM     15  C   UNL     1      34.679 -15.395 -20.405  0.00  0.00    +0.001 C 
ATOM     16  C   UNL     1      33.368 -14.949 -20.233  0.00  0.00    +0.000 C 
ENDBRANCH   9  11
BRANCH  10  17
ATOM     17  C   UNL     1      35.270 -17.296 -24.079  0.00  0.00    +0.086 C 
ATOM     18  C   UNL     1      34.544 -16.448 -25.112  0.00  0.00    +0.010 C 
ENDBRANCH  10  17
ENDBRANCH   3   9
BRANCH   2  19
ATOM     19  C   UNL     1      36.236 -19.396 -20.354  0.00  0.00    +0.026 C 
BRANCH  19  20
ATOM     20  C   UNL     1      37.606 -19.281 -20.943  0.00  0.00    -0.026 C 
ATOM     21  C   UNL     1      37.869 -18.670 -22.104  0.00  0.00    -0.005 C 
ENDBRANCH  19  20
ENDBRANCH   2  19
BRANCH   1  22
ATOM     22  C   UNL     1      34.187 -22.701 -18.371  0.00  0.00    -0.073 C 
BRANCH  22  23
ATOM     23  C   UNL     1      32.804 -22.805 -17.727  0.00  0.00    +0.004 C 
BRANCH  23  24
ATOM     24  C   UNL     1      32.896 -23.235 -16.286  0.00  0.00    -0.024 C 
ATOM     25  C   UNL     1      31.756 -23.231 -15.482  0.00  0.00    -0.004 C 
ATOM     26  C   UNL     1      34.121 -23.638 -15.754  0.00  0.00    -0.004 C 
ATOM     27  C   UNL     1      31.840 -23.629 -14.148  0.00  0.00    -0.000 C 
ATOM     28  C   UNL     1      34.206 -24.036 -14.420  0.00  0.00    -0.000 C 
ATOM     29  C   UNL     1      33.065 -24.032 -13.617  0.00  0.00    -0.000 C 
ENDBRANCH  23  24
ENDBRANCH  22  23
ENDBRANCH   1  22
TORSDOF 8
ENDMDL
MODEL 9
REMARK VINA RESULT:      -7.7      1.706      3.428
REMARK  Name = 133866
REMARK  8 active torsions:
REMARK  status: ('A' for Active; 'I' for Inactive)
REMARK    1  A    between atoms: N_1  and  C_22
REMARK    2  A    between atoms: C_2  and  C_19
REMARK    3  A    between atoms: C_3  and  N_9
REMARK    4  A    between atoms: N_9  and  C_11
REMARK    5  A    between atoms: C_10  and  C_17
REMARK    6  A    between atoms: C_19  and  C_20
REMARK    7  A    between atoms: C_22  and  C_23
REMARK    8  A    between atoms: C_23  and  C_24
REMARK                            x       y       z     vdW  Elec       q    Type
REMARK                         _______ _______ _______ _____ _____    ______ ____
ROOT
ATOM      1  N   UNL     1      35.158 -16.867 -21.330  0.00  0.00    +0.387 N 
ATOM      2  C   UNL     1      33.557 -15.766 -22.895  0.00  0.00    +0.002 C 
ATOM      3  C   UNL     1      33.143 -14.792 -21.772  0.00  0.00    +0.076 C 
ATOM      4  C   UNL     1      34.050 -17.086 -22.272  0.00  0.00    -0.075 C 
ATOM      5  C   UNL     1      34.262 -14.630 -20.740  0.00  0.00    -0.003 C 
ATOM      6  C   UNL     1      34.747 -15.986 -20.227  0.00  0.00    -0.076 C 
ATOM      7  H   UNL     1      35.915 -16.408 -21.835  0.00  0.00    -0.080 HD
ENDROOT
BRANCH   3   9
ATOM      8  O   UNL     1      32.158 -12.398 -20.266  0.00  0.00    -0.275 OA
ATOM      9  N   UNL     1      32.709 -13.515 -22.281  0.00  0.00    -0.260 N 
ATOM     10  C   UNL     1      32.024 -12.552 -21.483  0.00  0.00    +0.229 C 
BRANCH   9  11
ATOM     11  C   UNL     1      32.983 -13.192 -23.680  0.00  0.00    +0.054 C 
ATOM     12  C   UNL     1      32.344 -13.899 -24.698  0.00  0.00    +0.015 C 
ATOM     13  C   UNL     1      33.885 -12.175 -23.996  0.00  0.00    +0.015 C 
ATOM     14  C   UNL     1      32.606 -13.590 -26.032  0.00  0.00    +0.001 C 
ATOM     15  C   UNL     1      34.146 -11.866 -25.331  0.00  0.00    +0.001 C 
ATOM     16  C   UNL     1      33.507 -12.573 -26.349  0.00  0.00    +0.000 C 
ENDBRANCH   9  11
BRANCH  10  17
ATOM     17  C   UNL     1      31.017 -11.688 -22.236  0.00  0.00    +0.086 C 
ATOM     18  C   UNL     1      31.366 -10.208 -22.200  0.00  0.00    +0.010 C 
ENDBRANCH  10  17
ENDBRANCH   3   9
BRANCH   2  19
ATOM     19  C   UNL     1      34.613 -15.182 -23.845  0.00  0.00    +0.026 C 
BRANCH  19  20
ATOM     20  C   UNL     1      35.094 -16.215 -24.816  0.00  0.00    -0.026 C 
ATOM     21  C   UNL     1      34.283 -16.935 -25.599  0.00  0.00    -0.005 C 
ENDBRANCH  19  20
ENDBRANCH   2  19
BRANCH   1  22
ATOM     22  C   UNL     1      35.648 -18.143 -20.809  0.00  0.00    -0.073 C 
BRANCH  22  23
ATOM     23  C   UNL     1      34.872 -19.315 -21.413  0.00  0.00    +0.004 C 
BRANCH  23  24
ATOM     24  C   UNL     1      34.632 -20.401 -20.396  0.00  0.00    -0.024 C 
ATOM     25  C   UNL     1      35.712 -21.040 -19.788  0.00  0.00    -0.004 C 
ATOM     26  C   UNL     1      33.328 -20.768 -20.062  0.00  0.00    -0.004 C 
ATOM     27  C   UNL     1      35.490 -22.045 -18.847  0.00  0.00    -0.000 C 
ATOM     28  C   UNL     1      33.105 -21.773 -19.121  0.00  0.00    -0.000 C 
ATOM     29  C   UNL     1      34.187 -22.412 -18.513  0.00  0.00    -0.000 C 
ENDBRANCH  23  24
ENDBRANCH  22  23
ENDBRANCH   1  22
TORSDOF 8
ENDMDL
