MODEL 1
REMARK VINA RESULT:     -10.1      0.000      0.000
REMARK  Name = 445952
REMARK  8 active torsions:
REMARK  status: ('A' for Active; 'I' for Inactive)
REMARK    1  A    between atoms: N_1  and  C_22
REMARK    2  A    between atoms: N_2  and  C_13
REMARK    3  A    between atoms: C_19  and  O_25
REMARK    4  A    between atoms: O_25  and  C_26
REMARK    5  A    between atoms: C_26  and  C_27
REMARK    6  A    between atoms: C_27  and  O_28
REMARK    7  A    between atoms: C_27  and  C_30
REMARK    8  A    between atoms: C_30  and  N_31
REMARK                            x       y       z     vdW  Elec       q    Type
REMARK                         _______ _______ _______ _____ _____    ______ ____
ROOT
ATOM      1  N   UNL     1      31.916 -22.758 -17.506  0.00  0.00    -0.247 N 
ATOM      2  N   UNL     1      34.649 -24.646 -14.142  0.00  0.00    -0.287 N 
ATOM      3  N   UNL     1      33.291 -23.688 -15.848  0.00  0.00    -0.322 NA
ATOM      4  N   UNL     1      30.893 -23.901 -15.731  0.00  0.00    -0.170 NA
ATOM      5  C   UNL     1      32.039 -23.483 -16.305  0.00  0.00    +0.150 C 
ATOM      6  C   UNL     1      33.371 -24.385 -14.695  0.00  0.00    +0.198 C 
ATOM      7  C   UNL     1      32.273 -24.866 -14.012  0.00  0.00    +0.070 C 
ATOM      8  C   UNL     1      31.047 -24.592 -14.582  0.00  0.00    +0.116 C 
ATOM      9  H   UNL     1      30.985 -22.633 -17.799  0.00  0.00    +0.165 HD
ATOM     10  H   UNL     1      34.621 -25.160 -13.303  0.00  0.00    +0.155 HD
ENDROOT
BRANCH   2  13
ATOM     11 CL   UNL     1      36.870 -26.538 -13.275  0.00  0.00    -0.081 Cl
ATOM     12 CL   UNL     1      37.645 -21.387 -16.706  0.00  0.00    -0.082 Cl
ATOM     13  C   UNL     1      35.948 -24.313 -14.559  0.00  0.00    +0.062 C 
ATOM     14  C   UNL     1      37.052 -25.106 -14.223  0.00  0.00    +0.071 C 
ATOM     15  C   UNL     1      36.140 -23.161 -15.329  0.00  0.00    +0.027 C 
ATOM     16  C   UNL     1      37.419 -22.806 -15.759  0.00  0.00    +0.059 C 
ATOM     17  C   UNL     1      38.330 -24.750 -14.652  0.00  0.00    +0.014 C 
ATOM     18  C   UNL     1      38.514 -23.600 -15.419  0.00  0.00    +0.012 C 
ENDBRANCH   2  13
BRANCH   1  22
ATOM     19  C   UNL     1      34.738 -21.022 -20.075  0.00  0.00    +0.139 C 
ATOM     20  C   UNL     1      35.120 -22.058 -19.230  0.00  0.00    +0.038 C 
ATOM     21  C   UNL     1      33.427 -20.557 -20.076  0.00  0.00    +0.038 C 
ATOM     22  C   UNL     1      32.866 -22.174 -18.371  0.00  0.00    +0.058 C 
ATOM     23  C   UNL     1      34.181 -22.636 -18.376  0.00  0.00    +0.018 C 
ATOM     24  C   UNL     1      32.488 -21.135 -19.222  0.00  0.00    +0.018 C 
BRANCH  19  25
ATOM     25  O   UNL     1      35.659 -20.456 -20.915  0.00  0.00    -0.473 OA
BRANCH  25  26
ATOM     26  C   UNL     1      35.675 -19.033 -20.982  0.00  0.00    +0.232 C 
BRANCH  26  27
ATOM     27  C   UNL     1      35.651 -18.608 -22.448  0.00  0.00    +0.133 C 
BRANCH  27  28
ATOM     28  O   UNL     1      36.963 -18.173 -22.818  0.00  0.00    -0.383 OA
ATOM     29  H   UNL     1      37.080 -18.277 -23.775  0.00  0.00    +0.210 HD
ENDBRANCH  27  28
BRANCH  27  30
ATOM     30  C   UNL     1      34.672 -17.466 -22.732  0.00  0.00    -0.044 C 
BRANCH  30  31
ATOM     31  N   UNL     1      35.149 -16.586 -23.790  0.00  0.00    +0.386 N 
ATOM     32  C   UNL     1      34.652 -15.223 -23.592  0.00  0.00    -0.101 C 
ATOM     33  C   UNL     1      34.741 -17.089 -25.103  0.00  0.00    -0.101 C 
ATOM     34  H   UNL     1      36.168 -16.569 -23.752  0.00  0.00    -0.080 HD
ENDBRANCH  30  31
ENDBRANCH  27  30
ENDBRANCH  26  27
ENDBRANCH  25  26
ENDBRANCH  19  25
ENDBRANCH   1  22
TORSDOF 8
ENDMDL
MODEL 2
REMARK VINA RESULT:      -9.6      6.294     12.319
REMARK  Name = 445952
REMARK  8 active torsions:
REMARK  status: ('A' for Active; 'I' for Inactive)
REMARK    1  A    between atoms: N_1  and  C_22
REMARK    2  A    between atoms: N_2  and  C_13
REMARK    3  A    between atoms: C_19  and  O_25
REMARK    4  A    between atoms: O_25  and  C_26
REMARK    5  A    between atoms: C_26  and  C_27
REMARK    6  A    between atoms: C_27  and  O_28
REMARK    7  A    between atoms: C_27  and  C_30
REMARK    8  A    between atoms: C_30  and  N_31
REMARK                            x       y       z     vdW  Elec       q    Type
REMARK                         _______ _______ _______ _____ _____    ______ ____
ROOT
ATOM      1  N   UNL     1      32.225 -13.324 -20.142  0.00  0.00    -0.247 N 
ATOM      2  N   UNL     1      32.790  -9.370 -22.671  0.00  0.00    -0.287 N 
ATOM      3  N   UNL     1      32.518 -11.374 -21.411  0.00  0.00    -0.322 NA
ATOM      4  N   UNL     1      31.248 -11.338 -19.363  0.00  0.00    -0.170 NA
ATOM      5  C   UNL     1      31.986 -11.947 -20.313  0.00  0.00    +0.150 C 
ATOM      6  C   UNL     1      32.269 -10.054 -21.545  0.00  0.00    +0.198 C 
ATOM      7  C   UNL     1      31.529  -9.318 -20.643  0.00  0.00    +0.070 C 
ATOM      8  C   UNL     1      31.039 -10.019 -19.560  0.00  0.00    +0.116 C 
ATOM      9  H   UNL     1      31.816 -13.698 -19.328  0.00  0.00    +0.165 HD
ATOM     10  H   UNL     1      32.565  -8.413 -22.693  0.00  0.00    +0.155 HD
ENDROOT
BRANCH   2  13
ATOM     11 CL   UNL     1      35.130  -7.582 -23.439  0.00  0.00    -0.081 Cl
ATOM     12 CL   UNL     1      33.557 -12.899 -26.296  0.00  0.00    -0.082 Cl
ATOM     13  C   UNL     1      33.567  -9.795 -23.762  0.00  0.00    +0.062 C 
ATOM     14  C   UNL     1      34.669  -9.057 -24.209  0.00  0.00    +0.071 C 
ATOM     15  C   UNL     1      33.228 -10.986 -24.414  0.00  0.00    +0.027 C 
ATOM     16  C   UNL     1      33.981 -11.433 -25.499  0.00  0.00    +0.059 C 
ATOM     17  C   UNL     1      35.421  -9.504 -25.295  0.00  0.00    +0.014 C 
ATOM     18  C   UNL     1      35.077 -10.692 -25.940  0.00  0.00    +0.012 C 
ENDBRANCH   2  13
BRANCH   1  22
ATOM     19  C   UNL     1      34.334 -16.144 -22.416  0.00  0.00    +0.139 C 
ATOM     20  C   UNL     1      34.581 -16.034 -21.051  0.00  0.00    +0.038 C 
ATOM     21  C   UNL     1      33.392 -15.327 -23.032  0.00  0.00    +0.038 C 
ATOM     22  C   UNL     1      32.934 -14.274 -20.907  0.00  0.00    +0.058 C 
ATOM     23  C   UNL     1      33.879 -15.097 -20.295  0.00  0.00    +0.018 C 
ATOM     24  C   UNL     1      32.691 -14.389 -22.275  0.00  0.00    +0.018 C 
BRANCH  19  25
ATOM     25  O   UNL     1      35.023 -17.066 -23.159  0.00  0.00    -0.473 OA
BRANCH  25  26
ATOM     26  C   UNL     1      35.870 -17.960 -22.444  0.00  0.00    +0.232 C 
BRANCH  26  27
ATOM     27  C   UNL     1      35.268 -19.362 -22.501  0.00  0.00    +0.133 C 
BRANCH  27  28
ATOM     28  O   UNL     1      34.836 -19.618 -23.841  0.00  0.00    -0.383 OA
ATOM     29  H   UNL     1      35.573 -19.988 -24.353  0.00  0.00    +0.210 HD
ENDBRANCH  27  28
BRANCH  27  30
ATOM     30  C   UNL     1      34.067 -19.543 -21.570  0.00  0.00    -0.044 C 
BRANCH  30  31
ATOM     31  N   UNL     1      34.453 -20.097 -20.279  0.00  0.00    +0.386 N 
ATOM     32  C   UNL     1      35.737 -20.794 -20.380  0.00  0.00    -0.101 C 
ATOM     33  C   UNL     1      33.420 -21.006 -19.777  0.00  0.00    -0.101 C 
ATOM     34  H   UNL     1      34.553 -19.324 -19.621  0.00  0.00    -0.080 HD
ENDBRANCH  30  31
ENDBRANCH  27  30
ENDBRANCH  26  27
ENDBRANCH  25  26
ENDBRANCH  19  25
ENDBRANCH   1  22
TORSDOF 8
ENDMDL
MODEL 3
REMARK VINA RESULT:      -8.9      9.488     13.585
REMARK  Name = 445952
REMARK  8 active torsions:
REMARK  status: ('A' for Active; 'I' for Inactive)
REMARK    1  A    between atoms: N_1  and  C_22
REMARK    2  A    between atoms: N_2  and  C_13
REMARK    3  A    between atoms: C_19  and  O_25
REMARK    4  A    between atoms: O_25  and  C_26
REMARK    5  A    between atoms: C_26  and  C_27
REMARK    6  A    between atoms: C_27  and  O_28
REMARK    7  A    between atoms: C_27  and  C_30
REMARK    8  A    between atoms: C_30  and  N_31
REMARK                            x       y       z     vdW  Elec       q    Type
REMARK                         _______ _______ _______ _____ _____    ______ ____
ROOT
ATOM      1  N   UNL     1      31.913 -12.123 -20.204  0.00  0.00    -0.247 N 
ATOM      2  N   UNL     1      33.411 -14.832 -23.777  0.00  0.00    -0.287 N 
ATOM      3  N   UNL     1      32.656 -13.449 -21.990  0.00  0.00    -0.322 NA
ATOM      4  N   UNL     1      32.243 -14.414 -19.820  0.00  0.00    -0.170 NA
ATOM      5  C   UNL     1      32.288 -13.388 -20.695  0.00  0.00    +0.150 C 
ATOM      6  C   UNL     1      33.010 -14.676 -22.427  0.00  0.00    +0.198 C 
ATOM      7  C   UNL     1      33.006 -15.804 -21.632  0.00  0.00    +0.070 C 
ATOM      8  C   UNL     1      32.609 -15.611 -20.324  0.00  0.00    +0.116 C 
ATOM      9  H   UNL     1      31.654 -12.128 -19.254  0.00  0.00    +0.165 HD
ATOM     10  H   UNL     1      33.651 -15.756 -24.015  0.00  0.00    +0.155 HD
ENDROOT
BRANCH   2  13
ATOM     11 CL   UNL     1      32.559 -15.844 -26.518  0.00  0.00    -0.081 Cl
ATOM     12 CL   UNL     1      34.757 -10.135 -25.295  0.00  0.00    -0.082 Cl
ATOM     13  C   UNL     1      33.531 -13.923 -24.841  0.00  0.00    +0.062 C 
ATOM     14  C   UNL     1      33.171 -14.271 -26.148  0.00  0.00    +0.071 C 
ATOM     15  C   UNL     1      34.022 -12.638 -24.584  0.00  0.00    +0.027 C 
ATOM     16  C   UNL     1      34.152 -11.714 -25.620  0.00  0.00    +0.059 C 
ATOM     17  C   UNL     1      33.302 -13.348 -27.184  0.00  0.00    +0.014 C 
ATOM     18  C   UNL     1      33.792 -12.069 -26.920  0.00  0.00    +0.012 C 
ENDBRANCH   2  13
BRANCH   1  22
ATOM     19  C   UNL     1      31.680  -8.338 -21.990  0.00  0.00    +0.139 C 
ATOM     20  C   UNL     1      31.936  -8.443 -20.628  0.00  0.00    +0.038 C 
ATOM     21  C   UNL     1      31.501  -9.479 -22.766  0.00  0.00    +0.038 C 
ATOM     22  C   UNL     1      31.835 -10.849 -20.805  0.00  0.00    +0.058 C 
ATOM     23  C   UNL     1      32.014  -9.702 -20.034  0.00  0.00    +0.018 C 
ATOM     24  C   UNL     1      31.579 -10.737 -22.172  0.00  0.00    +0.018 C 
BRANCH  19  25
ATOM     25  O   UNL     1      31.605  -7.102 -22.575  0.00  0.00    -0.473 OA
BRANCH  25  26
ATOM     26  C   UNL     1      31.384  -5.995 -21.705  0.00  0.00    +0.232 C 
BRANCH  26  27
ATOM     27  C   UNL     1      31.349  -4.715 -22.536  0.00  0.00    +0.133 C 
BRANCH  27  28
ATOM     28  O   UNL     1      30.302  -3.876 -22.037  0.00  0.00    -0.383 OA
ATOM     29  H   UNL     1      30.605  -2.955 -22.022  0.00  0.00    +0.210 HD
ENDBRANCH  27  28
BRANCH  27  30
ATOM     30  C   UNL     1      31.092  -4.965 -24.024  0.00  0.00    -0.044 C 
BRANCH  30  31
ATOM     31  N   UNL     1      32.143  -4.405 -24.863  0.00  0.00    +0.386 N 
ATOM     32  C   UNL     1      31.573  -3.533 -25.892  0.00  0.00    -0.101 C 
ATOM     33  C   UNL     1      32.932  -5.473 -25.482  0.00  0.00    -0.101 C 
ATOM     34  H   UNL     1      32.758  -3.849 -24.270  0.00  0.00    -0.080 HD
ENDBRANCH  30  31
ENDBRANCH  27  30
ENDBRANCH  26  27
ENDBRANCH  25  26
ENDBRANCH  19  25
ENDBRANCH   1  22
TORSDOF 8
ENDMDL
MODEL 4
REMARK VINA RESULT:      -8.7      2.181      4.171
REMARK  Name = 445952
REMARK  8 active torsions:
REMARK  status: ('A' for Active; 'I' for Inactive)
REMARK    1  A    between atoms: N_1  and  C_22
REMARK    2  A    between atoms: N_2  and  C_13
REMARK    3  A    between atoms: C_19  and  O_25
REMARK    4  A    between atoms: O_25  and  C_26
REMARK    5  A    between atoms: C_26  and  C_27
REMARK    6  A    between atoms: C_27  and  O_28
REMARK    7  A    between atoms: C_27  and  C_30
REMARK    8  A    between atoms: C_30  and  N_31
REMARK                            x       y       z     vdW  Elec       q    Type
REMARK                         _______ _______ _______ _____ _____    ______ ____
ROOT
ATOM      1  N   UNL     1      37.377 -22.373 -16.949  0.00  0.00    -0.247 N 
ATOM      2  N   UNL     1      33.885 -24.147 -14.302  0.00  0.00    -0.287 N 
ATOM      3  N   UNL     1      35.629 -23.245 -15.650  0.00  0.00    -0.322 NA
ATOM      4  N   UNL     1      37.926 -23.501 -14.966  0.00  0.00    -0.170 NA
ATOM      5  C   UNL     1      36.958 -23.072 -15.801  0.00  0.00    +0.150 C 
ATOM      6  C   UNL     1      35.263 -23.920 -14.540  0.00  0.00    +0.198 C 
ATOM      7  C   UNL     1      36.157 -24.409 -13.610  0.00  0.00    +0.070 C 
ATOM      8  C   UNL     1      37.489 -24.167 -13.877  0.00  0.00    +0.116 C 
ATOM      9  H   UNL     1      38.355 -22.273 -17.016  0.00  0.00    +0.165 HD
ATOM     10  H   UNL     1      33.703 -24.645 -13.472  0.00  0.00    +0.155 HD
ENDROOT
BRANCH   2  13
ATOM     11 CL   UNL     1      31.237 -25.084 -13.131  0.00  0.00    -0.081 Cl
ATOM     12 CL   UNL     1      31.901 -21.794 -18.388  0.00  0.00    -0.082 Cl
ATOM     13  C   UNL     1      32.729 -23.800 -15.020  0.00  0.00    +0.062 C 
ATOM     14  C   UNL     1      31.453 -24.173 -14.582  0.00  0.00    +0.071 C 
ATOM     15  C   UNL     1      32.861 -23.062 -16.201  0.00  0.00    +0.027 C 
ATOM     16  C   UNL     1      31.730 -22.702 -16.936  0.00  0.00    +0.059 C 
ATOM     17  C   UNL     1      30.324 -23.814 -15.317  0.00  0.00    +0.014 C 
ATOM     18  C   UNL     1      30.462 -23.078 -16.494  0.00  0.00    +0.012 C 
ENDBRANCH   2  13
BRANCH   1  22
ATOM     19  C   UNL     1      35.285 -20.635 -20.138  0.00  0.00    +0.139 C 
ATOM     20  C   UNL     1      34.730 -21.711 -19.454  0.00  0.00    +0.038 C 
ATOM     21  C   UNL     1      36.528 -20.129 -19.773  0.00  0.00    +0.038 C 
ATOM     22  C   UNL     1      36.673 -21.787 -18.022  0.00  0.00    +0.058 C 
ATOM     23  C   UNL     1      35.426 -22.288 -18.393  0.00  0.00    +0.018 C 
ATOM     24  C   UNL     1      37.224 -20.707 -18.712  0.00  0.00    +0.018 C 
BRANCH  19  25
ATOM     25  O   UNL     1      34.601 -20.066 -21.180  0.00  0.00    -0.473 OA
BRANCH  25  26
ATOM     26  C   UNL     1      34.660 -18.647 -21.286  0.00  0.00    +0.232 C 
BRANCH  26  27
ATOM     27  C   UNL     1      35.189 -18.278 -22.670  0.00  0.00    +0.133 C 
BRANCH  27  28
ATOM     28  O   UNL     1      36.619 -18.283 -22.628  0.00  0.00    -0.383 OA
ATOM     29  H   UNL     1      36.921 -17.778 -21.856  0.00  0.00    +0.210 HD
ENDBRANCH  27  28
BRANCH  27  30
ATOM     30  C   UNL     1      34.730 -16.898 -23.146  0.00  0.00    -0.044 C 
BRANCH  30  31
ATOM     31  N   UNL     1      34.712 -16.797 -24.599  0.00  0.00    +0.386 N 
ATOM     32  C   UNL     1      33.786 -15.749 -25.033  0.00  0.00    -0.101 C 
ATOM     33  C   UNL     1      34.343 -18.081 -25.201  0.00  0.00    -0.101 C 
ATOM     34  H   UNL     1      35.651 -16.551 -24.910  0.00  0.00    -0.080 HD
ENDBRANCH  30  31
ENDBRANCH  27  30
ENDBRANCH  26  27
ENDBRANCH  25  26
ENDBRANCH  19  25
ENDBRANCH   1  22
TORSDOF 8
ENDMDL
MODEL 5
REMARK VINA RESULT:      -8.7      2.500      4.372
REMARK  Name = 445952
REMARK  8 active torsions:
REMARK  status: ('A' for Active; 'I' for Inactive)
REMARK    1  A    between atoms: N_1  and  C_22
REMARK    2  A    between atoms: N_2  and  C_13
REMARK    3  A    between atoms: C_19  and  O_25
REMARK    4  A    between atoms: O_25  and  C_26
REMARK    5  A    between atoms: C_26  and  C_27
REMARK    6  A    between atoms: C_27  and  O_28
REMARK    7  A    between atoms: C_27  and  C_30
REMARK    8  A    between atoms: C_30  and  N_31
REMARK                            x       y       z     vdW  Elec       q    Type
REMARK                         _______ _______ _______ _____ _____    ______ ____
ROOT
ATOM      1  N   UNL     1      37.039 -22.774 -15.539  0.00  0.00    -0.247 N 
ATOM      2  N   UNL     1      33.043 -24.113 -13.399  0.00  0.00    -0.287 N 
ATOM      3  N   UNL     1      35.044 -23.431 -14.495  0.00  0.00    -0.322 NA
ATOM      4  N   UNL     1      37.167 -23.688 -13.382  0.00  0.00    -0.170 NA
ATOM      5  C   UNL     1      36.386 -23.323 -14.419  0.00  0.00    +0.150 C 
ATOM      6  C   UNL     1      34.451 -23.963 -13.405  0.00  0.00    +0.198 C 
ATOM      7  C   UNL     1      35.139 -24.374 -12.282  0.00  0.00    +0.070 C 
ATOM      8  C   UNL     1      36.508 -24.211 -12.326  0.00  0.00    +0.116 C 
ATOM      9  H   UNL     1      38.017 -22.716 -15.438  0.00  0.00    +0.165 HD
ATOM     10  H   UNL     1      32.690 -24.507 -12.568  0.00  0.00    +0.155 HD
ENDROOT
BRANCH   2  13
ATOM     11 CL   UNL     1      30.183 -24.830 -12.642  0.00  0.00    -0.081 Cl
ATOM     12 CL   UNL     1      31.942 -22.158 -17.997  0.00  0.00    -0.082 Cl
ATOM     13  C   UNL     1      32.052 -23.809 -14.348  0.00  0.00    +0.062 C 
ATOM     14  C   UNL     1      30.702 -24.091 -14.114  0.00  0.00    +0.071 C 
ATOM     15  C   UNL     1      32.430 -23.210 -15.554  0.00  0.00    +0.027 C 
ATOM     16  C   UNL     1      31.469 -22.895 -16.515  0.00  0.00    +0.059 C 
ATOM     17  C   UNL     1      29.741 -23.778 -15.076  0.00  0.00    +0.014 C 
ATOM     18  C   UNL     1      30.125 -23.181 -16.276  0.00  0.00    +0.012 C 
ENDBRANCH   2  13
BRANCH   1  22
ATOM     19  C   UNL     1      35.639 -21.334 -19.218  0.00  0.00    +0.139 C 
ATOM     20  C   UNL     1      36.827 -20.839 -18.691  0.00  0.00    +0.038 C 
ATOM     21  C   UNL     1      34.912 -22.303 -18.536  0.00  0.00    +0.038 C 
ATOM     22  C   UNL     1      36.569 -22.289 -16.778  0.00  0.00    +0.058 C 
ATOM     23  C   UNL     1      37.293 -21.318 -17.468  0.00  0.00    +0.018 C 
ATOM     24  C   UNL     1      35.378 -22.782 -17.312  0.00  0.00    +0.018 C 
BRANCH  19  25
ATOM     25  O   UNL     1      35.182 -20.864 -20.421  0.00  0.00    -0.473 OA
BRANCH  25  26
ATOM     26  C   UNL     1      35.775 -19.664 -20.907  0.00  0.00    +0.232 C 
BRANCH  26  27
ATOM     27  C   UNL     1      34.727 -18.878 -21.692  0.00  0.00    +0.133 C 
BRANCH  27  28
ATOM     28  O   UNL     1      33.434 -19.403 -21.376  0.00  0.00    -0.383 OA
ATOM     29  H   UNL     1      33.041 -19.796 -22.170  0.00  0.00    +0.210 HD
ENDBRANCH  27  28
BRANCH  27  30
ATOM     30  C   UNL     1      34.918 -18.961 -23.208  0.00  0.00    -0.044 C 
BRANCH  30  31
ATOM     31  N   UNL     1      35.375 -17.698 -23.772  0.00  0.00    +0.386 N 
ATOM     32  C   UNL     1      35.125 -16.596 -22.841  0.00  0.00    -0.101 C 
ATOM     33  C   UNL     1      34.719 -17.438 -25.055  0.00  0.00    -0.101 C 
ATOM     34  H   UNL     1      36.381 -17.768 -23.930  0.00  0.00    -0.080 HD
ENDBRANCH  30  31
ENDBRANCH  27  30
ENDBRANCH  26  27
ENDBRANCH  25  26
ENDBRANCH  19  25
ENDBRANCH   1  22
TORSDOF 8
ENDMDL
MODEL 6
REMARK VINA RESULT:      -8.6      1.017      1.876
REMARK  Name = 445952
REMARK  8 active torsions:
REMARK  status: ('A' for Active; 'I' for Inactive)
REMARK    1  A    between atoms: N_1  and  C_22
REMARK    2  A    between atoms: N_2  and  C_13
REMARK    3  A    between atoms: C_19  and  O_25
REMARK    4  A    between atoms: O_25  and  C_26
REMARK    5  A    between atoms: C_26  and  C_27
REMARK    6  A    between atoms: C_27  and  O_28
REMARK    7  A    between atoms: C_27  and  C_30
REMARK    8  A    between atoms: C_30  and  N_31
REMARK                            x       y       z     vdW  Elec       q    Type
REMARK                         _______ _______ _______ _____ _____    ______ ____
ROOT
ATOM      1  N   UNL     1      32.012 -22.649 -17.658  0.00  0.00    -0.247 N 
ATOM      2  N   UNL     1      34.439 -24.774 -14.202  0.00  0.00    -0.287 N 
ATOM      3  N   UNL     1      33.235 -23.698 -15.953  0.00  0.00    -0.322 NA
ATOM      4  N   UNL     1      30.827 -23.776 -15.975  0.00  0.00    -0.170 NA
ATOM      5  C   UNL     1      32.025 -23.411 -16.473  0.00  0.00    +0.150 C 
ATOM      6  C   UNL     1      33.211 -24.427 -14.817  0.00  0.00    +0.198 C 
ATOM      7  C   UNL     1      32.051 -24.861 -14.210  0.00  0.00    +0.070 C 
ATOM      8  C   UNL     1      30.877 -24.504 -14.840  0.00  0.00    +0.116 C 
ATOM      9  H   UNL     1      31.107 -22.464 -17.999  0.00  0.00    +0.165 HD
ATOM     10  H   UNL     1      34.334 -25.307 -13.380  0.00  0.00    +0.155 HD
ENDROOT
BRANCH   2  13
ATOM     11 CL   UNL     1      35.065 -21.930 -15.087  0.00  0.00    -0.081 Cl
ATOM     12 CL   UNL     1      39.206 -26.575 -14.656  0.00  0.00    -0.082 Cl
ATOM     13  C   UNL     1      35.776 -24.507 -14.537  0.00  0.00    +0.062 C 
ATOM     14  C   UNL     1      36.188 -23.237 -14.958  0.00  0.00    +0.071 C 
ATOM     15  C   UNL     1      36.718 -25.537 -14.445  0.00  0.00    +0.027 C 
ATOM     16  C   UNL     1      38.054 -25.302 -14.771  0.00  0.00    +0.059 C 
ATOM     17  C   UNL     1      37.522 -23.001 -15.284  0.00  0.00    +0.014 C 
ATOM     18  C   UNL     1      38.456 -24.034 -15.191  0.00  0.00    +0.012 C 
ENDBRANCH   2  13
BRANCH   1  22
ATOM     19  C   UNL     1      35.067 -21.015 -20.017  0.00  0.00    +0.139 C 
ATOM     20  C   UNL     1      35.366 -22.014 -19.097  0.00  0.00    +0.038 C 
ATOM     21  C   UNL     1      33.763 -20.554 -20.162  0.00  0.00    +0.038 C 
ATOM     22  C   UNL     1      33.040 -22.100 -18.452  0.00  0.00    +0.058 C 
ATOM     23  C   UNL     1      34.349 -22.558 -18.313  0.00  0.00    +0.018 C 
ATOM     24  C   UNL     1      32.747 -21.098 -19.378  0.00  0.00    +0.018 C 
BRANCH  19  25
ATOM     25  O   UNL     1      36.065 -20.481 -20.789  0.00  0.00    -0.473 OA
BRANCH  25  26
ATOM     26  C   UNL     1      36.096 -19.062 -20.904  0.00  0.00    +0.232 C 
BRANCH  26  27
ATOM     27  C   UNL     1      35.548 -18.667 -22.273  0.00  0.00    +0.133 C 
BRANCH  27  28
ATOM     28  O   UNL     1      36.626 -18.161 -23.067  0.00  0.00    -0.383 OA
ATOM     29  H   UNL     1      37.434 -18.131 -22.532  0.00  0.00    +0.210 HD
ENDBRANCH  27  28
BRANCH  27  30
ATOM     30  C   UNL     1      34.461 -17.592 -22.203  0.00  0.00    -0.044 C 
BRANCH  30  31
ATOM     31  N   UNL     1      35.019 -16.262 -21.996  0.00  0.00    +0.386 N 
ATOM     32  C   UNL     1      34.562 -15.703 -20.722  0.00  0.00    -0.101 C 
ATOM     33  C   UNL     1      34.654 -15.371 -23.100  0.00  0.00    -0.101 C 
ATOM     34  H   UNL     1      36.035 -16.346 -21.969  0.00  0.00    -0.080 HD
ENDBRANCH  30  31
ENDBRANCH  27  30
ENDBRANCH  26  27
ENDBRANCH  25  26
ENDBRANCH  19  25
ENDBRANCH   1  22
TORSDOF 8
ENDMDL
MODEL 7
REMARK VINA RESULT:      -8.5      9.216     13.409
REMARK  Name = 445952
REMARK  8 active torsions:
REMARK  status: ('A' for Active; 'I' for Inactive)
REMARK    1  A    between atoms: N_1  and  C_22
REMARK    2  A    between atoms: N_2  and  C_13
REMARK    3  A    between atoms: C_19  and  O_25
REMARK    4  A    between atoms: O_25  and  C_26
REMARK    5  A    between atoms: C_26  and  C_27
REMARK    6  A    between atoms: C_27  and  O_28
REMARK    7  A    between atoms: C_27  and  C_30
REMARK    8  A    between atoms: C_30  and  N_31
REMARK                            x       y       z     vdW  Elec       q    Type
REMARK                         _______ _______ _______ _____ _____    ______ ____
ROOT
ATOM      1  N   UNL     1      33.763 -10.792 -25.776  0.00  0.00    -0.247 N 
ATOM      2  N   UNL     1      33.192 -15.097 -23.907  0.00  0.00    -0.287 N 
ATOM      3  N   UNL     1      33.478 -12.919 -24.828  0.00  0.00    -0.322 NA
ATOM      4  N   UNL     1      33.812 -12.655 -27.200  0.00  0.00    -0.170 NA
ATOM      5  C   UNL     1      33.681 -12.188 -25.943  0.00  0.00    +0.150 C 
ATOM      6  C   UNL     1      33.404 -14.252 -25.024  0.00  0.00    +0.198 C 
ATOM      7  C   UNL     1      33.522 -14.853 -26.261  0.00  0.00    +0.070 C 
ATOM      8  C   UNL     1      33.728 -13.997 -27.324  0.00  0.00    +0.116 C 
ATOM      9  H   UNL     1      33.910 -10.301 -26.616  0.00  0.00    +0.165 HD
ATOM     10  H   UNL     1      33.151 -16.054 -24.135  0.00  0.00    +0.155 HD
ENDROOT
BRANCH   2  13
ATOM     11 CL   UNL     1      34.273 -17.201 -21.992  0.00  0.00    -0.081 Cl
ATOM     12 CL   UNL     1      31.443 -11.901 -20.315  0.00  0.00    -0.082 Cl
ATOM     13  C   UNL     1      33.030 -14.834 -22.537  0.00  0.00    +0.062 C 
ATOM     14  C   UNL     1      33.485 -15.726 -21.559  0.00  0.00    +0.071 C 
ATOM     15  C   UNL     1      32.397 -13.649 -22.144  0.00  0.00    +0.027 C 
ATOM     16  C   UNL     1      32.222 -13.360 -20.790  0.00  0.00    +0.059 C 
ATOM     17  C   UNL     1      33.309 -15.437 -20.207  0.00  0.00    +0.014 C 
ATOM     18  C   UNL     1      32.678 -14.255 -19.822  0.00  0.00    +0.012 C 
ENDBRANCH   2  13
BRANCH   1  22
ATOM     19  C   UNL     1      33.503  -8.314 -22.405  0.00  0.00    +0.139 C 
ATOM     20  C   UNL     1      32.556  -9.314 -22.600  0.00  0.00    +0.038 C 
ATOM     21  C   UNL     1      34.536  -8.129 -23.318  0.00  0.00    +0.038 C 
ATOM     22  C   UNL     1      33.676  -9.959 -24.641  0.00  0.00    +0.058 C 
ATOM     23  C   UNL     1      32.643 -10.138 -23.721  0.00  0.00    +0.018 C 
ATOM     24  C   UNL     1      34.622  -8.954 -24.439  0.00  0.00    +0.018 C 
BRANCH  19  25
ATOM     25  O   UNL     1      33.418  -7.504 -21.303  0.00  0.00    -0.473 OA
BRANCH  25  26
ATOM     26  C   UNL     1      32.121  -7.029 -20.955  0.00  0.00    +0.232 C 
BRANCH  26  27
ATOM     27  C   UNL     1      31.847  -5.738 -21.722  0.00  0.00    +0.133 C 
BRANCH  27  28
ATOM     28  O   UNL     1      30.800  -5.026 -21.055  0.00  0.00    -0.383 OA
ATOM     29  H   UNL     1      30.195  -5.657 -20.637  0.00  0.00    +0.210 HD
ENDBRANCH  27  28
BRANCH  27  30
ATOM     30  C   UNL     1      31.417  -5.973 -23.171  0.00  0.00    -0.044 C 
BRANCH  30  31
ATOM     31  N   UNL     1      31.975  -4.978 -24.077  0.00  0.00    +0.386 N 
ATOM     32  C   UNL     1      30.916  -4.134 -24.634  0.00  0.00    -0.101 C 
ATOM     33  C   UNL     1      32.728  -5.624 -25.154  0.00  0.00    -0.101 C 
ATOM     34  H   UNL     1      32.614  -4.388 -23.543  0.00  0.00    -0.080 HD
ENDBRANCH  30  31
ENDBRANCH  27  30
ENDBRANCH  26  27
ENDBRANCH  25  26
ENDBRANCH  19  25
ENDBRANCH   1  22
TORSDOF 8
ENDMDL
MODEL 8
REMARK VINA RESULT:      -8.0      3.940      7.954
REMARK  Name = 445952
REMARK  8 active torsions:
REMARK  status: ('A' for Active; 'I' for Inactive)
REMARK    1  A    between atoms: N_1  and  C_22
REMARK    2  A    between atoms: N_2  and  C_13
REMARK    3  A    between atoms: C_19  and  O_25
REMARK    4  A    between atoms: O_25  and  C_26
REMARK    5  A    between atoms: C_26  and  C_27
REMARK    6  A    between atoms: C_27  and  O_28
REMARK    7  A    between atoms: C_27  and  C_30
REMARK    8  A    between atoms: C_30  and  N_31
REMARK                            x       y       z     vdW  Elec       q    Type
REMARK                         _______ _______ _______ _____ _____    ______ ____
ROOT
ATOM      1  N   UNL     1      32.779 -23.913 -13.740  0.00  0.00    -0.247 N 
ATOM      2  N   UNL     1      32.285 -22.304 -18.158  0.00  0.00    -0.287 N 
ATOM      3  N   UNL     1      32.556 -23.110 -15.933  0.00  0.00    -0.322 NA
ATOM      4  N   UNL     1      30.639 -23.896 -14.702  0.00  0.00    -0.170 NA
ATOM      5  C   UNL     1      31.952 -23.626 -14.844  0.00  0.00    +0.150 C 
ATOM      6  C   UNL     1      31.735 -22.848 -16.972  0.00  0.00    +0.198 C 
ATOM      7  C   UNL     1      30.375 -23.080 -16.951  0.00  0.00    +0.070 C 
ATOM      8  C   UNL     1      29.877 -23.609 -15.778  0.00  0.00    +0.116 C 
ATOM      9  H   UNL     1      32.294 -24.289 -12.970  0.00  0.00    +0.165 HD
ATOM     10  H   UNL     1      31.621 -22.142 -18.866  0.00  0.00    +0.155 HD
ENDROOT
BRANCH   2  13
ATOM     11 CL   UNL     1      32.586 -20.653 -20.697  0.00  0.00    -0.081 Cl
ATOM     12 CL   UNL     1      37.273 -22.552 -17.046  0.00  0.00    -0.082 Cl
ATOM     13  C   UNL     1      33.596 -21.952 -18.520  0.00  0.00    +0.062 C 
ATOM     14  C   UNL     1      33.862 -21.194 -19.667  0.00  0.00    +0.071 C 
ATOM     15  C   UNL     1      34.659 -22.370 -17.712  0.00  0.00    +0.027 C 
ATOM     16  C   UNL     1      35.971 -22.034 -18.046  0.00  0.00    +0.059 C 
ATOM     17  C   UNL     1      35.174 -20.860 -20.001  0.00  0.00    +0.014 C 
ATOM     18  C   UNL     1      36.228 -21.280 -19.190  0.00  0.00    +0.012 C 
ENDBRANCH   2  13
BRANCH   1  22
ATOM     19  C   UNL     1      36.898 -23.487 -13.091  0.00  0.00    +0.139 C 
ATOM     20  C   UNL     1      36.360 -23.173 -14.334  0.00  0.00    +0.038 C 
ATOM     21  C   UNL     1      36.082 -23.941 -12.061  0.00  0.00    +0.038 C 
ATOM     22  C   UNL     1      34.165 -23.769 -13.522  0.00  0.00    +0.058 C 
ATOM     23  C   UNL     1      34.990 -23.314 -14.550  0.00  0.00    +0.018 C 
ATOM     24  C   UNL     1      34.712 -24.082 -12.277  0.00  0.00    +0.018 C 
BRANCH  19  25
ATOM     25  O   UNL     1      38.244 -23.347 -12.879  0.00  0.00    -0.473 OA
BRANCH  25  26
ATOM     26  C   UNL     1      38.925 -24.468 -12.324  0.00  0.00    +0.232 C 
BRANCH  26  27
ATOM     27  C   UNL     1      39.512 -25.301 -13.461  0.00  0.00    +0.133 C 
BRANCH  27  28
ATOM     28  O   UNL     1      40.673 -24.633 -13.962  0.00  0.00    -0.383 OA
ATOM     29  H   UNL     1      41.160 -25.229 -14.552  0.00  0.00    +0.210 HD
ENDBRANCH  27  28
BRANCH  27  30
ATOM     30  C   UNL     1      38.540 -25.507 -14.625  0.00  0.00    -0.044 C 
BRANCH  30  31
ATOM     31  N   UNL     1      37.817 -26.767 -14.518  0.00  0.00    +0.386 N 
ATOM     32  C   UNL     1      36.792 -26.865 -15.560  0.00  0.00    -0.101 C 
ATOM     33  C   UNL     1      37.207 -26.903 -13.193  0.00  0.00    -0.101 C 
ATOM     34  H   UNL     1      38.485 -27.527 -14.647  0.00  0.00    -0.080 HD
ENDBRANCH  30  31
ENDBRANCH  27  30
ENDBRANCH  26  27
ENDBRANCH  25  26
ENDBRANCH  19  25
ENDBRANCH   1  22
TORSDOF 8
ENDMDL
MODEL 9
REMARK VINA RESULT:      -8.0      4.379      7.804
REMARK  Name = 445952
REMARK  8 active torsions:
REMARK  status: ('A' for Active; 'I' for Inactive)
REMARK    1  A    between atoms: N_1  and  C_22
REMARK    2  A    between atoms: N_2  and  C_13
REMARK    3  A    between atoms: C_19  and  O_25
REMARK    4  A    between atoms: O_25  and  C_26
REMARK    5  A    between atoms: C_26  and  C_27
REMARK    6  A    between atoms: C_27  and  O_28
REMARK    7  A    between atoms: C_27  and  C_30
REMARK    8  A    between atoms: C_30  and  N_31
REMARK                            x       y       z     vdW  Elec       q    Type
REMARK                         _______ _______ _______ _____ _____    ______ ____
ROOT
ATOM      1  N   UNL     1      34.802 -24.258 -13.587  0.00  0.00    -0.247 N 
ATOM      2  N   UNL     1      36.773 -22.397 -17.461  0.00  0.00    -0.287 N 
ATOM      3  N   UNL     1      35.759 -23.331 -15.518  0.00  0.00    -0.322 NA
ATOM      4  N   UNL     1      37.141 -24.234 -13.762  0.00  0.00    -0.170 NA
ATOM      5  C   UNL     1      35.955 -23.926 -14.324  0.00  0.00    +0.150 C 
ATOM      6  C   UNL     1      36.886 -23.025 -16.196  0.00  0.00    +0.198 C 
ATOM      7  C   UNL     1      38.157 -23.289 -15.729  0.00  0.00    +0.070 C 
ATOM      8  C   UNL     1      38.225 -23.902 -14.495  0.00  0.00    +0.116 C 
ATOM      9  H   UNL     1      34.994 -24.688 -12.723  0.00  0.00    +0.165 HD
ATOM     10  H   UNL     1      37.640 -22.210 -17.889  0.00  0.00    +0.155 HD
ENDROOT
BRANCH   2  13
ATOM     11 CL   UNL     1      37.374 -20.730 -19.935  0.00  0.00    -0.081 Cl
ATOM     12 CL   UNL     1      31.689 -22.448 -18.029  0.00  0.00    -0.082 Cl
ATOM     13  C   UNL     1      35.665 -21.991 -18.222  0.00  0.00    +0.062 C 
ATOM     14  C   UNL     1      35.814 -21.221 -19.381  0.00  0.00    +0.071 C 
ATOM     15  C   UNL     1      34.383 -22.368 -17.809  0.00  0.00    +0.027 C 
ATOM     16  C   UNL     1      33.263 -21.980 -18.545  0.00  0.00    +0.059 C 
ATOM     17  C   UNL     1      34.694 -20.832 -20.116  0.00  0.00    +0.014 C 
ATOM     18  C   UNL     1      33.419 -21.212 -19.698  0.00  0.00    +0.012 C 
ENDBRANCH   2  13
BRANCH   1  22
ATOM     19  C   UNL     1      30.709 -23.773 -14.353  0.00  0.00    +0.139 C 
ATOM     20  C   UNL     1      31.173 -24.969 -13.816  0.00  0.00    +0.038 C 
ATOM     21  C   UNL     1      31.590 -22.735 -14.637  0.00  0.00    +0.038 C 
ATOM     22  C   UNL     1      33.424 -24.094 -13.844  0.00  0.00    +0.058 C 
ATOM     23  C   UNL     1      32.534 -25.130 -13.561  0.00  0.00    +0.018 C 
ATOM     24  C   UNL     1      32.952 -22.897 -14.382  0.00  0.00    +0.018 C 
BRANCH  19  25
ATOM     25  O   UNL     1      29.371 -23.614 -14.602  0.00  0.00    -0.473 OA
BRANCH  25  26
ATOM     26  C   UNL     1      28.743 -24.620 -15.391  0.00  0.00    +0.232 C 
BRANCH  26  27
ATOM     27  C   UNL     1      27.787 -23.949 -16.375  0.00  0.00    +0.133 C 
BRANCH  27  28
ATOM     28  O   UNL     1      27.752 -24.725 -17.577  0.00  0.00    -0.383 OA
ATOM     29  H   UNL     1      27.139 -25.468 -17.465  0.00  0.00    +0.210 HD
ENDBRANCH  27  28
BRANCH  27  30
ATOM     30  C   UNL     1      28.198 -22.521 -16.741  0.00  0.00    -0.044 C 
BRANCH  30  31
ATOM     31  N   UNL     1      27.078 -21.593 -16.664  0.00  0.00    +0.386 N 
ATOM     32  C   UNL     1      26.149 -21.990 -15.603  0.00  0.00    -0.101 C 
ATOM     33  C   UNL     1      26.378 -21.520 -17.949  0.00  0.00    -0.101 C 
ATOM     34  H   UNL     1      27.448 -20.669 -16.443  0.00  0.00    -0.080 HD
ENDBRANCH  30  31
ENDBRANCH  27  30
ENDBRANCH  26  27
ENDBRANCH  25  26
ENDBRANCH  19  25
ENDBRANCH   1  22
TORSDOF 8
ENDMDL
