MODEL 1
REMARK VINA RESULT:      -4.2      0.000      0.000
REMARK  Name = 264
REMARK  3 active torsions:
REMARK  status: ('A' for Active; 'I' for Inactive)
REMARK    1  A    between atoms: C_2  and  O_3
REMARK    2  A    between atoms: C_2  and  C_5
REMARK    3  A    between atoms: C_5  and  C_6
REMARK                            x       y       z     vdW  Elec       q    Type
REMARK                         _______ _______ _______ _____ _____    ______ ____
ROOT
ATOM      1  O   UNL     1      41.153 -26.591 -14.069  0.00  0.00    -0.250 OA
ATOM      2  C   UNL     1      40.385 -25.930 -14.757  0.00  0.00    +0.314 C 
ENDROOT
BRANCH   2   3
ATOM      3  O   UNL     1      40.411 -25.934 -16.112  0.00  0.00    -0.480 OA
ATOM      4  H   UNL     1      39.610 -25.887 -16.596  0.00  0.00    +0.295 HD
ENDBRANCH   2   3
BRANCH   2   5
ATOM      5  C   UNL     1      39.295 -25.052 -14.193  0.00  0.00    +0.109 C 
BRANCH   5   6
ATOM      6  C   UNL     1      38.549 -25.737 -13.055  0.00  0.00    +0.012 C 
ATOM      7  C   UNL     1      37.297 -26.465 -13.524  0.00  0.00    +0.001 C 
ENDBRANCH   5   6
ENDBRANCH   2   5
TORSDOF 3
ENDMDL
MODEL 2
REMARK VINA RESULT:      -4.2     10.606     11.386
REMARK  Name = 264
REMARK  3 active torsions:
REMARK  status: ('A' for Active; 'I' for Inactive)
REMARK    1  A    between atoms: C_2  and  O_3
REMARK    2  A    between atoms: C_2  and  C_5
REMARK    3  A    between atoms: C_5  and  C_6
REMARK                            x       y       z     vdW  Elec       q    Type
REMARK                         _______ _______ _______ _____ _____    ______ ____
ROOT
ATOM      1  O   UNL     1      42.303 -16.498 -15.645  0.00  0.00    -0.250 OA
ATOM      2  C   UNL     1      41.290 -15.817 -15.540  0.00  0.00    +0.314 C 
ENDROOT
BRANCH   2   3
ATOM      3  O   UNL     1      40.050 -16.346 -15.399  0.00  0.00    -0.480 OA
ATOM      4  H   UNL     1      39.604 -16.699 -16.144  0.00  0.00    +0.295 HD
ENDBRANCH   2   3
BRANCH   2   5
ATOM      5  C   UNL     1      41.290 -14.309 -15.523  0.00  0.00    +0.109 C 
BRANCH   5   6
ATOM      6  C   UNL     1      41.883 -13.728 -16.801  0.00  0.00    +0.012 C 
ATOM      7  C   UNL     1      41.187 -14.233 -18.057  0.00  0.00    +0.001 C 
ENDBRANCH   5   6
ENDBRANCH   2   5
TORSDOF 3
ENDMDL
MODEL 3
REMARK VINA RESULT:      -4.1     10.520     11.452
REMARK  Name = 264
REMARK  3 active torsions:
REMARK  status: ('A' for Active; 'I' for Inactive)
REMARK    1  A    between atoms: C_2  and  O_3
REMARK    2  A    between atoms: C_2  and  C_5
REMARK    3  A    between atoms: C_5  and  C_6
REMARK                            x       y       z     vdW  Elec       q    Type
REMARK                         _______ _______ _______ _____ _____    ______ ____
ROOT
ATOM      1  O   UNL     1      27.989 -21.830 -16.855  0.00  0.00    -0.250 OA
ATOM      2  C   UNL     1      28.126 -23.044 -16.763  0.00  0.00    +0.314 C 
ENDROOT
BRANCH   2   3
ATOM      3  O   UNL     1      27.638 -23.919 -17.678  0.00  0.00    -0.480 OA
ATOM      4  H   UNL     1      26.845 -23.722 -18.137  0.00  0.00    +0.295 HD
ENDBRANCH   2   3
BRANCH   2   5
ATOM      5  C   UNL     1      28.877 -23.723 -15.645  0.00  0.00    +0.109 C 
BRANCH   5   6
ATOM      6  C   UNL     1      30.140 -22.959 -15.266  0.00  0.00    +0.012 C 
ATOM      7  C   UNL     1      31.260 -23.132 -16.282  0.00  0.00    +0.001 C 
ENDBRANCH   5   6
ENDBRANCH   2   5
TORSDOF 3
ENDMDL
MODEL 4
REMARK VINA RESULT:      -4.0     12.916     13.655
REMARK  Name = 264
REMARK  3 active torsions:
REMARK  status: ('A' for Active; 'I' for Inactive)
REMARK    1  A    between atoms: C_2  and  O_3
REMARK    2  A    between atoms: C_2  and  C_5
REMARK    3  A    between atoms: C_5  and  C_6
REMARK                            x       y       z     vdW  Elec       q    Type
REMARK                         _______ _______ _______ _____ _____    ______ ____
ROOT
ATOM      1  O   UNL     1      34.608 -16.641 -25.866  0.00  0.00    -0.250 OA
ATOM      2  C   UNL     1      34.949 -17.041 -24.760  0.00  0.00    +0.314 C 
ENDROOT
BRANCH   2   3
ATOM      3  O   UNL     1      35.560 -16.254 -23.840  0.00  0.00    -0.480 OA
ATOM      4  H   UNL     1      35.047 -15.790 -23.207  0.00  0.00    +0.295 HD
ENDBRANCH   2   3
BRANCH   2   5
ATOM      5  C   UNL     1      34.713 -18.446 -24.265  0.00  0.00    +0.109 C 
BRANCH   5   6
ATOM      6  C   UNL     1      35.332 -18.674 -22.891  0.00  0.00    +0.012 C 
ATOM      7  C   UNL     1      34.394 -19.397 -21.934  0.00  0.00    +0.001 C 
ENDBRANCH   5   6
ENDBRANCH   2   5
TORSDOF 3
ENDMDL
MODEL 5
REMARK VINA RESULT:      -4.0     10.616     11.141
REMARK  Name = 264
REMARK  3 active torsions:
REMARK  status: ('A' for Active; 'I' for Inactive)
REMARK    1  A    between atoms: C_2  and  O_3
REMARK    2  A    between atoms: C_2  and  C_5
REMARK    3  A    between atoms: C_5  and  C_6
REMARK                            x       y       z     vdW  Elec       q    Type
REMARK                         _______ _______ _______ _____ _____    ______ ____
ROOT
ATOM      1  O   UNL     1      35.433 -17.511 -20.716  0.00  0.00    -0.250 OA
ATOM      2  C   UNL     1      35.481 -18.175 -21.744  0.00  0.00    +0.314 C 
ENDROOT
BRANCH   2   3
ATOM      3  O   UNL     1      36.256 -17.844 -22.807  0.00  0.00    -0.480 OA
ATOM      4  H   UNL     1      36.512 -18.502 -23.423  0.00  0.00    +0.295 HD
ENDBRANCH   2   3
BRANCH   2   5
ATOM      5  C   UNL     1      34.714 -19.456 -21.954  0.00  0.00    +0.109 C 
BRANCH   5   6
ATOM      6  C   UNL     1      34.366 -20.130 -20.632  0.00  0.00    +0.012 C 
ATOM      7  C   UNL     1      32.865 -20.195 -20.381  0.00  0.00    +0.001 C 
ENDBRANCH   5   6
ENDBRANCH   2   5
TORSDOF 3
ENDMDL
MODEL 6
REMARK VINA RESULT:      -3.9      8.446      9.096
REMARK  Name = 264
REMARK  3 active torsions:
REMARK  status: ('A' for Active; 'I' for Inactive)
REMARK    1  A    between atoms: C_2  and  O_3
REMARK    2  A    between atoms: C_2  and  C_5
REMARK    3  A    between atoms: C_5  and  C_6
REMARK                            x       y       z     vdW  Elec       q    Type
REMARK                         _______ _______ _______ _____ _____    ______ ____
ROOT
ATOM      1  O   UNL     1      33.904 -23.734 -19.467  0.00  0.00    -0.250 OA
ATOM      2  C   UNL     1      34.263 -22.606 -19.151  0.00  0.00    +0.314 C 
ENDROOT
BRANCH   2   3
ATOM      3  O   UNL     1      35.368 -22.359 -18.405  0.00  0.00    -0.480 OA
ATOM      4  H   UNL     1      36.145 -22.033 -18.813  0.00  0.00    +0.295 HD
ENDBRANCH   2   3
BRANCH   2   5
ATOM      5  C   UNL     1      33.546 -21.348 -19.572  0.00  0.00    +0.109 C 
BRANCH   5   6
ATOM      6  C   UNL     1      34.470 -20.393 -20.319  0.00  0.00    +0.012 C 
ATOM      7  C   UNL     1      33.713 -19.413 -21.205  0.00  0.00    +0.001 C 
ENDBRANCH   5   6
ENDBRANCH   2   5
TORSDOF 3
ENDMDL
MODEL 7
REMARK VINA RESULT:      -3.9      9.657     10.333
REMARK  Name = 264
REMARK  3 active torsions:
REMARK  status: ('A' for Active; 'I' for Inactive)
REMARK    1  A    between atoms: C_2  and  O_3
REMARK    2  A    between atoms: C_2  and  C_5
REMARK    3  A    between atoms: C_5  and  C_6
REMARK                            x       y       z     vdW  Elec       q    Type
REMARK                         _______ _______ _______ _____ _____    ______ ____
ROOT
ATOM      1  O   UNL     1      34.891 -21.228 -19.449  0.00  0.00    -0.250 OA
ATOM      2  C   UNL     1      33.697 -21.208 -19.724  0.00  0.00    +0.314 C 
ENDROOT
BRANCH   2   3
ATOM      3  O   UNL     1      32.815 -22.133 -19.274  0.00  0.00    -0.480 OA
ATOM      4  H   UNL     1      31.971 -22.209 -19.674  0.00  0.00    +0.295 HD
ENDBRANCH   2   3
BRANCH   2   5
ATOM      5  C   UNL     1      33.049 -20.142 -20.572  0.00  0.00    +0.109 C 
BRANCH   5   6
ATOM      6  C   UNL     1      34.054 -19.091 -21.026  0.00  0.00    +0.012 C 
ATOM      7  C   UNL     1      34.551 -19.325 -22.446  0.00  0.00    +0.001 C 
ENDBRANCH   5   6
ENDBRANCH   2   5
TORSDOF 3
ENDMDL
MODEL 8
REMARK VINA RESULT:      -3.9      2.584      3.467
REMARK  Name = 264
REMARK  3 active torsions:
REMARK  status: ('A' for Active; 'I' for Inactive)
REMARK    1  A    between atoms: C_2  and  O_3
REMARK    2  A    between atoms: C_2  and  C_5
REMARK    3  A    between atoms: C_5  and  C_6
REMARK                            x       y       z     vdW  Elec       q    Type
REMARK                         _______ _______ _______ _____ _____    ______ ____
ROOT
ATOM      1  O   UNL     1      36.021 -25.370 -15.470  0.00  0.00    -0.250 OA
ATOM      2  C   UNL     1      36.664 -26.398 -15.295  0.00  0.00    +0.314 C 
ENDROOT
BRANCH   2   3
ATOM      3  O   UNL     1      36.883 -27.313 -16.272  0.00  0.00    -0.480 OA
ATOM      4  H   UNL     1      36.199 -27.524 -16.877  0.00  0.00    +0.295 HD
ENDBRANCH   2   3
BRANCH   2   5
ATOM      5  C   UNL     1      37.319 -26.767 -13.988  0.00  0.00    +0.109 C 
BRANCH   5   6
ATOM      6  C   UNL     1      38.262 -25.674 -13.499  0.00  0.00    +0.012 C 
ATOM      7  C   UNL     1      39.614 -25.705 -14.200  0.00  0.00    +0.001 C 
ENDBRANCH   5   6
ENDBRANCH   2   5
TORSDOF 3
ENDMDL
MODEL 9
REMARK VINA RESULT:      -3.8     10.026     10.784
REMARK  Name = 264
REMARK  3 active torsions:
REMARK  status: ('A' for Active; 'I' for Inactive)
REMARK    1  A    between atoms: C_2  and  O_3
REMARK    2  A    between atoms: C_2  and  C_5
REMARK    3  A    between atoms: C_5  and  C_6
REMARK                            x       y       z     vdW  Elec       q    Type
REMARK                         _______ _______ _______ _____ _____    ______ ____
ROOT
ATOM      1  O   UNL     1      41.582 -17.393 -17.134  0.00  0.00    -0.250 OA
ATOM      2  C   UNL     1      41.956 -16.564 -16.313  0.00  0.00    +0.314 C 
ENDROOT
BRANCH   2   3
ATOM      3  O   UNL     1      43.244 -16.154 -16.205  0.00  0.00    -0.480 OA
ATOM      4  H   UNL     1      43.889 -16.730 -15.844  0.00  0.00    +0.295 HD
ENDBRANCH   2   3
BRANCH   2   5
ATOM      5  C   UNL     1      41.036 -15.872 -15.339  0.00  0.00    +0.109 C 
BRANCH   5   6
ATOM      6  C   UNL     1      41.075 -14.357 -15.501  0.00  0.00    +0.012 C 
ATOM      7  C   UNL     1      40.653 -13.618 -14.239  0.00  0.00    +0.001 C 
ENDBRANCH   5   6
ENDBRANCH   2   5
TORSDOF 3
ENDMDL
