MODEL 1
REMARK VINA RESULT:      -7.7      0.000      0.000
REMARK  Name = 94310
REMARK  8 active torsions:
REMARK  status: ('A' for Active; 'I' for Inactive)
REMARK    1  A    between atoms: O_1  and  C_3
REMARK    2  A    between atoms: O_1  and  C_10
REMARK    3  A    between atoms: C_3  and  C_4
REMARK    4  A    between atoms: C_10  and  C_11
REMARK    5  A    between atoms: C_11  and  C_12
REMARK    6  A    between atoms: C_11  and  C_14
REMARK    7  A    between atoms: C_14  and  C_15
REMARK    8  A    between atoms: C_15  and  C_16
REMARK                            x       y       z     vdW  Elec       q    Type
REMARK                         _______ _______ _______ _____ _____    ______ ____
ROOT
ATOM      1  O   UNL     1      35.448 -18.114 -23.679  0.00  0.00    -0.445 OA
ENDROOT
BRANCH   1   3
ATOM      2  O   UNL     1      34.616 -17.669 -25.777  0.00  0.00    -0.245 OA
ATOM      3  C   UNL     1      34.815 -17.355 -24.615  0.00  0.00    +0.341 C 
BRANCH   3   4
ATOM      4  C   UNL     1      34.385 -16.056 -24.038  0.00  0.00    +0.076 C 
ATOM      5  C   UNL     1      33.573 -15.229 -24.788  0.00  0.00    +0.006 C 
ATOM      6  C   UNL     1      34.808 -15.718 -22.768  0.00  0.00    +0.006 C 
ATOM      7  C   UNL     1      33.169 -14.010 -24.244  0.00  0.00    +0.000 C 
ATOM      8  C   UNL     1      34.404 -14.498 -22.226  0.00  0.00    +0.000 C 
ATOM      9  C   UNL     1      33.584 -13.644 -22.964  0.00  0.00    +0.000 C 
ENDBRANCH   3   4
ENDBRANCH   1   3
BRANCH   1  10
ATOM     10  C   UNL     1      34.802 -19.328 -23.318  0.00  0.00    +0.209 C 
BRANCH  10  11
ATOM     11  C   UNL     1      34.888 -19.546 -21.799  0.00  0.00    +0.044 C 
BRANCH  11  12
ATOM     12  C   UNL     1      33.599 -19.106 -21.067  0.00  0.00    +0.004 C 
ATOM     13  C   UNL     1      32.827 -20.228 -20.387  0.00  0.00    +0.000 C 
ENDBRANCH  11  12
BRANCH  11  14
ATOM     14  C   UNL     1      36.176 -18.887 -21.261  0.00  0.00    +0.004 C 
BRANCH  14  15
ATOM     15  C   UNL     1      36.954 -19.771 -20.280  0.00  0.00    +0.000 C 
BRANCH  15  16
ATOM     16  C   UNL     1      36.358 -21.174 -20.131  0.00  0.00    +0.000 C 
ATOM     17  C   UNL     1      36.230 -21.627 -18.685  0.00  0.00    +0.000 C 
ENDBRANCH  15  16
ENDBRANCH  14  15
ENDBRANCH  11  14
ENDBRANCH  10  11
ENDBRANCH   1  10
TORSDOF 8
ENDMDL
MODEL 2
REMARK VINA RESULT:      -7.7      1.334      5.821
REMARK  Name = 94310
REMARK  8 active torsions:
REMARK  status: ('A' for Active; 'I' for Inactive)
REMARK    1  A    between atoms: O_1  and  C_3
REMARK    2  A    between atoms: O_1  and  C_10
REMARK    3  A    between atoms: C_3  and  C_4
REMARK    4  A    between atoms: C_10  and  C_11
REMARK    5  A    between atoms: C_11  and  C_12
REMARK    6  A    between atoms: C_11  and  C_14
REMARK    7  A    between atoms: C_14  and  C_15
REMARK    8  A    between atoms: C_15  and  C_16
REMARK                            x       y       z     vdW  Elec       q    Type
REMARK                         _______ _______ _______ _____ _____    ______ ____
ROOT
ATOM      1  O   UNL     1      34.772 -18.294 -23.103  0.00  0.00    -0.445 OA
ENDROOT
BRANCH   1   3
ATOM      2  O   UNL     1      36.760 -18.398 -21.949  0.00  0.00    -0.245 OA
ATOM      3  C   UNL     1      35.590 -18.713 -22.099  0.00  0.00    +0.341 C 
BRANCH   3   4
ATOM      4  C   UNL     1      34.869 -19.628 -21.178  0.00  0.00    +0.076 C 
ATOM      5  C   UNL     1      33.498 -19.513 -21.062  0.00  0.00    +0.006 C 
ATOM      6  C   UNL     1      35.592 -20.565 -20.468  0.00  0.00    +0.006 C 
ATOM      7  C   UNL     1      32.822 -20.373 -20.197  0.00  0.00    +0.000 C 
ATOM      8  C   UNL     1      34.915 -21.424 -19.603  0.00  0.00    +0.000 C 
ATOM      9  C   UNL     1      33.529 -21.329 -19.467  0.00  0.00    +0.000 C 
ENDBRANCH   3   4
ENDBRANCH   1   3
BRANCH   1  10
ATOM     10  C   UNL     1      35.122 -17.064 -23.723  0.00  0.00    +0.209 C 
BRANCH  10  11
ATOM     11  C   UNL     1      34.074 -15.987 -23.399  0.00  0.00    +0.044 C 
BRANCH  11  12
ATOM     12  C   UNL     1      33.599 -15.228 -24.659  0.00  0.00    +0.004 C 
ATOM     13  C   UNL     1      33.082 -13.819 -24.409  0.00  0.00    +0.000 C 
ENDBRANCH  11  12
BRANCH  11  14
ATOM     14  C   UNL     1      34.614 -15.073 -22.278  0.00  0.00    +0.004 C 
BRANCH  14  15
ATOM     15  C   UNL     1      34.247 -15.551 -20.868  0.00  0.00    +0.000 C 
BRANCH  15  16
ATOM     16  C   UNL     1      32.840 -15.128 -20.435  0.00  0.00    +0.000 C 
ATOM     17  C   UNL     1      32.508 -13.684 -20.782  0.00  0.00    +0.000 C 
ENDBRANCH  15  16
ENDBRANCH  14  15
ENDBRANCH  11  14
ENDBRANCH  10  11
ENDBRANCH   1  10
TORSDOF 8
ENDMDL
MODEL 3
REMARK VINA RESULT:      -7.7      1.505      5.881
REMARK  Name = 94310
REMARK  8 active torsions:
REMARK  status: ('A' for Active; 'I' for Inactive)
REMARK    1  A    between atoms: O_1  and  C_3
REMARK    2  A    between atoms: O_1  and  C_10
REMARK    3  A    between atoms: C_3  and  C_4
REMARK    4  A    between atoms: C_10  and  C_11
REMARK    5  A    between atoms: C_11  and  C_12
REMARK    6  A    between atoms: C_11  and  C_14
REMARK    7  A    between atoms: C_14  and  C_15
REMARK    8  A    between atoms: C_15  and  C_16
REMARK                            x       y       z     vdW  Elec       q    Type
REMARK                         _______ _______ _______ _____ _____    ______ ____
ROOT
ATOM      1  O   UNL     1      35.094 -17.478 -21.573  0.00  0.00    -0.445 OA
ENDROOT
BRANCH   1   3
ATOM      2  O   UNL     1      37.033 -18.715 -21.647  0.00  0.00    -0.245 OA
ATOM      3  C   UNL     1      35.852 -18.589 -21.364  0.00  0.00    +0.341 C 
BRANCH   3   4
ATOM      4  C   UNL     1      35.048 -19.665 -20.732  0.00  0.00    +0.076 C 
ATOM      5  C   UNL     1      33.671 -19.598 -20.801  0.00  0.00    +0.006 C 
ATOM      6  C   UNL     1      35.703 -20.700 -20.095  0.00  0.00    +0.006 C 
ATOM      7  C   UNL     1      32.917 -20.609 -20.207  0.00  0.00    +0.000 C 
ATOM      8  C   UNL     1      34.947 -21.711 -19.501  0.00  0.00    +0.000 C 
ATOM      9  C   UNL     1      33.554 -21.666 -19.557  0.00  0.00    +0.000 C 
ENDBRANCH   3   4
ENDBRANCH   1   3
BRANCH   1  10
ATOM     10  C   UNL     1      35.451 -16.679 -22.693  0.00  0.00    +0.209 C 
BRANCH  10  11
ATOM     11  C   UNL     1      34.273 -16.587 -23.677  0.00  0.00    +0.044 C 
BRANCH  11  12
ATOM     12  C   UNL     1      34.523 -17.397 -24.970  0.00  0.00    +0.004 C 
ATOM     13  C   UNL     1      34.466 -18.909 -24.807  0.00  0.00    +0.000 C 
ENDBRANCH  11  12
BRANCH  11  14
ATOM     14  C   UNL     1      33.926 -15.102 -23.919  0.00  0.00    +0.004 C 
BRANCH  14  15
ATOM     15  C   UNL     1      33.994 -14.243 -22.651  0.00  0.00    +0.000 C 
BRANCH  15  16
ATOM     16  C   UNL     1      32.687 -14.241 -21.853  0.00  0.00    +0.000 C 
ATOM     17  C   UNL     1      32.756 -15.065 -20.577  0.00  0.00    +0.000 C 
ENDBRANCH  15  16
ENDBRANCH  14  15
ENDBRANCH  11  14
ENDBRANCH  10  11
ENDBRANCH   1  10
TORSDOF 8
ENDMDL
MODEL 4
REMARK VINA RESULT:      -7.7      1.470      6.140
REMARK  Name = 94310
REMARK  8 active torsions:
REMARK  status: ('A' for Active; 'I' for Inactive)
REMARK    1  A    between atoms: O_1  and  C_3
REMARK    2  A    between atoms: O_1  and  C_10
REMARK    3  A    between atoms: C_3  and  C_4
REMARK    4  A    between atoms: C_10  and  C_11
REMARK    5  A    between atoms: C_11  and  C_12
REMARK    6  A    between atoms: C_11  and  C_14
REMARK    7  A    between atoms: C_14  and  C_15
REMARK    8  A    between atoms: C_15  and  C_16
REMARK                            x       y       z     vdW  Elec       q    Type
REMARK                         _______ _______ _______ _____ _____    ______ ____
ROOT
ATOM      1  O   UNL     1      34.262 -17.402 -21.506  0.00  0.00    -0.445 OA
ENDROOT
BRANCH   1   3
ATOM      2  O   UNL     1      36.163 -18.375 -22.364  0.00  0.00    -0.245 OA
ATOM      3  C   UNL     1      35.161 -18.411 -21.667  0.00  0.00    +0.341 C 
BRANCH   3   4
ATOM      4  C   UNL     1      34.767 -19.600 -20.870  0.00  0.00    +0.076 C 
ATOM      5  C   UNL     1      35.754 -20.423 -20.367  0.00  0.00    +0.006 C 
ATOM      6  C   UNL     1      33.425 -19.844 -20.656  0.00  0.00    +0.006 C 
ATOM      7  C   UNL     1      35.382 -21.540 -19.618  0.00  0.00    +0.000 C 
ATOM      8  C   UNL     1      33.055 -20.961 -19.907  0.00  0.00    +0.000 C 
ATOM      9  C   UNL     1      34.034 -21.809 -19.388  0.00  0.00    +0.000 C 
ENDBRANCH   3   4
ENDBRANCH   1   3
BRANCH   1  10
ATOM     10  C   UNL     1      34.773 -16.190 -20.964  0.00  0.00    +0.209 C 
BRANCH  10  11
ATOM     11  C   UNL     1      34.236 -14.986 -21.754  0.00  0.00    +0.044 C 
BRANCH  11  12
ATOM     12  C   UNL     1      32.714 -14.792 -21.570  0.00  0.00    +0.004 C 
ATOM     13  C   UNL     1      32.292 -13.414 -21.079  0.00  0.00    +0.000 C 
ENDBRANCH  11  12
BRANCH  11  14
ATOM     14  C   UNL     1      34.684 -15.101 -23.226  0.00  0.00    +0.004 C 
BRANCH  14  15
ATOM     15  C   UNL     1      33.522 -15.063 -24.226  0.00  0.00    +0.000 C 
BRANCH  15  16
ATOM     16  C   UNL     1      33.759 -15.938 -25.459  0.00  0.00    +0.000 C 
ATOM     17  C   UNL     1      34.632 -17.152 -25.182  0.00  0.00    +0.000 C 
ENDBRANCH  15  16
ENDBRANCH  14  15
ENDBRANCH  11  14
ENDBRANCH  10  11
ENDBRANCH   1  10
TORSDOF 8
ENDMDL
MODEL 5
REMARK VINA RESULT:      -7.5      1.466      6.419
REMARK  Name = 94310
REMARK  8 active torsions:
REMARK  status: ('A' for Active; 'I' for Inactive)
REMARK    1  A    between atoms: O_1  and  C_3
REMARK    2  A    between atoms: O_1  and  C_10
REMARK    3  A    between atoms: C_3  and  C_4
REMARK    4  A    between atoms: C_10  and  C_11
REMARK    5  A    between atoms: C_11  and  C_12
REMARK    6  A    between atoms: C_11  and  C_14
REMARK    7  A    between atoms: C_14  and  C_15
REMARK    8  A    between atoms: C_15  and  C_16
REMARK                            x       y       z     vdW  Elec       q    Type
REMARK                         _______ _______ _______ _____ _____    ______ ____
ROOT
ATOM      1  O   UNL     1      34.469 -17.408 -22.142  0.00  0.00    -0.445 OA
ENDROOT
BRANCH   1   3
ATOM      2  O   UNL     1      36.544 -18.390 -22.300  0.00  0.00    -0.245 OA
ATOM      3  C   UNL     1      35.390 -18.381 -21.901  0.00  0.00    +0.341 C 
BRANCH   3   4
ATOM      4  C   UNL     1      34.808 -19.464 -21.070  0.00  0.00    +0.076 C 
ATOM      5  C   UNL     1      33.437 -19.519 -20.911  0.00  0.00    +0.006 C 
ATOM      6  C   UNL     1      35.654 -20.383 -20.483  0.00  0.00    +0.006 C 
ATOM      7  C   UNL     1      32.891 -20.537 -20.129  0.00  0.00    +0.000 C 
ATOM      8  C   UNL     1      35.106 -21.400 -19.702  0.00  0.00    +0.000 C 
ATOM      9  C   UNL     1      33.724 -21.478 -19.525  0.00  0.00    +0.000 C 
ENDBRANCH   3   4
ENDBRANCH   1   3
BRANCH   1  10
ATOM     10  C   UNL     1      34.903 -16.323 -22.952  0.00  0.00    +0.209 C 
BRANCH  10  11
ATOM     11  C   UNL     1      34.432 -14.988 -22.351  0.00  0.00    +0.044 C 
BRANCH  11  12
ATOM     12  C   UNL     1      34.222 -15.073 -20.822  0.00  0.00    +0.004 C 
ATOM     13  C   UNL     1      32.781 -14.916 -20.357  0.00  0.00    +0.000 C 
ENDBRANCH  11  12
BRANCH  11  14
ATOM     14  C   UNL     1      33.198 -14.486 -23.130  0.00  0.00    +0.004 C 
BRANCH  14  15
ATOM     15  C   UNL     1      33.552 -13.708 -24.403  0.00  0.00    +0.000 C 
BRANCH  15  16
ATOM     16  C   UNL     1      33.093 -14.408 -25.685  0.00  0.00    +0.000 C 
ATOM     17  C   UNL     1      33.173 -13.524 -26.920  0.00  0.00    +0.000 C 
ENDBRANCH  15  16
ENDBRANCH  14  15
ENDBRANCH  11  14
ENDBRANCH  10  11
ENDBRANCH   1  10
TORSDOF 8
ENDMDL
MODEL 6
REMARK VINA RESULT:      -7.4      4.285      6.772
REMARK  Name = 94310
REMARK  8 active torsions:
REMARK  status: ('A' for Active; 'I' for Inactive)
REMARK    1  A    between atoms: O_1  and  C_3
REMARK    2  A    between atoms: O_1  and  C_10
REMARK    3  A    between atoms: C_3  and  C_4
REMARK    4  A    between atoms: C_10  and  C_11
REMARK    5  A    between atoms: C_11  and  C_12
REMARK    6  A    between atoms: C_11  and  C_14
REMARK    7  A    between atoms: C_14  and  C_15
REMARK    8  A    between atoms: C_15  and  C_16
REMARK                            x       y       z     vdW  Elec       q    Type
REMARK                         _______ _______ _______ _____ _____    ______ ____
ROOT
ATOM      1  O   UNL     1      34.073 -22.561 -17.696  0.00  0.00    -0.445 OA
ENDROOT
BRANCH   1   3
ATOM      2  O   UNL     1      33.941 -23.833 -19.609  0.00  0.00    -0.245 OA
ATOM      3  C   UNL     1      34.072 -22.760 -19.043  0.00  0.00    +0.341 C 
BRANCH   3   4
ATOM      4  C   UNL     1      34.257 -21.475 -19.765  0.00  0.00    +0.076 C 
ATOM      5  C   UNL     1      33.141 -20.754 -20.140  0.00  0.00    +0.006 C 
ATOM      6  C   UNL     1      35.539 -21.043 -20.038  0.00  0.00    +0.006 C 
ATOM      7  C   UNL     1      33.317 -19.548 -20.818  0.00  0.00    +0.000 C 
ATOM      8  C   UNL     1      35.713 -19.836 -20.717  0.00  0.00    +0.000 C 
ATOM      9  C   UNL     1      34.601 -19.089 -21.107  0.00  0.00    +0.000 C 
ENDBRANCH   3   4
ENDBRANCH   1   3
BRANCH   1  10
ATOM     10  C   UNL     1      33.164 -23.356 -16.946  0.00  0.00    +0.209 C 
BRANCH  10  11
ATOM     11  C   UNL     1      33.723 -23.618 -15.538  0.00  0.00    +0.044 C 
BRANCH  11  12
ATOM     12  C   UNL     1      32.664 -23.394 -14.434  0.00  0.00    +0.004 C 
ATOM     13  C   UNL     1      31.312 -22.897 -14.926  0.00  0.00    +0.000 C 
ENDBRANCH  11  12
BRANCH  11  14
ATOM     14  C   UNL     1      35.019 -22.803 -15.345  0.00  0.00    +0.004 C 
BRANCH  14  15
ATOM     15  C   UNL     1      36.285 -23.668 -15.298  0.00  0.00    +0.000 C 
BRANCH  15  16
ATOM     16  C   UNL     1      37.523 -22.952 -15.845  0.00  0.00    +0.000 C 
ATOM     17  C   UNL     1      37.200 -21.669 -16.594  0.00  0.00    +0.000 C 
ENDBRANCH  15  16
ENDBRANCH  14  15
ENDBRANCH  11  14
ENDBRANCH  10  11
ENDBRANCH   1  10
TORSDOF 8
ENDMDL
MODEL 7
REMARK VINA RESULT:      -7.4      5.024      7.829
REMARK  Name = 94310
REMARK  8 active torsions:
REMARK  status: ('A' for Active; 'I' for Inactive)
REMARK    1  A    between atoms: O_1  and  C_3
REMARK    2  A    between atoms: O_1  and  C_10
REMARK    3  A    between atoms: C_3  and  C_4
REMARK    4  A    between atoms: C_10  and  C_11
REMARK    5  A    between atoms: C_11  and  C_12
REMARK    6  A    between atoms: C_11  and  C_14
REMARK    7  A    between atoms: C_14  and  C_15
REMARK    8  A    between atoms: C_15  and  C_16
REMARK                            x       y       z     vdW  Elec       q    Type
REMARK                         _______ _______ _______ _____ _____    ______ ____
ROOT
ATOM      1  O   UNL     1      32.487 -22.315 -17.912  0.00  0.00    -0.445 OA
ENDROOT
BRANCH   1   3
ATOM      2  O   UNL     1      33.893 -23.887 -18.831  0.00  0.00    -0.245 OA
ATOM      3  C   UNL     1      33.490 -22.740 -18.728  0.00  0.00    +0.341 C 
BRANCH   3   4
ATOM      4  C   UNL     1      34.055 -21.606 -19.502  0.00  0.00    +0.076 C 
ATOM      5  C   UNL     1      35.427 -21.484 -19.602  0.00  0.00    +0.006 C 
ATOM      6  C   UNL     1      33.192 -20.709 -20.098  0.00  0.00    +0.006 C 
ATOM      7  C   UNL     1      35.956 -20.419 -20.330  0.00  0.00    +0.000 C 
ATOM      8  C   UNL     1      33.723 -19.643 -20.825  0.00  0.00    +0.000 C 
ATOM      9  C   UNL     1      35.106 -19.498 -20.941  0.00  0.00    +0.000 C 
ENDBRANCH   3   4
ENDBRANCH   1   3
BRANCH   1  10
ATOM     10  C   UNL     1      32.000 -23.265 -16.973  0.00  0.00    +0.209 C 
BRANCH  10  11
ATOM     11  C   UNL     1      32.485 -22.912 -15.557  0.00  0.00    +0.044 C 
BRANCH  11  12
ATOM     12  C   UNL     1      33.767 -23.681 -15.165  0.00  0.00    +0.004 C 
ATOM     13  C   UNL     1      35.065 -22.907 -15.343  0.00  0.00    +0.000 C 
ENDBRANCH  11  12
BRANCH  11  14
ATOM     14  C   UNL     1      31.317 -23.081 -14.562  0.00  0.00    +0.004 C 
BRANCH  14  15
ATOM     15  C   UNL     1      29.935 -22.929 -15.207  0.00  0.00    +0.000 C 
BRANCH  15  16
ATOM     16  C   UNL     1      29.107 -24.216 -15.168  0.00  0.00    +0.000 C 
ATOM     17  C   UNL     1      29.917 -25.446 -14.788  0.00  0.00    +0.000 C 
ENDBRANCH  15  16
ENDBRANCH  14  15
ENDBRANCH  11  14
ENDBRANCH  10  11
ENDBRANCH   1  10
TORSDOF 8
ENDMDL
MODEL 8
REMARK VINA RESULT:      -7.4      5.049      7.782
REMARK  Name = 94310
REMARK  8 active torsions:
REMARK  status: ('A' for Active; 'I' for Inactive)
REMARK    1  A    between atoms: O_1  and  C_3
REMARK    2  A    between atoms: O_1  and  C_10
REMARK    3  A    between atoms: C_3  and  C_4
REMARK    4  A    between atoms: C_10  and  C_11
REMARK    5  A    between atoms: C_11  and  C_12
REMARK    6  A    between atoms: C_11  and  C_14
REMARK    7  A    between atoms: C_14  and  C_15
REMARK    8  A    between atoms: C_15  and  C_16
REMARK                            x       y       z     vdW  Elec       q    Type
REMARK                         _______ _______ _______ _____ _____    ______ ____
ROOT
ATOM      1  O   UNL     1      32.468 -22.273 -17.875  0.00  0.00    -0.445 OA
ENDROOT
BRANCH   1   3
ATOM      2  O   UNL     1      33.887 -23.848 -18.770  0.00  0.00    -0.245 OA
ATOM      3  C   UNL     1      33.469 -22.704 -18.691  0.00  0.00    +0.341 C 
BRANCH   3   4
ATOM      4  C   UNL     1      34.009 -21.582 -19.500  0.00  0.00    +0.076 C 
ATOM      5  C   UNL     1      33.126 -20.714 -20.111  0.00  0.00    +0.006 C 
ATOM      6  C   UNL     1      35.377 -21.442 -19.616  0.00  0.00    +0.006 C 
ATOM      7  C   UNL     1      33.635 -19.661 -20.871  0.00  0.00    +0.000 C 
ATOM      8  C   UNL     1      35.884 -20.388 -20.376  0.00  0.00    +0.000 C 
ATOM      9  C   UNL     1      35.013 -19.497 -21.004  0.00  0.00    +0.000 C 
ENDBRANCH   3   4
ENDBRANCH   1   3
BRANCH   1  10
ATOM     10  C   UNL     1      31.943 -23.234 -16.968  0.00  0.00    +0.209 C 
BRANCH  10  11
ATOM     11  C   UNL     1      32.322 -22.866 -15.524  0.00  0.00    +0.044 C 
BRANCH  11  12
ATOM     12  C   UNL     1      33.551 -23.656 -15.019  0.00  0.00    +0.004 C 
ATOM     13  C   UNL     1      34.899 -23.009 -15.307  0.00  0.00    +0.000 C 
ENDBRANCH  11  12
BRANCH  11  14
ATOM     14  C   UNL     1      31.076 -22.992 -14.622  0.00  0.00    +0.004 C 
BRANCH  14  15
ATOM     15  C   UNL     1      29.753 -22.958 -15.396  0.00  0.00    +0.000 C 
BRANCH  15  16
ATOM     16  C   UNL     1      28.996 -24.289 -15.355  0.00  0.00    +0.000 C 
ATOM     17  C   UNL     1      29.824 -25.440 -14.804  0.00  0.00    +0.000 C 
ENDBRANCH  15  16
ENDBRANCH  14  15
ENDBRANCH  11  14
ENDBRANCH  10  11
ENDBRANCH   1  10
TORSDOF 8
ENDMDL
MODEL 9
REMARK VINA RESULT:      -7.3      2.119      6.631
REMARK  Name = 94310
REMARK  8 active torsions:
REMARK  status: ('A' for Active; 'I' for Inactive)
REMARK    1  A    between atoms: O_1  and  C_3
REMARK    2  A    between atoms: O_1  and  C_10
REMARK    3  A    between atoms: C_3  and  C_4
REMARK    4  A    between atoms: C_10  and  C_11
REMARK    5  A    between atoms: C_11  and  C_12
REMARK    6  A    between atoms: C_11  and  C_14
REMARK    7  A    between atoms: C_14  and  C_15
REMARK    8  A    between atoms: C_15  and  C_16
REMARK                            x       y       z     vdW  Elec       q    Type
REMARK                         _______ _______ _______ _____ _____    ______ ____
ROOT
ATOM      1  O   UNL     1      33.359 -15.522 -24.468  0.00  0.00    -0.445 OA
ENDROOT
BRANCH   1   3
ATOM      2  O   UNL     1      34.891 -16.582 -25.819  0.00  0.00    -0.245 OA
ATOM      3  C   UNL     1      34.334 -16.431 -24.743  0.00  0.00    +0.341 C 
BRANCH   3   4
ATOM      4  C   UNL     1      34.650 -17.245 -23.542  0.00  0.00    +0.076 C 
ATOM      5  C   UNL     1      34.698 -18.619 -23.661  0.00  0.00    +0.006 C 
ATOM      6  C   UNL     1      34.886 -16.601 -22.344  0.00  0.00    +0.006 C 
ATOM      7  C   UNL     1      34.994 -19.382 -22.532  0.00  0.00    +0.000 C 
ATOM      8  C   UNL     1      35.183 -17.366 -21.216  0.00  0.00    +0.000 C 
ATOM      9  C   UNL     1      35.237 -18.757 -21.310  0.00  0.00    +0.000 C 
ENDBRANCH   3   4
ENDBRANCH   1   3
BRANCH   1  10
ATOM     10  C   UNL     1      33.664 -14.167 -24.771  0.00  0.00    +0.209 C 
BRANCH  10  11
ATOM     11  C   UNL     1      33.572 -13.304 -23.502  0.00  0.00    +0.044 C 
BRANCH  11  12
ATOM     12  C   UNL     1      32.388 -13.712 -22.597  0.00  0.00    +0.004 C 
ATOM     13  C   UNL     1      32.736 -13.918 -21.130  0.00  0.00    +0.000 C 
ENDBRANCH  11  12
BRANCH  11  14
ATOM     14  C   UNL     1      33.580 -11.812 -23.898  0.00  0.00    +0.004 C 
BRANCH  14  15
ATOM     15  C   UNL     1      34.089 -11.559 -25.322  0.00  0.00    +0.000 C 
BRANCH  15  16
ATOM     16  C   UNL     1      35.145 -10.452 -25.396  0.00  0.00    +0.000 C 
ATOM     17  C   UNL     1      34.953  -9.362 -24.353  0.00  0.00    +0.000 C 
ENDBRANCH  15  16
ENDBRANCH  14  15
ENDBRANCH  11  14
ENDBRANCH  10  11
ENDBRANCH   1  10
TORSDOF 8
ENDMDL
