MODEL 1
REMARK VINA RESULT:     -10.2      0.000      0.000
REMARK  Name = 24754814
REMARK  9 active torsions:
REMARK  status: ('A' for Active; 'I' for Inactive)
REMARK    1  A    between atoms: C_3  and  C_8
REMARK    2  A    between atoms: C_7  and  C_20
REMARK    3  A    between atoms: C_8  and  O_9
REMARK    4  A    between atoms: O_9  and  C_11
REMARK    5  A    between atoms: C_11  and  C_12
REMARK    6  A    between atoms: C_12  and  C_14
REMARK    7  A    between atoms: C_20  and  N_22
REMARK    8  A    between atoms: C_23  and  O_25
REMARK    9  A    between atoms: O_25  and  C_26
REMARK                            x       y       z     vdW  Elec       q    Type
REMARK                         _______ _______ _______ _____ _____    ______ ____
ROOT
ATOM      1  O   UNL     1      33.762 -12.696 -24.215  0.00  0.00    -0.273 OA
ATOM      2  N   UNL     1      33.299 -13.759 -22.212  0.00  0.00    -0.276 N 
ATOM      3  C   UNL     1      34.366 -14.756 -22.301  0.00  0.00    +0.119 C 
ATOM      4  C   UNL     1      34.464 -15.313 -20.879  0.00  0.00    +0.025 C 
ATOM      5  C   UNL     1      33.036 -15.201 -20.358  0.00  0.00    +0.023 C 
ATOM      6  C   UNL     1      32.554 -13.892 -20.963  0.00  0.00    +0.094 C 
ATOM      7  C   UNL     1      33.113 -12.776 -23.170  0.00  0.00    +0.246 C 
ENDROOT
BRANCH   3   8
ATOM      8  C   UNL     1      34.034 -15.841 -23.324  0.00  0.00    +0.228 C 
BRANCH   8   9
ATOM      9  O   UNL     1      35.231 -16.508 -23.677  0.00  0.00    -0.446 OA
BRANCH   9  11
ATOM     10  O   UNL     1      34.680 -18.614 -24.438  0.00  0.00    -0.250 OA
ATOM     11  C   UNL     1      35.201 -17.879 -23.610  0.00  0.00    +0.322 C 
BRANCH  11  12
ATOM     12  C   UNL     1      35.908 -18.335 -22.356  0.00  0.00    +0.136 C 
BRANCH  12  14
ATOM     13 CL   UNL     1      35.577 -22.118 -18.784  0.00  0.00    -0.082 Cl
ATOM     14  C   UNL     1      35.049 -19.211 -21.481  0.00  0.00    -0.010 C 
ATOM     15  C   UNL     1      35.641 -20.149 -20.637  0.00  0.00    +0.008 C 
ATOM     16  C   UNL     1      33.660 -19.083 -21.517  0.00  0.00    -0.004 C 
ATOM     17  C   UNL     1      34.846 -20.961 -19.827  0.00  0.00    +0.057 C 
ATOM     18  C   UNL     1      32.864 -19.895 -20.707  0.00  0.00    +0.001 C 
ATOM     19  C   UNL     1      33.457 -20.832 -19.863  0.00  0.00    +0.011 C 
ENDBRANCH  12  14
ENDBRANCH  11  12
ENDBRANCH   9  11
ENDBRANCH   8   9
ENDBRANCH   3   8
BRANCH   7  20
ATOM     20  C   UNL     1      32.032 -11.768 -22.868  0.00  0.00    +0.178 C 
BRANCH  20  22
ATOM     21  O   UNL     1      31.661  -9.455 -21.151  0.00  0.00    -0.226 OA
ATOM     22  N   UNL     1      32.660 -10.493 -22.974  0.00  0.00    -0.262 N 
ATOM     23  C   UNL     1      32.428  -9.430 -22.107  0.00  0.00    +0.402 C 
ATOM     24  H   UNL     1      33.301 -10.355 -23.708  0.00  0.00    +0.153 HD
BRANCH  23  25
ATOM     25  O   UNL     1      33.179  -8.348 -22.471  0.00  0.00    -0.442 OA
BRANCH  25  26
ATOM     26  C   UNL     1      32.465  -7.271 -23.086  0.00  0.00    +0.138 C 
ATOM     27  C   UNL     1      31.181  -7.827 -23.702  0.00  0.00    +0.044 C 
ATOM     28  C   UNL     1      32.148  -6.225 -22.019  0.00  0.00    +0.044 C 
ATOM     29  C   UNL     1      33.366  -6.679 -24.168  0.00  0.00    +0.044 C 
ENDBRANCH  25  26
ENDBRANCH  23  25
ENDBRANCH  20  22
ENDBRANCH   7  20
TORSDOF 9
ENDMDL
MODEL 2
REMARK VINA RESULT:      -9.7      8.684     13.331
REMARK  Name = 24754814
REMARK  9 active torsions:
REMARK  status: ('A' for Active; 'I' for Inactive)
REMARK    1  A    between atoms: C_3  and  C_8
REMARK    2  A    between atoms: C_7  and  C_20
REMARK    3  A    between atoms: C_8  and  O_9
REMARK    4  A    between atoms: O_9  and  C_11
REMARK    5  A    between atoms: C_11  and  C_12
REMARK    6  A    between atoms: C_12  and  C_14
REMARK    7  A    between atoms: C_20  and  N_22
REMARK    8  A    between atoms: C_23  and  O_25
REMARK    9  A    between atoms: O_25  and  C_26
REMARK                            x       y       z     vdW  Elec       q    Type
REMARK                         _______ _______ _______ _____ _____    ______ ____
ROOT
ATOM      1  O   UNL     1      34.950 -24.663 -15.398  0.00  0.00    -0.273 OA
ATOM      2  N   UNL     1      32.919 -23.780 -14.728  0.00  0.00    -0.276 N 
ATOM      3  C   UNL     1      32.242 -23.920 -16.018  0.00  0.00    +0.119 C 
ATOM      4  C   UNL     1      30.761 -23.743 -15.673  0.00  0.00    +0.025 C 
ATOM      5  C   UNL     1      30.788 -22.787 -14.486  0.00  0.00    +0.023 C 
ATOM      6  C   UNL     1      32.019 -23.235 -13.714  0.00  0.00    +0.094 C 
ATOM      7  C   UNL     1      34.220 -24.208 -14.516  0.00  0.00    +0.246 C 
ENDROOT
BRANCH   3   8
ATOM      8  C   UNL     1      32.730 -22.875 -17.021  0.00  0.00    +0.228 C 
BRANCH   8   9
ATOM      9  O   UNL     1      33.798 -23.432 -17.764  0.00  0.00    -0.446 OA
BRANCH   9  11
ATOM     10  O   UNL     1      34.123 -23.960 -19.986  0.00  0.00    -0.250 OA
ATOM     11  C   UNL     1      33.797 -23.167 -19.112  0.00  0.00    +0.322 C 
BRANCH  11  12
ATOM     12  C   UNL     1      33.336 -21.748 -19.345  0.00  0.00    +0.136 C 
BRANCH  12  14
ATOM     13 CL   UNL     1      34.662 -17.691 -22.336  0.00  0.00    -0.082 Cl
ATOM     14  C   UNL     1      34.415 -20.864 -19.913  0.00  0.00    -0.010 C 
ATOM     15  C   UNL     1      34.079 -19.810 -20.762  0.00  0.00    +0.008 C 
ATOM     16  C   UNL     1      35.751 -21.100 -19.590  0.00  0.00    -0.004 C 
ATOM     17  C   UNL     1      35.078 -18.992 -21.289  0.00  0.00    +0.057 C 
ATOM     18  C   UNL     1      36.751 -20.281 -20.116  0.00  0.00    +0.001 C 
ATOM     19  C   UNL     1      36.414 -19.227 -20.965  0.00  0.00    +0.011 C 
ENDBRANCH  12  14
ENDBRANCH  11  12
ENDBRANCH   9  11
ENDBRANCH   8   9
ENDBRANCH   3   8
BRANCH   7  20
ATOM     20  C   UNL     1      34.725 -24.083 -13.101  0.00  0.00    +0.178 C 
BRANCH  20  22
ATOM     21  O   UNL     1      36.527 -25.930 -11.768  0.00  0.00    -0.226 OA
ATOM     22  N   UNL     1      36.146 -24.138 -13.197  0.00  0.00    -0.262 N 
ATOM     23  C   UNL     1      36.942 -25.057 -12.524  0.00  0.00    +0.402 C 
ATOM     24  H   UNL     1      36.593 -23.482 -13.779  0.00  0.00    +0.153 HD
BRANCH  23  25
ATOM     25  O   UNL     1      38.260 -24.853 -12.823  0.00  0.00    -0.442 OA
BRANCH  25  26
ATOM     26  C   UNL     1      38.686 -25.311 -14.110  0.00  0.00    +0.138 C 
ATOM     27  C   UNL     1      37.886 -26.561 -14.472  0.00  0.00    +0.044 C 
ATOM     28  C   UNL     1      38.444 -24.196 -15.128  0.00  0.00    +0.044 C 
ATOM     29  C   UNL     1      40.176 -25.635 -14.014  0.00  0.00    +0.044 C 
ENDBRANCH  25  26
ENDBRANCH  23  25
ENDBRANCH  20  22
ENDBRANCH   7  20
TORSDOF 9
ENDMDL
MODEL 3
REMARK VINA RESULT:      -9.7      4.914     10.237
REMARK  Name = 24754814
REMARK  9 active torsions:
REMARK  status: ('A' for Active; 'I' for Inactive)
REMARK    1  A    between atoms: C_3  and  C_8
REMARK    2  A    between atoms: C_7  and  C_20
REMARK    3  A    between atoms: C_8  and  O_9
REMARK    4  A    between atoms: O_9  and  C_11
REMARK    5  A    between atoms: C_11  and  C_12
REMARK    6  A    between atoms: C_12  and  C_14
REMARK    7  A    between atoms: C_20  and  N_22
REMARK    8  A    between atoms: C_23  and  O_25
REMARK    9  A    between atoms: O_25  and  C_26
REMARK                            x       y       z     vdW  Elec       q    Type
REMARK                         _______ _______ _______ _____ _____    ______ ____
ROOT
ATOM      1  O   UNL     1      32.478 -20.523 -20.396  0.00  0.00    -0.273 OA
ATOM      2  N   UNL     1      34.780 -20.283 -20.402  0.00  0.00    -0.276 N 
ATOM      3  C   UNL     1      34.823 -19.100 -21.262  0.00  0.00    +0.119 C 
ATOM      4  C   UNL     1      36.243 -18.562 -21.069  0.00  0.00    +0.025 C 
ATOM      5  C   UNL     1      37.063 -19.818 -20.800  0.00  0.00    +0.023 C 
ATOM      6  C   UNL     1      36.119 -20.669 -19.964  0.00  0.00    +0.094 C 
ATOM      7  C   UNL     1      33.592 -20.876 -20.004  0.00  0.00    +0.246 C 
ENDROOT
BRANCH   3   8
ATOM      8  C   UNL     1      34.534 -19.457 -22.719  0.00  0.00    +0.228 C 
BRANCH   8   9
ATOM      9  O   UNL     1      35.417 -18.721 -23.545  0.00  0.00    -0.446 OA
BRANCH   9  11
ATOM     10  O   UNL     1      34.021 -18.013 -25.239  0.00  0.00    -0.250 OA
ATOM     11  C   UNL     1      34.837 -17.779 -24.358  0.00  0.00    +0.322 C 
BRANCH  11  12
ATOM     12  C   UNL     1      35.367 -16.411 -23.997  0.00  0.00    +0.136 C 
BRANCH  12  14
ATOM     13 CL   UNL     1      32.453 -14.951 -19.930  0.00  0.00    -0.082 Cl
ATOM     14  C   UNL     1      34.310 -15.501 -23.430  0.00  0.00    -0.010 C 
ATOM     15  C   UNL     1      33.916 -15.632 -22.099  0.00  0.00    +0.008 C 
ATOM     16  C   UNL     1      33.722 -14.526 -24.238  0.00  0.00    -0.004 C 
ATOM     17  C   UNL     1      32.936 -14.790 -21.573  0.00  0.00    +0.057 C 
ATOM     18  C   UNL     1      32.742 -13.683 -23.712  0.00  0.00    +0.001 C 
ATOM     19  C   UNL     1      32.350 -13.815 -22.381  0.00  0.00    +0.011 C 
ENDBRANCH  12  14
ENDBRANCH  11  12
ENDBRANCH   9  11
ENDBRANCH   8   9
ENDBRANCH   3   8
BRANCH   7  20
ATOM     20  C   UNL     1      33.728 -22.022 -19.034  0.00  0.00    +0.178 C 
BRANCH  20  22
ATOM     21  O   UNL     1      33.069 -23.500 -16.622  0.00  0.00    -0.226 OA
ATOM     22  N   UNL     1      32.455 -22.142 -18.405  0.00  0.00    -0.262 N 
ATOM     23  C   UNL     1      32.219 -22.872 -17.245  0.00  0.00    +0.402 C 
ATOM     24  H   UNL     1      31.691 -21.678 -18.818  0.00  0.00    +0.153 HD
BRANCH  23  25
ATOM     25  O   UNL     1      30.901 -22.792 -16.894  0.00  0.00    -0.442 OA
BRANCH  25  26
ATOM     26  C   UNL     1      30.586 -23.194 -15.556  0.00  0.00    +0.138 C 
ATOM     27  C   UNL     1      30.552 -24.721 -15.502  0.00  0.00    +0.044 C 
ATOM     28  C   UNL     1      31.656 -22.639 -14.617  0.00  0.00    +0.044 C 
ATOM     29  C   UNL     1      29.215 -22.614 -15.212  0.00  0.00    +0.044 C 
ENDBRANCH  25  26
ENDBRANCH  23  25
ENDBRANCH  20  22
ENDBRANCH   7  20
TORSDOF 9
ENDMDL
MODEL 4
REMARK VINA RESULT:      -9.5      3.477     10.002
REMARK  Name = 24754814
REMARK  9 active torsions:
REMARK  status: ('A' for Active; 'I' for Inactive)
REMARK    1  A    between atoms: C_3  and  C_8
REMARK    2  A    between atoms: C_7  and  C_20
REMARK    3  A    between atoms: C_8  and  O_9
REMARK    4  A    between atoms: O_9  and  C_11
REMARK    5  A    between atoms: C_11  and  C_12
REMARK    6  A    between atoms: C_12  and  C_14
REMARK    7  A    between atoms: C_20  and  N_22
REMARK    8  A    between atoms: C_23  and  O_25
REMARK    9  A    between atoms: O_25  and  C_26
REMARK                            x       y       z     vdW  Elec       q    Type
REMARK                         _______ _______ _______ _____ _____    ______ ____
ROOT
ATOM      1  O   UNL     1      35.087 -16.245 -20.317  0.00  0.00    -0.273 OA
ATOM      2  N   UNL     1      34.560 -15.828 -22.532  0.00  0.00    -0.276 N 
ATOM      3  C   UNL     1      34.067 -14.464 -22.332  0.00  0.00    +0.119 C 
ATOM      4  C   UNL     1      34.029 -13.881 -23.747  0.00  0.00    +0.025 C 
ATOM      5  C   UNL     1      33.733 -15.094 -24.621  0.00  0.00    +0.023 C 
ATOM      6  C   UNL     1      34.522 -16.203 -23.943  0.00  0.00    +0.094 C 
ATOM      7  C   UNL     1      35.073 -16.596 -21.499  0.00  0.00    +0.246 C 
ENDROOT
BRANCH   3   8
ATOM      8  C   UNL     1      32.691 -14.459 -21.669  0.00  0.00    +0.228 C 
BRANCH   8   9
ATOM      9  O   UNL     1      31.959 -13.352 -22.160  0.00  0.00    -0.446 OA
BRANCH   9  11
ATOM     10  O   UNL     1      32.031 -12.350 -20.084  0.00  0.00    -0.250 OA
ATOM     11  C   UNL     1      31.762 -12.319 -21.277  0.00  0.00    +0.322 C 
BRANCH  11  12
ATOM     12  C   UNL     1      31.159 -11.142 -22.008  0.00  0.00    +0.136 C 
BRANCH  12  14
ATOM     13 CL   UNL     1      35.190  -9.953 -25.091  0.00  0.00    -0.082 Cl
ATOM     14  C   UNL     1      32.187 -10.137 -22.454  0.00  0.00    -0.010 C 
ATOM     15  C   UNL     1      33.105 -10.471 -23.449  0.00  0.00    +0.008 C 
ATOM     16  C   UNL     1      32.223  -8.870 -21.871  0.00  0.00    -0.004 C 
ATOM     17  C   UNL     1      34.059  -9.540 -23.862  0.00  0.00    +0.057 C 
ATOM     18  C   UNL     1      33.176  -7.938 -22.284  0.00  0.00    +0.001 C 
ATOM     19  C   UNL     1      34.093  -8.273 -23.279  0.00  0.00    +0.011 C 
ENDBRANCH  12  14
ENDBRANCH  11  12
ENDBRANCH   9  11
ENDBRANCH   8   9
ENDBRANCH   3   8
BRANCH   7  20
ATOM     20  C   UNL     1      35.632 -17.938 -21.900  0.00  0.00    +0.178 C 
BRANCH  20  22
ATOM     21  O   UNL     1      33.645 -20.001 -21.420  0.00  0.00    -0.226 OA
ATOM     22  N   UNL     1      35.496 -18.767 -20.749  0.00  0.00    -0.262 N 
ATOM     23  C   UNL     1      34.513 -19.738 -20.594  0.00  0.00    +0.402 C 
ATOM     24  H   UNL     1      36.141 -18.645 -20.015  0.00  0.00    +0.153 HD
BRANCH  23  25
ATOM     25  O   UNL     1      34.648 -20.361 -19.385  0.00  0.00    -0.442 OA
BRANCH  25  26
ATOM     26  C   UNL     1      35.347 -21.610 -19.402  0.00  0.00    +0.138 C 
ATOM     27  C   UNL     1      36.287 -21.626 -20.606  0.00  0.00    +0.044 C 
ATOM     28  C   UNL     1      36.131 -21.747 -18.097  0.00  0.00    +0.044 C 
ATOM     29  C   UNL     1      34.304 -22.720 -19.521  0.00  0.00    +0.044 C 
ENDBRANCH  25  26
ENDBRANCH  23  25
ENDBRANCH  20  22
ENDBRANCH   7  20
TORSDOF 9
ENDMDL
MODEL 5
REMARK VINA RESULT:      -9.5      4.002     10.124
REMARK  Name = 24754814
REMARK  9 active torsions:
REMARK  status: ('A' for Active; 'I' for Inactive)
REMARK    1  A    between atoms: C_3  and  C_8
REMARK    2  A    between atoms: C_7  and  C_20
REMARK    3  A    between atoms: C_8  and  O_9
REMARK    4  A    between atoms: O_9  and  C_11
REMARK    5  A    between atoms: C_11  and  C_12
REMARK    6  A    between atoms: C_12  and  C_14
REMARK    7  A    between atoms: C_20  and  N_22
REMARK    8  A    between atoms: C_23  and  O_25
REMARK    9  A    between atoms: O_25  and  C_26
REMARK                            x       y       z     vdW  Elec       q    Type
REMARK                         _______ _______ _______ _____ _____    ______ ____
ROOT
ATOM      1  O   UNL     1      32.924 -14.203 -23.673  0.00  0.00    -0.273 OA
ATOM      2  N   UNL     1      32.254 -12.728 -22.021  0.00  0.00    -0.276 N 
ATOM      3  C   UNL     1      32.121 -11.555 -22.887  0.00  0.00    +0.119 C 
ATOM      4  C   UNL     1      31.314 -10.568 -22.041  0.00  0.00    +0.025 C 
ATOM      5  C   UNL     1      31.733 -10.902 -20.614  0.00  0.00    +0.023 C 
ATOM      6  C   UNL     1      31.875 -12.415 -20.645  0.00  0.00    +0.094 C 
ATOM      7  C   UNL     1      32.608 -13.977 -22.504  0.00  0.00    +0.246 C 
ENDROOT
BRANCH   3   8
ATOM      8  C   UNL     1      33.487 -10.996 -23.282  0.00  0.00    +0.228 C 
BRANCH   8   9
ATOM      9  O   UNL     1      33.328  -9.636 -23.643  0.00  0.00    -0.446 OA
BRANCH   9  11
ATOM     10  O   UNL     1      35.191  -9.382 -24.979  0.00  0.00    -0.250 OA
ATOM     11  C   UNL     1      34.459  -8.991 -24.080  0.00  0.00    +0.322 C 
BRANCH  11  12
ATOM     12  C   UNL     1      34.658  -7.729 -23.275  0.00  0.00    +0.136 C 
BRANCH  12  14
ATOM     13 CL   UNL     1      30.750  -4.673 -24.874  0.00  0.00    -0.082 Cl
ATOM     14  C   UNL     1      33.367  -7.019 -22.964  0.00  0.00    -0.010 C 
ATOM     15  C   UNL     1      32.731  -6.263 -23.947  0.00  0.00    +0.008 C 
ATOM     16  C   UNL     1      32.808  -7.117 -21.689  0.00  0.00    -0.004 C 
ATOM     17  C   UNL     1      31.535  -5.605 -23.659  0.00  0.00    +0.057 C 
ATOM     18  C   UNL     1      31.611  -6.459 -21.400  0.00  0.00    +0.001 C 
ATOM     19  C   UNL     1      30.976  -5.704 -22.385  0.00  0.00    +0.011 C 
ENDBRANCH  12  14
ENDBRANCH  11  12
ENDBRANCH   9  11
ENDBRANCH   8   9
ENDBRANCH   3   8
BRANCH   7  20
ATOM     20  C   UNL     1      32.596 -15.095 -21.491  0.00  0.00    +0.178 C 
BRANCH  20  22
ATOM     21  O   UNL     1      34.931 -16.043 -20.048  0.00  0.00    -0.226 OA
ATOM     22  N   UNL     1      33.579 -16.025 -21.938  0.00  0.00    -0.262 N 
ATOM     23  C   UNL     1      34.674 -16.431 -21.183  0.00  0.00    +0.402 C 
ATOM     24  H   UNL     1      33.477 -16.406 -22.840  0.00  0.00    +0.153 HD
BRANCH  23  25
ATOM     25  O   UNL     1      35.429 -17.327 -21.886  0.00  0.00    -0.442 OA
BRANCH  25  26
ATOM     26  C   UNL     1      35.108 -18.707 -21.686  0.00  0.00    +0.138 C 
ATOM     27  C   UNL     1      36.223 -19.352 -20.864  0.00  0.00    +0.044 C 
ATOM     28  C   UNL     1      33.771 -18.793 -20.951  0.00  0.00    +0.044 C 
ATOM     29  C   UNL     1      35.007 -19.362 -23.062  0.00  0.00    +0.044 C 
ENDBRANCH  25  26
ENDBRANCH  23  25
ENDBRANCH  20  22
ENDBRANCH   7  20
TORSDOF 9
ENDMDL
MODEL 6
REMARK VINA RESULT:      -9.3      4.061     10.599
REMARK  Name = 24754814
REMARK  9 active torsions:
REMARK  status: ('A' for Active; 'I' for Inactive)
REMARK    1  A    between atoms: C_3  and  C_8
REMARK    2  A    between atoms: C_7  and  C_20
REMARK    3  A    between atoms: C_8  and  O_9
REMARK    4  A    between atoms: O_9  and  C_11
REMARK    5  A    between atoms: C_11  and  C_12
REMARK    6  A    between atoms: C_12  and  C_14
REMARK    7  A    between atoms: C_20  and  N_22
REMARK    8  A    between atoms: C_23  and  O_25
REMARK    9  A    between atoms: O_25  and  C_26
REMARK                            x       y       z     vdW  Elec       q    Type
REMARK                         _______ _______ _______ _____ _____    ______ ____
ROOT
ATOM      1  O   UNL     1      32.702 -13.793 -23.467  0.00  0.00    -0.273 OA
ATOM      2  N   UNL     1      32.056 -12.476 -21.677  0.00  0.00    -0.276 N 
ATOM      3  C   UNL     1      31.727 -11.283 -22.457  0.00  0.00    +0.119 C 
ATOM      4  C   UNL     1      30.914 -10.425 -21.485  0.00  0.00    +0.025 C 
ATOM      5  C   UNL     1      31.500 -10.783 -20.124  0.00  0.00    +0.023 C 
ATOM      6  C   UNL     1      31.785 -12.271 -20.256  0.00  0.00    +0.094 C 
ATOM      7  C   UNL     1      32.482 -13.658 -22.262  0.00  0.00    +0.246 C 
ENDROOT
BRANCH   3   8
ATOM      8  C   UNL     1      32.987 -10.568 -22.944  0.00  0.00    +0.228 C 
BRANCH   8   9
ATOM      9  O   UNL     1      32.647  -9.234 -23.274  0.00  0.00    -0.446 OA
BRANCH   9  11
ATOM     10  O   UNL     1      33.158  -7.865 -21.489  0.00  0.00    -0.250 OA
ATOM     11  C   UNL     1      33.361  -8.252 -22.632  0.00  0.00    +0.322 C 
BRANCH  11  12
ATOM     12  C   UNL     1      34.433  -7.725 -23.558  0.00  0.00    +0.136 C 
BRANCH  12  14
ATOM     13 CL   UNL     1      30.717  -4.303 -24.843  0.00  0.00    -0.082 Cl
ATOM     14  C   UNL     1      33.927  -6.666 -24.501  0.00  0.00    -0.010 C 
ATOM     15  C   UNL     1      32.700  -6.048 -24.264  0.00  0.00    +0.008 C 
ATOM     16  C   UNL     1      34.686  -6.304 -25.614  0.00  0.00    -0.004 C 
ATOM     17  C   UNL     1      32.231  -5.067 -25.138  0.00  0.00    +0.057 C 
ATOM     18  C   UNL     1      34.217  -5.323 -26.489  0.00  0.00    +0.001 C 
ATOM     19  C   UNL     1      32.991  -4.705 -26.250  0.00  0.00    +0.011 C 
ENDBRANCH  12  14
ENDBRANCH  11  12
ENDBRANCH   9  11
ENDBRANCH   8   9
ENDBRANCH   3   8
BRANCH   7  20
ATOM     20  C   UNL     1      32.677 -14.818 -21.319  0.00  0.00    +0.178 C 
BRANCH  20  22
ATOM     21  O   UNL     1      35.028 -16.092 -20.184  0.00  0.00    -0.226 OA
ATOM     22  N   UNL     1      33.598 -15.688 -21.971  0.00  0.00    -0.262 N 
ATOM     23  C   UNL     1      34.706 -16.261 -21.355  0.00  0.00    +0.402 C 
ATOM     24  H   UNL     1      33.441 -15.899 -22.920  0.00  0.00    +0.153 HD
BRANCH  23  25
ATOM     25  O   UNL     1      35.390 -17.044 -22.242  0.00  0.00    -0.442 OA
BRANCH  25  26
ATOM     26  C   UNL     1      35.277 -18.457 -22.044  0.00  0.00    +0.138 C 
ATOM     27  C   UNL     1      35.171 -19.134 -23.411  0.00  0.00    +0.044 C 
ATOM     28  C   UNL     1      36.514 -18.943 -21.291  0.00  0.00    +0.044 C 
ATOM     29  C   UNL     1      34.015 -18.708 -21.222  0.00  0.00    +0.044 C 
ENDBRANCH  25  26
ENDBRANCH  23  25
ENDBRANCH  20  22
ENDBRANCH   7  20
TORSDOF 9
ENDMDL
MODEL 7
REMARK VINA RESULT:      -9.3      8.557     12.348
REMARK  Name = 24754814
REMARK  9 active torsions:
REMARK  status: ('A' for Active; 'I' for Inactive)
REMARK    1  A    between atoms: C_3  and  C_8
REMARK    2  A    between atoms: C_7  and  C_20
REMARK    3  A    between atoms: C_8  and  O_9
REMARK    4  A    between atoms: O_9  and  C_11
REMARK    5  A    between atoms: C_11  and  C_12
REMARK    6  A    between atoms: C_12  and  C_14
REMARK    7  A    between atoms: C_20  and  N_22
REMARK    8  A    between atoms: C_23  and  O_25
REMARK    9  A    between atoms: O_25  and  C_26
REMARK                            x       y       z     vdW  Elec       q    Type
REMARK                         _______ _______ _______ _____ _____    ______ ____
ROOT
ATOM      1  O   UNL     1      32.994 -23.196 -15.633  0.00  0.00    -0.273 OA
ATOM      2  N   UNL     1      34.710 -23.794 -14.200  0.00  0.00    -0.276 N 
ATOM      3  C   UNL     1      35.720 -22.898 -14.765  0.00  0.00    +0.119 C 
ATOM      4  C   UNL     1      36.819 -22.871 -13.701  0.00  0.00    +0.025 C 
ATOM      5  C   UNL     1      36.734 -24.256 -13.071  0.00  0.00    +0.023 C 
ATOM      6  C   UNL     1      35.239 -24.534 -13.058  0.00  0.00    +0.094 C 
ATOM      7  C   UNL     1      33.405 -23.835 -14.663  0.00  0.00    +0.246 C 
ENDROOT
BRANCH   3   8
ATOM      8  C   UNL     1      36.232 -23.411 -16.110  0.00  0.00    +0.228 C 
BRANCH   8   9
ATOM      9  O   UNL     1      35.656 -22.627 -17.139  0.00  0.00    -0.446 OA
BRANCH   9  11
ATOM     10  O   UNL     1      37.199 -20.912 -17.150  0.00  0.00    -0.250 OA
ATOM     11  C   UNL     1      36.488 -21.715 -17.740  0.00  0.00    +0.322 C 
BRANCH  11  12
ATOM     12  C   UNL     1      36.385 -21.855 -19.240  0.00  0.00    +0.136 C 
BRANCH  12  14
ATOM     13 CL   UNL     1      35.038 -17.761 -22.172  0.00  0.00    -0.082 Cl
ATOM     14  C   UNL     1      35.300 -21.000 -19.839  0.00  0.00    -0.010 C 
ATOM     15  C   UNL     1      35.632 -19.905 -20.635  0.00  0.00    +0.008 C 
ATOM     16  C   UNL     1      33.960 -21.304 -19.596  0.00  0.00    -0.004 C 
ATOM     17  C   UNL     1      34.627 -19.112 -21.189  0.00  0.00    +0.057 C 
ATOM     18  C   UNL     1      32.953 -20.512 -20.151  0.00  0.00    +0.001 C 
ATOM     19  C   UNL     1      33.287 -19.417 -20.946  0.00  0.00    +0.011 C 
ENDBRANCH  12  14
ENDBRANCH  11  12
ENDBRANCH   9  11
ENDBRANCH   8   9
ENDBRANCH   3   8
BRANCH   7  20
ATOM     20  C   UNL     1      32.471 -24.739 -13.899  0.00  0.00    +0.178 C 
BRANCH  20  22
ATOM     21  O   UNL     1      30.156 -25.959 -15.161  0.00  0.00    -0.226 OA
ATOM     22  N   UNL     1      31.172 -24.177 -14.069  0.00  0.00    -0.262 N 
ATOM     23  C   UNL     1      30.110 -24.828 -14.687  0.00  0.00    +0.402 C 
ATOM     24  H   UNL     1      31.016 -23.268 -13.725  0.00  0.00    +0.153 HD
BRANCH  23  25
ATOM     25  O   UNL     1      29.002 -24.029 -14.693  0.00  0.00    -0.442 OA
BRANCH  25  26
ATOM     26  C   UNL     1      28.702 -23.388 -15.938  0.00  0.00    +0.138 C 
ATOM     27  C   UNL     1      27.553 -22.405 -15.714  0.00  0.00    +0.044 C 
ATOM     28  C   UNL     1      29.954 -22.661 -16.425  0.00  0.00    +0.044 C 
ATOM     29  C   UNL     1      28.292 -24.476 -16.929  0.00  0.00    +0.044 C 
ENDBRANCH  25  26
ENDBRANCH  23  25
ENDBRANCH  20  22
ENDBRANCH   7  20
TORSDOF 9
ENDMDL
MODEL 8
REMARK VINA RESULT:      -9.0      6.543     12.278
REMARK  Name = 24754814
REMARK  9 active torsions:
REMARK  status: ('A' for Active; 'I' for Inactive)
REMARK    1  A    between atoms: C_3  and  C_8
REMARK    2  A    between atoms: C_7  and  C_20
REMARK    3  A    between atoms: C_8  and  O_9
REMARK    4  A    between atoms: O_9  and  C_11
REMARK    5  A    between atoms: C_11  and  C_12
REMARK    6  A    between atoms: C_12  and  C_14
REMARK    7  A    between atoms: C_20  and  N_22
REMARK    8  A    between atoms: C_23  and  O_25
REMARK    9  A    between atoms: O_25  and  C_26
REMARK                            x       y       z     vdW  Elec       q    Type
REMARK                         _______ _______ _______ _____ _____    ______ ____
ROOT
ATOM      1  O   UNL     1      36.792 -21.602 -18.811  0.00  0.00    -0.273 OA
ATOM      2  N   UNL     1      35.140 -22.452 -17.431  0.00  0.00    -0.276 N 
ATOM      3  C   UNL     1      34.179 -22.762 -18.491  0.00  0.00    +0.119 C 
ATOM      4  C   UNL     1      33.171 -23.690 -17.808  0.00  0.00    +0.025 C 
ATOM      5  C   UNL     1      33.173 -23.209 -16.362  0.00  0.00    +0.023 C 
ATOM      6  C   UNL     1      34.631 -22.853 -16.121  0.00  0.00    +0.094 C 
ATOM      7  C   UNL     1      36.397 -21.930 -17.690  0.00  0.00    +0.246 C 
ENDROOT
BRANCH   3   8
ATOM      8  C   UNL     1      33.521 -21.495 -19.036  0.00  0.00    +0.228 C 
BRANCH   8   9
ATOM      9  O   UNL     1      34.115 -21.182 -20.282  0.00  0.00    -0.446 OA
BRANCH   9  11
ATOM     10  O   UNL     1      32.656 -19.513 -20.920  0.00  0.00    -0.250 OA
ATOM     11  C   UNL     1      33.791 -19.958 -20.814  0.00  0.00    +0.322 C 
BRANCH  11  12
ATOM     12  C   UNL     1      35.053 -19.250 -21.247  0.00  0.00    +0.136 C 
BRANCH  12  14
ATOM     13 CL   UNL     1      34.460 -14.523 -23.361  0.00  0.00    -0.082 Cl
ATOM     14  C   UNL     1      34.860 -18.404 -22.478  0.00  0.00    -0.010 C 
ATOM     15  C   UNL     1      34.760 -17.018 -22.364  0.00  0.00    +0.008 C 
ATOM     16  C   UNL     1      34.780 -19.007 -23.733  0.00  0.00    -0.004 C 
ATOM     17  C   UNL     1      34.581 -16.233 -23.503  0.00  0.00    +0.057 C 
ATOM     18  C   UNL     1      34.601 -18.223 -24.874  0.00  0.00    +0.001 C 
ATOM     19  C   UNL     1      34.502 -16.837 -24.759  0.00  0.00    +0.011 C 
ENDBRANCH  12  14
ENDBRANCH  11  12
ENDBRANCH   9  11
ENDBRANCH   8   9
ENDBRANCH   3   8
BRANCH   7  20
ATOM     20  C   UNL     1      37.297 -21.770 -16.491  0.00  0.00    +0.178 C 
BRANCH  20  22
ATOM     21  O   UNL     1      37.700 -22.823 -13.814  0.00  0.00    -0.226 OA
ATOM     22  N   UNL     1      37.680 -23.092 -16.122  0.00  0.00    -0.262 N 
ATOM     23  C   UNL     1      37.853 -23.521 -14.811  0.00  0.00    +0.402 C 
ATOM     24  H   UNL     1      37.832 -23.745 -16.843  0.00  0.00    +0.153 HD
BRANCH  23  25
ATOM     25  O   UNL     1      38.219 -24.837 -14.787  0.00  0.00    -0.442 OA
BRANCH  25  26
ATOM     26  C   UNL     1      37.427 -25.692 -13.956  0.00  0.00    +0.138 C 
ATOM     27  C   UNL     1      38.110 -25.816 -12.595  0.00  0.00    +0.044 C 
ATOM     28  C   UNL     1      36.036 -25.076 -13.812  0.00  0.00    +0.044 C 
ATOM     29  C   UNL     1      37.343 -27.054 -14.641  0.00  0.00    +0.044 C 
ENDBRANCH  25  26
ENDBRANCH  23  25
ENDBRANCH  20  22
ENDBRANCH   7  20
TORSDOF 9
ENDMDL
MODEL 9
REMARK VINA RESULT:      -9.0      5.391     11.366
REMARK  Name = 24754814
REMARK  9 active torsions:
REMARK  status: ('A' for Active; 'I' for Inactive)
REMARK    1  A    between atoms: C_3  and  C_8
REMARK    2  A    between atoms: C_7  and  C_20
REMARK    3  A    between atoms: C_8  and  O_9
REMARK    4  A    between atoms: O_9  and  C_11
REMARK    5  A    between atoms: C_11  and  C_12
REMARK    6  A    between atoms: C_12  and  C_14
REMARK    7  A    between atoms: C_20  and  N_22
REMARK    8  A    between atoms: C_23  and  O_25
REMARK    9  A    between atoms: O_25  and  C_26
REMARK                            x       y       z     vdW  Elec       q    Type
REMARK                         _______ _______ _______ _____ _____    ______ ____
ROOT
ATOM      1  O   UNL     1      37.037 -21.201 -19.371  0.00  0.00    -0.273 OA
ATOM      2  N   UNL     1      34.866 -20.676 -19.974  0.00  0.00    -0.276 N 
ATOM      3  C   UNL     1      35.209 -19.858 -21.138  0.00  0.00    +0.119 C 
ATOM      4  C   UNL     1      33.886 -19.735 -21.899  0.00  0.00    +0.025 C 
ATOM      5  C   UNL     1      32.838 -19.779 -20.793  0.00  0.00    +0.023 C 
ATOM      6  C   UNL     1      33.418 -20.787 -19.813  0.00  0.00    +0.094 C 
ATOM      7  C   UNL     1      35.822 -21.320 -19.205  0.00  0.00    +0.246 C 
ENDROOT
BRANCH   3   8
ATOM      8  C   UNL     1      35.763 -18.497 -20.721  0.00  0.00    +0.228 C 
BRANCH   8   9
ATOM      9  O   UNL     1      35.180 -17.503 -21.542  0.00  0.00    -0.446 OA
BRANCH   9  11
ATOM     10  O   UNL     1      35.140 -15.812 -19.975  0.00  0.00    -0.250 OA
ATOM     11  C   UNL     1      34.617 -16.434 -20.890  0.00  0.00    +0.322 C 
BRANCH  11  12
ATOM     12  C   UNL     1      33.254 -16.150 -21.475  0.00  0.00    +0.136 C 
BRANCH  12  14
ATOM     13 CL   UNL     1      31.078 -11.415 -21.586  0.00  0.00    -0.082 Cl
ATOM     14  C   UNL     1      33.160 -14.790 -22.114  0.00  0.00    -0.010 C 
ATOM     15  C   UNL     1      32.267 -13.843 -21.614  0.00  0.00    +0.008 C 
ATOM     16  C   UNL     1      33.966 -14.477 -23.210  0.00  0.00    -0.004 C 
ATOM     17  C   UNL     1      32.179 -12.583 -22.206  0.00  0.00    +0.057 C 
ATOM     18  C   UNL     1      33.878 -13.216 -23.802  0.00  0.00    +0.001 C 
ATOM     19  C   UNL     1      32.986 -12.270 -23.300  0.00  0.00    +0.011 C 
ENDBRANCH  12  14
ENDBRANCH  11  12
ENDBRANCH   9  11
ENDBRANCH   8   9
ENDBRANCH   3   8
BRANCH   7  20
ATOM     20  C   UNL     1      35.288 -22.205 -18.108  0.00  0.00    +0.178 C 
BRANCH  20  22
ATOM     21  O   UNL     1      35.275 -22.448 -15.213  0.00  0.00    -0.226 OA
ATOM     22  N   UNL     1      36.396 -22.458 -17.249  0.00  0.00    -0.262 N 
ATOM     23  C   UNL     1      36.308 -22.561 -15.865  0.00  0.00    +0.402 C 
ATOM     24  H   UNL     1      37.283 -22.568 -17.662  0.00  0.00    +0.153 HD
BRANCH  23  25
ATOM     25  O   UNL     1      37.541 -22.808 -15.328  0.00  0.00    -0.442 OA
BRANCH  25  26
ATOM     26  C   UNL     1      37.685 -24.057 -14.645  0.00  0.00    +0.138 C 
ATOM     27  C   UNL     1      36.573 -24.998 -15.109  0.00  0.00    +0.044 C 
ATOM     28  C   UNL     1      39.061 -24.636 -14.975  0.00  0.00    +0.044 C 
ATOM     29  C   UNL     1      37.565 -23.780 -13.148  0.00  0.00    +0.044 C 
ENDBRANCH  25  26
ENDBRANCH  23  25
ENDBRANCH  20  22
ENDBRANCH   7  20
TORSDOF 9
ENDMDL
