MODEL 1
REMARK VINA RESULT:      -7.9      0.000      0.000
REMARK  Name = 46937061
REMARK  16 active torsions:
REMARK  status: ('A' for Active; 'I' for Inactive)
REMARK    1  A    between atoms: C_1  and  O_2
REMARK    2  A    between atoms: C_1  and  C_4
REMARK    3  A    between atoms: C_1  and  C_14
REMARK    4  A    between atoms: C_5  and  C_6
REMARK    5  A    between atoms: C_6  and  C_8
REMARK    6  A    between atoms: C_7  and  C_9
REMARK    7  A    between atoms: C_9  and  C_10
REMARK    8  A    between atoms: C_10  and  C_11
REMARK    9  A    between atoms: C_11  and  C_12
REMARK   10  A    between atoms: C_14  and  C_16
REMARK   11  A    between atoms: C_16  and  C_17
REMARK   12  A    between atoms: C_17  and  C_18
REMARK   13  A    between atoms: C_18  and  C_19
REMARK   14  A    between atoms: C_19  and  C_20
REMARK   15  A    between atoms: C_20  and  C_22
REMARK   16  A    between atoms: C_22  and  O_23
REMARK                            x       y       z     vdW  Elec       q    Type
REMARK                         _______ _______ _______ _____ _____    ______ ____
ROOT
ATOM      1  C   UNL     1      35.182 -23.551 -15.452  0.00  0.00    +0.140 C 
ENDROOT
BRANCH   1   2
ATOM      2  O   UNL     1      34.225 -22.659 -14.887  0.00  0.00    -0.380 OA
ATOM      3  H   UNL     1      33.522 -23.168 -14.455  0.00  0.00    +0.211 HD
ENDBRANCH   1   2
BRANCH   1   4
ATOM      4  C   UNL     1      36.483 -22.856 -15.762  0.00  0.00    -0.001 C 
ATOM      5  C   UNL     1      36.771 -22.174 -16.881  0.00  0.00    -0.024 C 
BRANCH   5   6
ATOM      6  C   UNL     1      35.808 -21.998 -18.020  0.00  0.00    +0.051 C 
BRANCH   6   8
ATOM      7  C   UNL     1      35.815 -20.712 -20.173  0.00  0.00    -0.030 C 
ATOM      8  C   UNL     1      36.477 -21.375 -19.212  0.00  0.00    -0.026 C 
BRANCH   7   9
ATOM      9  C   UNL     1      34.332 -20.463 -20.257  0.00  0.00    +0.026 C 
BRANCH   9  10
ATOM     10  C   UNL     1      33.855 -19.500 -21.349  0.00  0.00    +0.005 C 
BRANCH  10  11
ATOM     11  C   UNL     1      34.783 -18.296 -21.547  0.00  0.00    +0.000 C 
BRANCH  11  12
ATOM     12  C   UNL     1      35.206 -18.008 -22.989  0.00  0.00    +0.000 C 
ATOM     13  C   UNL     1      34.931 -19.158 -23.946  0.00  0.00    +0.000 C 
ENDBRANCH  11  12
ENDBRANCH  10  11
ENDBRANCH   9  10
ENDBRANCH   7   9
ENDBRANCH   6   8
ENDBRANCH   5   6
ENDBRANCH   1   4
BRANCH   1  14
ATOM     14  C   UNL     1      35.368 -24.754 -14.523  0.00  0.00    +0.098 C 
BRANCH  14  16
ATOM     15  O   UNL     1      34.099 -24.146 -12.576  0.00  0.00    -0.296 OA
ATOM     16  C   UNL     1      35.207 -24.392 -13.053  0.00  0.00    +0.153 C 
BRANCH  16  17
ATOM     17  C   UNL     1      36.482 -24.341 -12.227  0.00  0.00    +0.065 C 
BRANCH  17  18
ATOM     18  C   UNL     1      37.357 -25.577 -12.424  0.00  0.00    +0.008 C 
BRANCH  18  19
ATOM     19  C   UNL     1      38.730 -25.259 -13.019  0.00  0.00    +0.012 C 
BRANCH  19  20
ATOM     20  C   UNL     1      38.974 -25.931 -14.366  0.00  0.00    +0.109 C 
BRANCH  20  22
ATOM     21  O   UNL     1      41.072 -24.734 -14.399  0.00  0.00    -0.250 OA
ATOM     22  C   UNL     1      40.260 -25.442 -14.981  0.00  0.00    +0.314 C 
BRANCH  22  23
ATOM     23  O   UNL     1      40.432 -25.888 -16.251  0.00  0.00    -0.480 OA
ATOM     24  H   UNL     1      40.112 -25.383 -16.972  0.00  0.00    +0.295 HD
ENDBRANCH  22  23
ENDBRANCH  20  22
ENDBRANCH  19  20
ENDBRANCH  18  19
ENDBRANCH  17  18
ENDBRANCH  16  17
ENDBRANCH  14  16
ENDBRANCH   1  14
TORSDOF 16
ENDMDL
MODEL 2
REMARK VINA RESULT:      -7.9      4.110      6.648
REMARK  Name = 46937061
REMARK  16 active torsions:
REMARK  status: ('A' for Active; 'I' for Inactive)
REMARK    1  A    between atoms: C_1  and  O_2
REMARK    2  A    between atoms: C_1  and  C_4
REMARK    3  A    between atoms: C_1  and  C_14
REMARK    4  A    between atoms: C_5  and  C_6
REMARK    5  A    between atoms: C_6  and  C_8
REMARK    6  A    between atoms: C_7  and  C_9
REMARK    7  A    between atoms: C_9  and  C_10
REMARK    8  A    between atoms: C_10  and  C_11
REMARK    9  A    between atoms: C_11  and  C_12
REMARK   10  A    between atoms: C_14  and  C_16
REMARK   11  A    between atoms: C_16  and  C_17
REMARK   12  A    between atoms: C_17  and  C_18
REMARK   13  A    between atoms: C_18  and  C_19
REMARK   14  A    between atoms: C_19  and  C_20
REMARK   15  A    between atoms: C_20  and  C_22
REMARK   16  A    between atoms: C_22  and  O_23
REMARK                            x       y       z     vdW  Elec       q    Type
REMARK                         _______ _______ _______ _____ _____    ______ ____
ROOT
ATOM      1  C   UNL     1      33.723 -22.338 -18.776  0.00  0.00    +0.140 C 
ENDROOT
BRANCH   1   2
ATOM      2  O   UNL     1      34.001 -23.472 -19.594  0.00  0.00    -0.380 OA
ATOM      3  H   UNL     1      34.833 -23.880 -19.309  0.00  0.00    +0.211 HD
ENDBRANCH   1   2
BRANCH   1   4
ATOM      4  C   UNL     1      33.245 -21.163 -19.590  0.00  0.00    -0.001 C 
ATOM      5  C   UNL     1      33.995 -20.408 -20.408  0.00  0.00    -0.024 C 
BRANCH   5   6
ATOM      6  C   UNL     1      35.462 -20.633 -20.638  0.00  0.00    +0.051 C 
BRANCH   6   8
ATOM      7  C   UNL     1      36.313 -18.512 -21.669  0.00  0.00    -0.030 C 
ATOM      8  C   UNL     1      36.226 -19.340 -20.617  0.00  0.00    -0.026 C 
BRANCH   7   9
ATOM      9  C   UNL     1      35.694 -18.695 -23.030  0.00  0.00    +0.026 C 
BRANCH   9  10
ATOM     10  C   UNL     1      34.734 -17.598 -23.504  0.00  0.00    +0.005 C 
BRANCH  10  11
ATOM     11  C   UNL     1      34.993 -16.237 -22.848  0.00  0.00    +0.000 C 
BRANCH  11  12
ATOM     12  C   UNL     1      33.906 -15.737 -21.894  0.00  0.00    +0.000 C 
ATOM     13  C   UNL     1      34.434 -15.327 -20.528  0.00  0.00    +0.000 C 
ENDBRANCH  11  12
ENDBRANCH  10  11
ENDBRANCH   9  10
ENDBRANCH   7   9
ENDBRANCH   6   8
ENDBRANCH   5   6
ENDBRANCH   1   4
BRANCH   1  14
ATOM     14  C   UNL     1      32.728 -22.732 -17.680  0.00  0.00    +0.098 C 
BRANCH  14  16
ATOM     15  O   UNL     1      34.519 -23.868 -16.551  0.00  0.00    -0.296 OA
ATOM     16  C   UNL     1      33.406 -23.348 -16.465  0.00  0.00    +0.153 C 
BRANCH  16  17
ATOM     17  C   UNL     1      32.629 -23.296 -15.159  0.00  0.00    +0.065 C 
BRANCH  17  18
ATOM     18  C   UNL     1      31.336 -24.107 -15.216  0.00  0.00    +0.008 C 
BRANCH  18  19
ATOM     19  C   UNL     1      30.084 -23.272 -14.940  0.00  0.00    +0.012 C 
BRANCH  19  20
ATOM     20  C   UNL     1      28.815 -23.873 -15.533  0.00  0.00    +0.109 C 
BRANCH  20  22
ATOM     21  O   UNL     1      28.758 -22.003 -17.061  0.00  0.00    -0.250 OA
ATOM     22  C   UNL     1      28.421 -23.149 -16.795  0.00  0.00    +0.314 C 
BRANCH  22  23
ATOM     23  O   UNL     1      27.662 -23.916 -17.619  0.00  0.00    -0.480 OA
ATOM     24  H   UNL     1      27.823 -24.837 -17.681  0.00  0.00    +0.295 HD
ENDBRANCH  22  23
ENDBRANCH  20  22
ENDBRANCH  19  20
ENDBRANCH  18  19
ENDBRANCH  17  18
ENDBRANCH  16  17
ENDBRANCH  14  16
ENDBRANCH   1  14
TORSDOF 16
ENDMDL
MODEL 3
REMARK VINA RESULT:      -7.7      2.621      4.382
REMARK  Name = 46937061
REMARK  16 active torsions:
REMARK  status: ('A' for Active; 'I' for Inactive)
REMARK    1  A    between atoms: C_1  and  O_2
REMARK    2  A    between atoms: C_1  and  C_4
REMARK    3  A    between atoms: C_1  and  C_14
REMARK    4  A    between atoms: C_5  and  C_6
REMARK    5  A    between atoms: C_6  and  C_8
REMARK    6  A    between atoms: C_7  and  C_9
REMARK    7  A    between atoms: C_9  and  C_10
REMARK    8  A    between atoms: C_10  and  C_11
REMARK    9  A    between atoms: C_11  and  C_12
REMARK   10  A    between atoms: C_14  and  C_16
REMARK   11  A    between atoms: C_16  and  C_17
REMARK   12  A    between atoms: C_17  and  C_18
REMARK   13  A    between atoms: C_18  and  C_19
REMARK   14  A    between atoms: C_19  and  C_20
REMARK   15  A    between atoms: C_20  and  C_22
REMARK   16  A    between atoms: C_22  and  O_23
REMARK                            x       y       z     vdW  Elec       q    Type
REMARK                         _______ _______ _______ _____ _____    ______ ____
ROOT
ATOM      1  C   UNL     1      34.431 -22.386 -19.331  0.00  0.00    +0.140 C 
ENDROOT
BRANCH   1   2
ATOM      2  O   UNL     1      34.007 -23.704 -19.665  0.00  0.00    -0.380 OA
ATOM      3  H   UNL     1      33.158 -23.891 -19.236  0.00  0.00    +0.211 HD
ENDBRANCH   1   2
BRANCH   1   4
ATOM      4  C   UNL     1      33.357 -21.364 -19.605  0.00  0.00    -0.001 C 
ATOM      5  C   UNL     1      33.478 -20.275 -20.379  0.00  0.00    -0.024 C 
BRANCH   5   6
ATOM      6  C   UNL     1      34.740 -19.905 -21.106  0.00  0.00    +0.051 C 
BRANCH   6   8
ATOM      7  C   UNL     1      34.583 -17.684 -22.259  0.00  0.00    -0.030 C 
ATOM      8  C   UNL     1      34.454 -19.019 -22.285  0.00  0.00    -0.026 C 
BRANCH   7   9
ATOM      9  C   UNL     1      35.021 -16.830 -21.098  0.00  0.00    +0.026 C 
BRANCH   9  10
ATOM     10  C   UNL     1      34.091 -15.679 -20.697  0.00  0.00    +0.005 C 
BRANCH  10  11
ATOM     11  C   UNL     1      33.331 -15.071 -21.882  0.00  0.00    +0.000 C 
BRANCH  11  12
ATOM     12  C   UNL     1      34.127 -14.103 -22.760  0.00  0.00    +0.000 C 
ATOM     13  C   UNL     1      33.582 -13.974 -24.174  0.00  0.00    +0.000 C 
ENDBRANCH  11  12
ENDBRANCH  10  11
ENDBRANCH   9  10
ENDBRANCH   7   9
ENDBRANCH   6   8
ENDBRANCH   5   6
ENDBRANCH   1   4
BRANCH   1  14
ATOM     14  C   UNL     1      34.906 -22.357 -17.875  0.00  0.00    +0.098 C 
BRANCH  14  16
ATOM     15  O   UNL     1      36.721 -20.908 -18.492  0.00  0.00    -0.296 OA
ATOM     16  C   UNL     1      36.306 -21.777 -17.725  0.00  0.00    +0.153 C 
BRANCH  16  17
ATOM     17  C   UNL     1      37.151 -22.340 -16.594  0.00  0.00    +0.065 C 
BRANCH  17  18
ATOM     18  C   UNL     1      36.367 -23.297 -15.698  0.00  0.00    +0.008 C 
BRANCH  18  19
ATOM     19  C   UNL     1      37.262 -24.205 -14.852  0.00  0.00    +0.012 C 
BRANCH  19  20
ATOM     20  C   UNL     1      36.594 -25.520 -14.466  0.00  0.00    +0.109 C 
BRANCH  20  22
ATOM     21  O   UNL     1      38.330 -27.191 -14.624  0.00  0.00    -0.250 OA
ATOM     22  C   UNL     1      37.315 -26.688 -15.088  0.00  0.00    +0.314 C 
BRANCH  22  23
ATOM     23  O   UNL     1      36.704 -27.137 -16.213  0.00  0.00    -0.480 OA
ATOM     24  H   UNL     1      36.951 -26.794 -17.048  0.00  0.00    +0.295 HD
ENDBRANCH  22  23
ENDBRANCH  20  22
ENDBRANCH  19  20
ENDBRANCH  18  19
ENDBRANCH  17  18
ENDBRANCH  16  17
ENDBRANCH  14  16
ENDBRANCH   1  14
TORSDOF 16
ENDMDL
MODEL 4
REMARK VINA RESULT:      -7.6      2.303      3.912
REMARK  Name = 46937061
REMARK  16 active torsions:
REMARK  status: ('A' for Active; 'I' for Inactive)
REMARK    1  A    between atoms: C_1  and  O_2
REMARK    2  A    between atoms: C_1  and  C_4
REMARK    3  A    between atoms: C_1  and  C_14
REMARK    4  A    between atoms: C_5  and  C_6
REMARK    5  A    between atoms: C_6  and  C_8
REMARK    6  A    between atoms: C_7  and  C_9
REMARK    7  A    between atoms: C_9  and  C_10
REMARK    8  A    between atoms: C_10  and  C_11
REMARK    9  A    between atoms: C_11  and  C_12
REMARK   10  A    between atoms: C_14  and  C_16
REMARK   11  A    between atoms: C_16  and  C_17
REMARK   12  A    between atoms: C_17  and  C_18
REMARK   13  A    between atoms: C_18  and  C_19
REMARK   14  A    between atoms: C_19  and  C_20
REMARK   15  A    between atoms: C_20  and  C_22
REMARK   16  A    between atoms: C_22  and  O_23
REMARK                            x       y       z     vdW  Elec       q    Type
REMARK                         _______ _______ _______ _____ _____    ______ ____
ROOT
ATOM      1  C   UNL     1      33.974 -22.519 -18.911  0.00  0.00    +0.140 C 
ENDROOT
BRANCH   1   2
ATOM      2  O   UNL     1      34.095 -23.610 -19.820  0.00  0.00    -0.380 OA
ATOM      3  H   UNL     1      35.027 -23.731 -20.059  0.00  0.00    +0.211 HD
ENDBRANCH   1   2
BRANCH   1   4
ATOM      4  C   UNL     1      33.081 -21.433 -19.455  0.00  0.00    -0.001 C 
ATOM      5  C   UNL     1      33.458 -20.424 -20.255  0.00  0.00    -0.024 C 
BRANCH   5   6
ATOM      6  C   UNL     1      34.866 -20.226 -20.739  0.00  0.00    +0.051 C 
BRANCH   6   8
ATOM      7  C   UNL     1      35.144 -18.378 -22.412  0.00  0.00    -0.030 C 
ATOM      8  C   UNL     1      35.113 -18.799 -21.138  0.00  0.00    -0.026 C 
BRANCH   7   9
ATOM      9  C   UNL     1      34.947 -19.208 -23.653  0.00  0.00    +0.026 C 
BRANCH   9  10
ATOM     10  C   UNL     1      34.341 -18.498 -24.869  0.00  0.00    +0.005 C 
BRANCH  10  11
ATOM     11  C   UNL     1      34.878 -17.077 -25.074  0.00  0.00    +0.000 C 
BRANCH  11  12
ATOM     12  C   UNL     1      33.848 -15.950 -24.967  0.00  0.00    +0.000 C 
ATOM     13  C   UNL     1      34.109 -14.993 -23.815  0.00  0.00    +0.000 C 
ENDBRANCH  11  12
ENDBRANCH  10  11
ENDBRANCH   9  10
ENDBRANCH   7   9
ENDBRANCH   6   8
ENDBRANCH   5   6
ENDBRANCH   1   4
BRANCH   1  14
ATOM     14  C   UNL     1      33.499 -23.039 -17.552  0.00  0.00    +0.098 C 
BRANCH  14  16
ATOM     15  O   UNL     1      35.769 -22.776 -16.809  0.00  0.00    -0.296 OA
ATOM     16  C   UNL     1      34.609 -23.058 -16.510  0.00  0.00    +0.153 C 
BRANCH  16  17
ATOM     17  C   UNL     1      34.203 -23.454 -15.099  0.00  0.00    +0.065 C 
BRANCH  17  18
ATOM     18  C   UNL     1      35.375 -23.415 -14.121  0.00  0.00    +0.008 C 
BRANCH  18  19
ATOM     19  C   UNL     1      35.989 -24.791 -13.855  0.00  0.00    +0.012 C 
BRANCH  19  20
ATOM     20  C   UNL     1      37.190 -25.098 -14.742  0.00  0.00    +0.109 C 
BRANCH  20  22
ATOM     21  O   UNL     1      36.317 -27.004 -15.941  0.00  0.00    -0.250 OA
ATOM     22  C   UNL     1      37.167 -26.535 -15.195  0.00  0.00    +0.314 C 
BRANCH  22  23
ATOM     23  O   UNL     1      38.206 -27.254 -14.700  0.00  0.00    -0.480 OA
ATOM     24  H   UNL     1      38.619 -27.906 -15.231  0.00  0.00    +0.295 HD
ENDBRANCH  22  23
ENDBRANCH  20  22
ENDBRANCH  19  20
ENDBRANCH  18  19
ENDBRANCH  17  18
ENDBRANCH  16  17
ENDBRANCH  14  16
ENDBRANCH   1  14
TORSDOF 16
ENDMDL
MODEL 5
REMARK VINA RESULT:      -7.6      1.531      2.670
REMARK  Name = 46937061
REMARK  16 active torsions:
REMARK  status: ('A' for Active; 'I' for Inactive)
REMARK    1  A    between atoms: C_1  and  O_2
REMARK    2  A    between atoms: C_1  and  C_4
REMARK    3  A    between atoms: C_1  and  C_14
REMARK    4  A    between atoms: C_5  and  C_6
REMARK    5  A    between atoms: C_6  and  C_8
REMARK    6  A    between atoms: C_7  and  C_9
REMARK    7  A    between atoms: C_9  and  C_10
REMARK    8  A    between atoms: C_10  and  C_11
REMARK    9  A    between atoms: C_11  and  C_12
REMARK   10  A    between atoms: C_14  and  C_16
REMARK   11  A    between atoms: C_16  and  C_17
REMARK   12  A    between atoms: C_17  and  C_18
REMARK   13  A    between atoms: C_18  and  C_19
REMARK   14  A    between atoms: C_19  and  C_20
REMARK   15  A    between atoms: C_20  and  C_22
REMARK   16  A    between atoms: C_22  and  O_23
REMARK                            x       y       z     vdW  Elec       q    Type
REMARK                         _______ _______ _______ _____ _____    ______ ____
ROOT
ATOM      1  C   UNL     1      34.774 -23.996 -12.952  0.00  0.00    +0.140 C 
ENDROOT
BRANCH   1   2
ATOM      2  O   UNL     1      33.441 -23.534 -12.746  0.00  0.00    -0.380 OA
ATOM      3  H   UNL     1      32.817 -24.155 -13.151  0.00  0.00    +0.211 HD
ENDBRANCH   1   2
BRANCH   1   4
ATOM      4  C   UNL     1      35.518 -23.140 -13.945  0.00  0.00    -0.001 C 
ATOM      5  C   UNL     1      35.388 -23.181 -15.279  0.00  0.00    -0.024 C 
BRANCH   5   6
ATOM      6  C   UNL     1      34.455 -24.112 -15.999  0.00  0.00    +0.051 C 
BRANCH   6   8
ATOM      7  C   UNL     1      33.159 -22.821 -17.714  0.00  0.00    -0.030 C 
ATOM      8  C   UNL     1      33.238 -23.389 -16.501  0.00  0.00    -0.026 C 
BRANCH   7   9
ATOM      9  C   UNL     1      34.224 -22.788 -18.779  0.00  0.00    +0.026 C 
BRANCH   9  10
ATOM     10  C   UNL     1      34.333 -21.503 -19.607  0.00  0.00    +0.005 C 
BRANCH  10  11
ATOM     11  C   UNL     1      32.996 -20.771 -19.772  0.00  0.00    +0.000 C 
BRANCH  11  12
ATOM     12  C   UNL     1      32.975 -19.644 -20.807  0.00  0.00    +0.000 C 
ATOM     13  C   UNL     1      34.359 -19.167 -21.218  0.00  0.00    +0.000 C 
ENDBRANCH  11  12
ENDBRANCH  10  11
ENDBRANCH   9  10
ENDBRANCH   7   9
ENDBRANCH   6   8
ENDBRANCH   5   6
ENDBRANCH   1   4
BRANCH   1  14
ATOM     14  C   UNL     1      35.495 -24.089 -11.604  0.00  0.00    +0.098 C 
BRANCH  14  16
ATOM     15  O   UNL     1      37.238 -22.438 -11.515  0.00  0.00    -0.296 OA
ATOM     16  C   UNL     1      36.942 -23.622 -11.678  0.00  0.00    +0.153 C 
BRANCH  16  17
ATOM     17  C   UNL     1      37.981 -24.690 -11.975  0.00  0.00    +0.065 C 
BRANCH  17  18
ATOM     18  C   UNL     1      37.365 -25.956 -12.569  0.00  0.00    +0.008 C 
BRANCH  18  19
ATOM     19  C   UNL     1      37.896 -26.290 -13.964  0.00  0.00    +0.012 C 
BRANCH  19  20
ATOM     20  C   UNL     1      38.880 -25.256 -14.500  0.00  0.00    +0.109 C 
BRANCH  20  22
ATOM     21  O   UNL     1      40.972 -26.326 -13.941  0.00  0.00    -0.250 OA
ATOM     22  C   UNL     1      40.214 -25.892 -14.798  0.00  0.00    +0.314 C 
BRANCH  22  23
ATOM     23  O   UNL     1      40.477 -25.949 -16.128  0.00  0.00    -0.480 OA
ATOM     24  H   UNL     1      40.397 -26.763 -16.586  0.00  0.00    +0.295 HD
ENDBRANCH  22  23
ENDBRANCH  20  22
ENDBRANCH  19  20
ENDBRANCH  18  19
ENDBRANCH  17  18
ENDBRANCH  16  17
ENDBRANCH  14  16
ENDBRANCH   1  14
TORSDOF 16
ENDMDL
MODEL 6
REMARK VINA RESULT:      -7.6      5.883      9.577
REMARK  Name = 46937061
REMARK  16 active torsions:
REMARK  status: ('A' for Active; 'I' for Inactive)
REMARK    1  A    between atoms: C_1  and  O_2
REMARK    2  A    between atoms: C_1  and  C_4
REMARK    3  A    between atoms: C_1  and  C_14
REMARK    4  A    between atoms: C_5  and  C_6
REMARK    5  A    between atoms: C_6  and  C_8
REMARK    6  A    between atoms: C_7  and  C_9
REMARK    7  A    between atoms: C_9  and  C_10
REMARK    8  A    between atoms: C_10  and  C_11
REMARK    9  A    between atoms: C_11  and  C_12
REMARK   10  A    between atoms: C_14  and  C_16
REMARK   11  A    between atoms: C_16  and  C_17
REMARK   12  A    between atoms: C_17  and  C_18
REMARK   13  A    between atoms: C_18  and  C_19
REMARK   14  A    between atoms: C_19  and  C_20
REMARK   15  A    between atoms: C_20  and  C_22
REMARK   16  A    between atoms: C_22  and  O_23
REMARK                            x       y       z     vdW  Elec       q    Type
REMARK                         _______ _______ _______ _____ _____    ______ ____
ROOT
ATOM      1  C   UNL     1      34.464 -16.239 -21.558  0.00  0.00    +0.140 C 
ENDROOT
BRANCH   1   2
ATOM      2  O   UNL     1      34.990 -16.096 -20.241  0.00  0.00    -0.380 OA
ATOM      3  H   UNL     1      34.282 -15.824 -19.637  0.00  0.00    +0.211 HD
ENDBRANCH   1   2
BRANCH   1   4
ATOM      4  C   UNL     1      34.617 -14.974 -22.364  0.00  0.00    -0.001 C 
ATOM      5  C   UNL     1      33.694 -14.011 -22.509  0.00  0.00    -0.024 C 
BRANCH   5   6
ATOM      6  C   UNL     1      32.336 -14.055 -21.871  0.00  0.00    +0.051 C 
BRANCH   6   8
ATOM      7  C   UNL     1      31.757 -12.097 -20.414  0.00  0.00    -0.030 C 
ATOM      8  C   UNL     1      32.317 -13.307 -20.568  0.00  0.00    -0.026 C 
BRANCH   7   9
ATOM      9  C   UNL     1      31.061 -11.272 -21.464  0.00  0.00    +0.026 C 
BRANCH   9  10
ATOM     10  C   UNL     1      31.954 -10.434 -22.386  0.00  0.00    +0.005 C 
BRANCH  10  11
ATOM     11  C   UNL     1      31.904  -8.932 -22.081  0.00  0.00    +0.000 C 
BRANCH  11  12
ATOM     12  C   UNL     1      32.444  -8.511 -20.712  0.00  0.00    +0.000 C 
ATOM     13  C   UNL     1      32.192  -7.048 -20.381  0.00  0.00    +0.000 C 
ENDBRANCH  11  12
ENDBRANCH  10  11
ENDBRANCH   9  10
ENDBRANCH   7   9
ENDBRANCH   6   8
ENDBRANCH   5   6
ENDBRANCH   1   4
BRANCH   1  14
ATOM     14  C   UNL     1      35.114 -17.447 -22.239  0.00  0.00    +0.098 C 
BRANCH  14  16
ATOM     15  O   UNL     1      36.124 -18.655 -20.424  0.00  0.00    -0.296 OA
ATOM     16  C   UNL     1      35.263 -18.639 -21.304  0.00  0.00    +0.153 C 
BRANCH  16  17
ATOM     17  C   UNL     1      34.305 -19.797 -21.530  0.00  0.00    +0.065 C 
BRANCH  17  18
ATOM     18  C   UNL     1      33.311 -19.966 -20.383  0.00  0.00    +0.008 C 
BRANCH  18  19
ATOM     19  C   UNL     1      33.453 -21.302 -19.650  0.00  0.00    +0.012 C 
BRANCH  19  20
ATOM     20  C   UNL     1      34.827 -21.941 -19.821  0.00  0.00    +0.109 C 
BRANCH  20  22
ATOM     21  O   UNL     1      35.456 -22.560 -17.573  0.00  0.00    -0.250 OA
ATOM     22  C   UNL     1      35.626 -21.839 -18.547  0.00  0.00    +0.314 C 
BRANCH  22  23
ATOM     23  O   UNL     1      36.572 -20.868 -18.603  0.00  0.00    -0.480 OA
ATOM     24  H   UNL     1      36.476 -20.090 -18.090  0.00  0.00    +0.295 HD
ENDBRANCH  22  23
ENDBRANCH  20  22
ENDBRANCH  19  20
ENDBRANCH  18  19
ENDBRANCH  17  18
ENDBRANCH  16  17
ENDBRANCH  14  16
ENDBRANCH   1  14
TORSDOF 16
ENDMDL
MODEL 7
REMARK VINA RESULT:      -7.6     10.491     13.900
REMARK  Name = 46937061
REMARK  16 active torsions:
REMARK  status: ('A' for Active; 'I' for Inactive)
REMARK    1  A    between atoms: C_1  and  O_2
REMARK    2  A    between atoms: C_1  and  C_4
REMARK    3  A    between atoms: C_1  and  C_14
REMARK    4  A    between atoms: C_5  and  C_6
REMARK    5  A    between atoms: C_6  and  C_8
REMARK    6  A    between atoms: C_7  and  C_9
REMARK    7  A    between atoms: C_9  and  C_10
REMARK    8  A    between atoms: C_10  and  C_11
REMARK    9  A    between atoms: C_11  and  C_12
REMARK   10  A    between atoms: C_14  and  C_16
REMARK   11  A    between atoms: C_16  and  C_17
REMARK   12  A    between atoms: C_17  and  C_18
REMARK   13  A    between atoms: C_18  and  C_19
REMARK   14  A    between atoms: C_19  and  C_20
REMARK   15  A    between atoms: C_20  and  C_22
REMARK   16  A    between atoms: C_22  and  O_23
REMARK                            x       y       z     vdW  Elec       q    Type
REMARK                         _______ _______ _______ _____ _____    ______ ____
ROOT
ATOM      1  C   UNL     1      31.566 -11.507 -20.849  0.00  0.00    +0.140 C 
ENDROOT
BRANCH   1   2
ATOM      2  O   UNL     1      30.311 -11.603 -21.517  0.00  0.00    -0.380 OA
ATOM      3  H   UNL     1      30.193 -12.504 -21.855  0.00  0.00    +0.211 HD
ENDBRANCH   1   2
BRANCH   1   4
ATOM      4  C   UNL     1      31.510 -10.552 -19.684  0.00  0.00    -0.001 C 
ATOM      5  C   UNL     1      31.913  -9.272 -19.688  0.00  0.00    -0.024 C 
BRANCH   5   6
ATOM      6  C   UNL     1      32.497  -8.586 -20.889  0.00  0.00    +0.051 C 
BRANCH   6   8
ATOM      7  C   UNL     1      31.663  -6.351 -21.664  0.00  0.00    -0.030 C 
ATOM      8  C   UNL     1      32.359  -7.093 -20.789  0.00  0.00    -0.026 C 
BRANCH   7   9
ATOM      9  C   UNL     1      30.908  -6.834 -22.874  0.00  0.00    +0.026 C 
BRANCH   9  10
ATOM     10  C   UNL     1      31.727  -7.078 -24.147  0.00  0.00    +0.005 C 
BRANCH  10  11
ATOM     11  C   UNL     1      32.885  -6.089 -24.324  0.00  0.00    +0.000 C 
BRANCH  11  12
ATOM     12  C   UNL     1      34.249  -6.707 -24.640  0.00  0.00    +0.000 C 
ATOM     13  C   UNL     1      34.800  -7.573 -23.518  0.00  0.00    +0.000 C 
ENDBRANCH  11  12
ENDBRANCH  10  11
ENDBRANCH   9  10
ENDBRANCH   7   9
ENDBRANCH   6   8
ENDBRANCH   5   6
ENDBRANCH   1   4
BRANCH   1  14
ATOM     14  C   UNL     1      32.033 -12.906 -20.435  0.00  0.00    +0.098 C 
BRANCH  14  16
ATOM     15  O   UNL     1      32.198 -13.397 -22.781  0.00  0.00    -0.296 OA
ATOM     16  C   UNL     1      32.281 -13.819 -21.627  0.00  0.00    +0.153 C 
BRANCH  16  17
ATOM     17  C   UNL     1      32.618 -15.267 -21.309  0.00  0.00    +0.065 C 
BRANCH  17  18
ATOM     18  C   UNL     1      34.123 -15.507 -21.205  0.00  0.00    +0.008 C 
BRANCH  18  19
ATOM     19  C   UNL     1      34.848 -15.400 -22.548  0.00  0.00    +0.012 C 
BRANCH  19  20
ATOM     20  C   UNL     1      34.704 -16.647 -23.413  0.00  0.00    +0.109 C 
BRANCH  20  22
ATOM     21  O   UNL     1      34.743 -16.816 -25.822  0.00  0.00    -0.250 OA
ATOM     22  C   UNL     1      34.296 -16.279 -24.817  0.00  0.00    +0.314 C 
BRANCH  22  23
ATOM     23  O   UNL     1      33.361 -15.297 -24.846  0.00  0.00    -0.480 OA
ATOM     24  H   UNL     1      32.466 -15.497 -24.656  0.00  0.00    +0.295 HD
ENDBRANCH  22  23
ENDBRANCH  20  22
ENDBRANCH  19  20
ENDBRANCH  18  19
ENDBRANCH  17  18
ENDBRANCH  16  17
ENDBRANCH  14  16
ENDBRANCH   1  14
TORSDOF 16
ENDMDL
MODEL 8
REMARK VINA RESULT:      -7.6      1.679      2.445
REMARK  Name = 46937061
REMARK  16 active torsions:
REMARK  status: ('A' for Active; 'I' for Inactive)
REMARK    1  A    between atoms: C_1  and  O_2
REMARK    2  A    between atoms: C_1  and  C_4
REMARK    3  A    between atoms: C_1  and  C_14
REMARK    4  A    between atoms: C_5  and  C_6
REMARK    5  A    between atoms: C_6  and  C_8
REMARK    6  A    between atoms: C_7  and  C_9
REMARK    7  A    between atoms: C_9  and  C_10
REMARK    8  A    between atoms: C_10  and  C_11
REMARK    9  A    between atoms: C_11  and  C_12
REMARK   10  A    between atoms: C_14  and  C_16
REMARK   11  A    between atoms: C_16  and  C_17
REMARK   12  A    between atoms: C_17  and  C_18
REMARK   13  A    between atoms: C_18  and  C_19
REMARK   14  A    between atoms: C_19  and  C_20
REMARK   15  A    between atoms: C_20  and  C_22
REMARK   16  A    between atoms: C_22  and  O_23
REMARK                            x       y       z     vdW  Elec       q    Type
REMARK                         _______ _______ _______ _____ _____    ______ ____
ROOT
ATOM      1  C   UNL     1      35.151 -22.465 -16.738  0.00  0.00    +0.140 C 
ENDROOT
BRANCH   1   2
ATOM      2  O   UNL     1      36.477 -22.792 -17.146  0.00  0.00    -0.380 OA
ATOM      3  H   UNL     1      36.462 -23.605 -17.673  0.00  0.00    +0.211 HD
ENDBRANCH   1   2
BRANCH   1   4
ATOM      4  C   UNL     1      34.116 -23.140 -17.601  0.00  0.00    -0.001 C 
ATOM      5  C   UNL     1      33.712 -22.737 -18.815  0.00  0.00    -0.024 C 
BRANCH   5   6
ATOM      6  C   UNL     1      34.249 -21.519 -19.511  0.00  0.00    +0.051 C 
BRANCH   6   8
ATOM      7  C   UNL     1      33.293 -19.657 -20.892  0.00  0.00    -0.030 C 
ATOM      8  C   UNL     1      33.140 -20.611 -19.961  0.00  0.00    -0.026 C 
BRANCH   7   9
ATOM      9  C   UNL     1      34.549 -19.310 -21.647  0.00  0.00    +0.026 C 
BRANCH   9  10
ATOM     10  C   UNL     1      35.364 -18.122 -21.124  0.00  0.00    +0.005 C 
BRANCH  10  11
ATOM     11  C   UNL     1      34.946 -16.781 -21.737  0.00  0.00    +0.000 C 
BRANCH  11  12
ATOM     12  C   UNL     1      34.460 -15.717 -20.751  0.00  0.00    +0.000 C 
ATOM     13  C   UNL     1      32.956 -15.495 -20.786  0.00  0.00    +0.000 C 
ENDBRANCH  11  12
ENDBRANCH  10  11
ENDBRANCH   9  10
ENDBRANCH   7   9
ENDBRANCH   6   8
ENDBRANCH   5   6
ENDBRANCH   1   4
BRANCH   1  14
ATOM     14  C   UNL     1      34.979 -22.795 -15.252  0.00  0.00    +0.098 C 
BRANCH  14  16
ATOM     15  O   UNL     1      35.744 -25.069 -15.374  0.00  0.00    -0.296 OA
ATOM     16  C   UNL     1      35.829 -23.978 -14.811  0.00  0.00    +0.153 C 
BRANCH  16  17
ATOM     17  C   UNL     1      36.766 -23.735 -13.638  0.00  0.00    +0.065 C 
BRANCH  17  18
ATOM     18  C   UNL     1      37.071 -25.013 -12.860  0.00  0.00    +0.008 C 
BRANCH  18  19
ATOM     19  C   UNL     1      38.510 -25.501 -13.037  0.00  0.00    +0.012 C 
BRANCH  19  20
ATOM     20  C   UNL     1      38.821 -25.961 -14.457  0.00  0.00    +0.109 C 
BRANCH  20  22
ATOM     21  O   UNL     1      40.885 -24.728 -14.225  0.00  0.00    -0.250 OA
ATOM     22  C   UNL     1      40.183 -25.480 -14.888  0.00  0.00    +0.314 C 
BRANCH  22  23
ATOM     23  O   UNL     1      40.558 -25.988 -16.089  0.00  0.00    -0.480 OA
ATOM     24  H   UNL     1      40.013 -25.863 -16.841  0.00  0.00    +0.295 HD
ENDBRANCH  22  23
ENDBRANCH  20  22
ENDBRANCH  19  20
ENDBRANCH  18  19
ENDBRANCH  17  18
ENDBRANCH  16  17
ENDBRANCH  14  16
ENDBRANCH   1  14
TORSDOF 16
ENDMDL
MODEL 9
REMARK VINA RESULT:      -7.5      1.783      3.553
REMARK  Name = 46937061
REMARK  16 active torsions:
REMARK  status: ('A' for Active; 'I' for Inactive)
REMARK    1  A    between atoms: C_1  and  O_2
REMARK    2  A    between atoms: C_1  and  C_4
REMARK    3  A    between atoms: C_1  and  C_14
REMARK    4  A    between atoms: C_5  and  C_6
REMARK    5  A    between atoms: C_6  and  C_8
REMARK    6  A    between atoms: C_7  and  C_9
REMARK    7  A    between atoms: C_9  and  C_10
REMARK    8  A    between atoms: C_10  and  C_11
REMARK    9  A    between atoms: C_11  and  C_12
REMARK   10  A    between atoms: C_14  and  C_16
REMARK   11  A    between atoms: C_16  and  C_17
REMARK   12  A    between atoms: C_17  and  C_18
REMARK   13  A    between atoms: C_18  and  C_19
REMARK   14  A    between atoms: C_19  and  C_20
REMARK   15  A    between atoms: C_20  and  C_22
REMARK   16  A    between atoms: C_22  and  O_23
REMARK                            x       y       z     vdW  Elec       q    Type
REMARK                         _______ _______ _______ _____ _____    ______ ____
ROOT
ATOM      1  C   UNL     1      35.744 -24.934 -15.300  0.00  0.00    +0.140 C 
ENDROOT
BRANCH   1   2
ATOM      2  O   UNL     1      35.561 -26.124 -14.538  0.00  0.00    -0.380 OA
ATOM      3  H   UNL     1      36.346 -26.688 -14.625  0.00  0.00    +0.211 HD
ENDBRANCH   1   2
BRANCH   1   4
ATOM      4  C   UNL     1      34.703 -23.893 -14.972  0.00  0.00    -0.001 C 
ATOM      5  C   UNL     1      34.187 -22.993 -15.823  0.00  0.00    -0.024 C 
BRANCH   5   6
ATOM      6  C   UNL     1      34.583 -22.890 -17.268  0.00  0.00    +0.051 C 
BRANCH   6   8
ATOM      7  C   UNL     1      33.385 -21.913 -19.243  0.00  0.00    -0.030 C 
ATOM      8  C   UNL     1      33.385 -22.696 -18.153  0.00  0.00    -0.026 C 
BRANCH   7   9
ATOM      9  C   UNL     1      34.533 -21.103 -19.786  0.00  0.00    +0.026 C 
BRANCH   9  10
ATOM     10  C   UNL     1      34.173 -19.867 -20.619  0.00  0.00    +0.005 C 
BRANCH  10  11
ATOM     11  C   UNL     1      35.239 -19.502 -21.657  0.00  0.00    +0.000 C 
BRANCH  11  12
ATOM     12  C   UNL     1      34.770 -18.616 -22.814  0.00  0.00    +0.000 C 
ATOM     13  C   UNL     1      34.839 -19.299 -24.171  0.00  0.00    +0.000 C 
ENDBRANCH  11  12
ENDBRANCH  10  11
ENDBRANCH   9  10
ENDBRANCH   7   9
ENDBRANCH   6   8
ENDBRANCH   5   6
ENDBRANCH   1   4
BRANCH   1  14
ATOM     14  C   UNL     1      37.171 -24.415 -15.101  0.00  0.00    +0.098 C 
BRANCH  14  16
ATOM     15  O   UNL     1      38.173 -26.592 -15.260  0.00  0.00    -0.296 OA
ATOM     16  C   UNL     1      38.140 -25.509 -14.677  0.00  0.00    +0.153 C 
BRANCH  16  17
ATOM     17  C   UNL     1      39.043 -25.189 -13.496  0.00  0.00    +0.065 C 
BRANCH  17  18
ATOM     18  C   UNL     1      38.267 -25.054 -12.187  0.00  0.00    +0.008 C 
BRANCH  18  19
ATOM     19  C   UNL     1      37.997 -23.601 -11.791  0.00  0.00    +0.012 C 
BRANCH  19  20
ATOM     20  C   UNL     1      36.513 -23.254 -11.744  0.00  0.00    +0.109 C 
BRANCH  20  22
ATOM     21  O   UNL     1      35.875 -24.365  -9.696  0.00  0.00    -0.250 OA
ATOM     22  C   UNL     1      35.757 -24.256 -10.910  0.00  0.00    +0.314 C 
BRANCH  22  23
ATOM     23  O   UNL     1      34.910 -25.016 -11.650  0.00  0.00    -0.480 OA
ATOM     24  H   UNL     1      34.065 -24.685 -11.880  0.00  0.00    +0.295 HD
ENDBRANCH  22  23
ENDBRANCH  20  22
ENDBRANCH  19  20
ENDBRANCH  18  19
ENDBRANCH  17  18
ENDBRANCH  16  17
ENDBRANCH  14  16
ENDBRANCH   1  14
TORSDOF 16
ENDMDL
