MODEL 1
REMARK VINA RESULT:     -10.0      0.000      0.000
REMARK  Name = 24905143
REMARK  3 active torsions:
REMARK  status: ('A' for Active; 'I' for Inactive)
REMARK    1  A    between atoms: N_1  and  C_21
REMARK    2  A    between atoms: C_7  and  C_10
REMARK    3  A    between atoms: C_13  and  O_16
REMARK                            x       y       z     vdW  Elec       q    Type
REMARK                         _______ _______ _______ _____ _____    ______ ____
ROOT
ATOM      1  N   UNL     1      33.849 -15.706 -22.063  0.00  0.00    -0.200 N 
ATOM      2  N   UNL     1      34.032 -16.637 -21.108  0.00  0.00    -0.181 NA
ATOM      3  N   UNL     1      33.958 -15.479 -24.471  0.00  0.00    -0.232 NA
ATOM      4  N   UNL     1      34.599 -17.574 -25.546  0.00  0.00    -0.234 NA
ATOM      5  C   UNL     1      34.064 -16.173 -23.326  0.00  0.00    +0.137 C 
ATOM      6  C   UNL     1      34.414 -17.504 -23.187  0.00  0.00    +0.150 C 
ATOM      7  C   UNL     1      34.376 -17.729 -21.798  0.00  0.00    +0.090 C 
ATOM      8  C   UNL     1      34.687 -18.211 -24.354  0.00  0.00    +0.112 C 
ATOM      9  C   UNL     1      34.245 -16.266 -25.530  0.00  0.00    +0.252 C 
ATOM     10  N   UNL     1      35.050 -19.569 -24.316  0.00  0.00    -0.346 N 
ATOM     11  H   UNL     1      35.239 -20.051 -25.153  0.00  0.00    +0.143 HD
ATOM     12  H   UNL     1      35.114 -20.038 -23.453  0.00  0.00    +0.143 HD
ENDROOT
BRANCH   7  13
ATOM     13  C   UNL     1      34.658 -18.957 -21.101  0.00  0.00    +0.019 C 
ATOM     14  C   UNL     1      33.611 -19.791 -20.704  0.00  0.00    +0.038 C 
ATOM     15  C   UNL     1      35.977 -19.316 -20.825  0.00  0.00    +0.001 C 
ATOM     16  C   UNL     1      33.885 -20.982 -20.031  0.00  0.00    +0.134 C 
ATOM     17  C   UNL     1      36.251 -20.507 -20.152  0.00  0.00    +0.003 C 
ATOM     18  C   UNL     1      35.204 -21.340 -19.755  0.00  0.00    +0.037 C 
BRANCH  16  19
ATOM     19  O   UNL     1      32.864 -21.795 -19.644  0.00  0.00    -0.506 OA
ATOM     20  H   UNL     1      31.977 -21.551 -19.823  0.00  0.00    +0.292 HD
ENDBRANCH  16  19
ENDBRANCH   7  13
BRANCH   1  21
ATOM     21  C   UNL     1      33.461 -14.367 -21.688  0.00  0.00    +0.098 C 
ATOM     22  C   UNL     1      32.903 -14.322 -20.263  0.00  0.00    +0.024 C 
ATOM     23  C   UNL     1      32.464 -13.769 -22.684  0.00  0.00    +0.024 C 
ENDBRANCH   1  21
TORSDOF 3
ENDMDL
MODEL 2
REMARK VINA RESULT:      -9.3      7.123      9.834
REMARK  Name = 24905143
REMARK  3 active torsions:
REMARK  status: ('A' for Active; 'I' for Inactive)
REMARK    1  A    between atoms: N_1  and  C_21
REMARK    2  A    between atoms: C_7  and  C_10
REMARK    3  A    between atoms: C_13  and  O_16
REMARK                            x       y       z     vdW  Elec       q    Type
REMARK                         _______ _______ _______ _____ _____    ______ ____
ROOT
ATOM      1  N   UNL     1      34.694 -22.788 -17.168  0.00  0.00    -0.200 N 
ATOM      2  N   UNL     1      35.815 -23.118 -16.499  0.00  0.00    -0.181 NA
ATOM      3  N   UNL     1      32.290 -22.973 -16.957  0.00  0.00    -0.232 NA
ATOM      4  N   UNL     1      31.651 -24.112 -14.895  0.00  0.00    -0.234 NA
ATOM      5  C   UNL     1      33.549 -23.166 -16.533  0.00  0.00    +0.137 C 
ATOM      6  C   UNL     1      33.949 -23.790 -15.365  0.00  0.00    +0.150 C 
ATOM      7  C   UNL     1      35.355 -23.727 -15.402  0.00  0.00    +0.090 C 
ATOM      8  C   UNL     1      32.946 -24.272 -14.530  0.00  0.00    +0.112 C 
ATOM      9  C   UNL     1      31.407 -23.481 -16.069  0.00  0.00    +0.252 C 
ATOM     10  N   UNL     1      33.251 -24.920 -13.319  0.00  0.00    -0.346 N 
ATOM     11  H   UNL     1      32.526 -25.254 -12.744  0.00  0.00    +0.143 HD
ATOM     12  H   UNL     1      34.190 -25.038 -13.048  0.00  0.00    +0.143 HD
ENDROOT
BRANCH   7  13
ATOM     13  C   UNL     1      36.281 -24.233 -14.421  0.00  0.00    +0.019 C 
ATOM     14  C   UNL     1      36.844 -23.368 -13.482  0.00  0.00    +0.038 C 
ATOM     15  C   UNL     1      36.614 -25.587 -14.409  0.00  0.00    +0.001 C 
ATOM     16  C   UNL     1      37.739 -23.858 -12.531  0.00  0.00    +0.134 C 
ATOM     17  C   UNL     1      37.509 -26.077 -13.457  0.00  0.00    +0.003 C 
ATOM     18  C   UNL     1      38.071 -25.212 -12.518  0.00  0.00    +0.037 C 
BRANCH  16  19
ATOM     19  O   UNL     1      38.288 -23.014 -11.615  0.00  0.00    -0.506 OA
ATOM     20  H   UNL     1      38.472 -22.125 -11.847  0.00  0.00    +0.292 HD
ENDBRANCH  16  19
ENDBRANCH   7  13
BRANCH   1  21
ATOM     21  C   UNL     1      34.797 -22.097 -18.432  0.00  0.00    +0.098 C 
ATOM     22  C   UNL     1      34.267 -22.953 -19.585  0.00  0.00    +0.024 C 
ATOM     23  C   UNL     1      36.231 -21.638 -18.707  0.00  0.00    +0.024 C 
ENDBRANCH   1  21
TORSDOF 3
ENDMDL
MODEL 3
REMARK VINA RESULT:      -9.1      8.386     10.801
REMARK  Name = 24905143
REMARK  3 active torsions:
REMARK  status: ('A' for Active; 'I' for Inactive)
REMARK    1  A    between atoms: N_1  and  C_21
REMARK    2  A    between atoms: C_7  and  C_10
REMARK    3  A    between atoms: C_13  and  O_16
REMARK                            x       y       z     vdW  Elec       q    Type
REMARK                         _______ _______ _______ _____ _____    ______ ____
ROOT
ATOM      1  N   UNL     1      35.528 -23.987 -13.037  0.00  0.00    -0.200 N 
ATOM      2  N   UNL     1      34.200 -24.155 -12.892  0.00  0.00    -0.181 NA
ATOM      3  N   UNL     1      37.135 -23.314 -14.718  0.00  0.00    -0.232 NA
ATOM      4  N   UNL     1      36.051 -22.758 -16.832  0.00  0.00    -0.234 NA
ATOM      5  C   UNL     1      35.890 -23.566 -14.282  0.00  0.00    +0.137 C 
ATOM      6  C   UNL     1      34.716 -23.451 -15.004  0.00  0.00    +0.150 C 
ATOM      7  C   UNL     1      33.711 -23.827 -14.093  0.00  0.00    +0.090 C 
ATOM      8  C   UNL     1      34.824 -23.030 -16.325  0.00  0.00    +0.112 C 
ATOM      9  C   UNL     1      37.115 -22.915 -16.008  0.00  0.00    +0.252 C 
ATOM     10  N   UNL     1      33.687 -22.881 -17.140  0.00  0.00    -0.346 N 
ATOM     11  H   UNL     1      33.786 -22.581 -18.072  0.00  0.00    +0.143 HD
ATOM     12  H   UNL     1      32.793 -23.076 -16.777  0.00  0.00    +0.143 HD
ENDROOT
BRANCH   7  13
ATOM     13  C   UNL     1      32.291 -23.886 -14.328  0.00  0.00    +0.019 C 
ATOM     14  C   UNL     1      31.637 -25.118 -14.338  0.00  0.00    +0.038 C 
ATOM     15  C   UNL     1      31.570 -22.712 -14.544  0.00  0.00    +0.001 C 
ATOM     16  C   UNL     1      30.261 -25.175 -14.564  0.00  0.00    +0.134 C 
ATOM     17  C   UNL     1      30.195 -22.769 -14.769  0.00  0.00    +0.003 C 
ATOM     18  C   UNL     1      29.540 -24.001 -14.780  0.00  0.00    +0.037 C 
BRANCH  16  19
ATOM     19  O   UNL     1      29.622 -26.377 -14.575  0.00  0.00    -0.506 OA
ATOM     20  H   UNL     1      29.928 -27.075 -14.030  0.00  0.00    +0.292 HD
ENDBRANCH  16  19
ENDBRANCH   7  13
BRANCH   1  21
ATOM     21  C   UNL     1      36.405 -24.251 -11.921  0.00  0.00    +0.098 C 
ATOM     22  C   UNL     1      37.188 -25.551 -12.118  0.00  0.00    +0.024 C 
ATOM     23  C   UNL     1      35.640 -24.268 -10.596  0.00  0.00    +0.024 C 
ENDBRANCH   1  21
TORSDOF 3
ENDMDL
MODEL 4
REMARK VINA RESULT:      -8.9      7.183      9.681
REMARK  Name = 24905143
REMARK  3 active torsions:
REMARK  status: ('A' for Active; 'I' for Inactive)
REMARK    1  A    between atoms: N_1  and  C_21
REMARK    2  A    between atoms: C_7  and  C_10
REMARK    3  A    between atoms: C_13  and  O_16
REMARK                            x       y       z     vdW  Elec       q    Type
REMARK                         _______ _______ _______ _____ _____    ______ ____
ROOT
ATOM      1  N   UNL     1      34.894 -23.642 -14.494  0.00  0.00    -0.200 N 
ATOM      2  N   UNL     1      33.597 -23.911 -14.254  0.00  0.00    -0.181 NA
ATOM      3  N   UNL     1      36.316 -22.832 -16.278  0.00  0.00    -0.232 NA
ATOM      4  N   UNL     1      35.037 -22.333 -18.295  0.00  0.00    -0.234 NA
ATOM      5  C   UNL     1      35.129 -23.181 -15.755  0.00  0.00    +0.137 C 
ATOM      6  C   UNL     1      33.899 -23.145 -16.385  0.00  0.00    +0.150 C 
ATOM      7  C   UNL     1      32.996 -23.606 -15.408  0.00  0.00    +0.090 C 
ATOM      8  C   UNL     1      33.875 -22.701 -17.703  0.00  0.00    +0.112 C 
ATOM      9  C   UNL     1      36.169 -22.420 -17.556  0.00  0.00    +0.252 C 
ATOM     10  N   UNL     1      32.672 -22.628 -18.428  0.00  0.00    -0.346 N 
ATOM     11  H   UNL     1      32.677 -22.311 -19.360  0.00  0.00    +0.143 HD
ATOM     12  H   UNL     1      31.824 -22.893 -18.003  0.00  0.00    +0.143 HD
ENDROOT
BRANCH   7  13
ATOM     13  C   UNL     1      31.570 -23.768 -15.538  0.00  0.00    +0.019 C 
ATOM     14  C   UNL     1      30.815 -22.796 -16.195  0.00  0.00    +0.038 C 
ATOM     15  C   UNL     1      30.945 -24.897 -15.009  0.00  0.00    +0.001 C 
ATOM     16  C   UNL     1      29.435 -22.954 -16.323  0.00  0.00    +0.134 C 
ATOM     17  C   UNL     1      29.565 -25.054 -15.138  0.00  0.00    +0.003 C 
ATOM     18  C   UNL     1      28.810 -24.083 -15.795  0.00  0.00    +0.037 C 
BRANCH  16  19
ATOM     19  O   UNL     1      28.698 -22.005 -16.964  0.00  0.00    -0.506 OA
ATOM     20  H   UNL     1      29.066 -21.532 -17.684  0.00  0.00    +0.292 HD
ENDBRANCH  16  19
ENDBRANCH   7  13
BRANCH   1  21
ATOM     21  C   UNL     1      35.871 -23.854 -13.452  0.00  0.00    +0.098 C 
ATOM     22  C   UNL     1      36.638 -25.162 -13.658  0.00  0.00    +0.024 C 
ATOM     23  C   UNL     1      35.230 -23.809 -12.063  0.00  0.00    +0.024 C 
ENDBRANCH   1  21
TORSDOF 3
ENDMDL
MODEL 5
REMARK VINA RESULT:      -8.7      6.017      9.516
REMARK  Name = 24905143
REMARK  3 active torsions:
REMARK  status: ('A' for Active; 'I' for Inactive)
REMARK    1  A    between atoms: N_1  and  C_21
REMARK    2  A    between atoms: C_7  and  C_10
REMARK    3  A    between atoms: C_13  and  O_16
REMARK                            x       y       z     vdW  Elec       q    Type
REMARK                         _______ _______ _______ _____ _____    ______ ____
ROOT
ATOM      1  N   UNL     1      33.764 -11.208 -24.424  0.00  0.00    -0.200 N 
ATOM      2  N   UNL     1      33.561  -9.906 -24.145  0.00  0.00    -0.181 NA
ATOM      3  N   UNL     1      33.199 -13.396 -23.556  0.00  0.00    -0.232 NA
ATOM      4  N   UNL     1      31.834 -13.242 -21.540  0.00  0.00    -0.234 NA
ATOM      5  C   UNL     1      33.171 -12.054 -23.535  0.00  0.00    +0.137 C 
ATOM      6  C   UNL     1      32.535 -11.249 -22.607  0.00  0.00    +0.150 C 
ATOM      7  C   UNL     1      32.812  -9.937 -23.038  0.00  0.00    +0.090 C 
ATOM      8  C   UNL     1      31.847 -11.888 -21.580  0.00  0.00    +0.112 C 
ATOM      9  C   UNL     1      32.501 -13.902 -22.516  0.00  0.00    +0.252 C 
ATOM     10  N   UNL     1      31.168 -11.156 -20.589  0.00  0.00    -0.346 N 
ATOM     11  H   UNL     1      30.687 -11.628 -19.872  0.00  0.00    +0.143 HD
ATOM     12  H   UNL     1      31.173 -10.172 -20.614  0.00  0.00    +0.143 HD
ENDROOT
BRANCH   7  13
ATOM     13  C   UNL     1      32.386  -8.705 -22.427  0.00  0.00    +0.019 C 
ATOM     14  C   UNL     1      32.881  -8.340 -21.174  0.00  0.00    +0.038 C 
ATOM     15  C   UNL     1      31.480  -7.875 -23.087  0.00  0.00    +0.001 C 
ATOM     16  C   UNL     1      32.470  -7.145 -20.583  0.00  0.00    +0.134 C 
ATOM     17  C   UNL     1      31.069  -6.680 -22.496  0.00  0.00    +0.003 C 
ATOM     18  C   UNL     1      31.564  -6.315 -21.243  0.00  0.00    +0.037 C 
BRANCH  16  19
ATOM     19  O   UNL     1      32.952  -6.789 -19.361  0.00  0.00    -0.506 OA
ATOM     20  H   UNL     1      33.303  -7.441 -18.787  0.00  0.00    +0.292 HD
ENDBRANCH  16  19
ENDBRANCH   7  13
BRANCH   1  21
ATOM     21  C   UNL     1      34.548 -11.575 -25.579  0.00  0.00    +0.098 C 
ATOM     22  C   UNL     1      35.418 -10.411 -26.061  0.00  0.00    +0.024 C 
ATOM     23  C   UNL     1      33.668 -12.104 -26.713  0.00  0.00    +0.024 C 
ENDBRANCH   1  21
TORSDOF 3
ENDMDL
MODEL 6
REMARK VINA RESULT:      -8.7      2.731      4.752
REMARK  Name = 24905143
REMARK  3 active torsions:
REMARK  status: ('A' for Active; 'I' for Inactive)
REMARK    1  A    between atoms: N_1  and  C_21
REMARK    2  A    between atoms: C_7  and  C_10
REMARK    3  A    between atoms: C_13  and  O_16
REMARK                            x       y       z     vdW  Elec       q    Type
REMARK                         _______ _______ _______ _____ _____    ______ ____
ROOT
ATOM      1  N   UNL     1      33.485 -13.200 -24.689  0.00  0.00    -0.200 N 
ATOM      2  N   UNL     1      34.067 -14.380 -24.975  0.00  0.00    -0.181 NA
ATOM      3  N   UNL     1      32.316 -12.105 -22.873  0.00  0.00    -0.232 NA
ATOM      4  N   UNL     1      32.102 -13.564 -20.929  0.00  0.00    -0.234 NA
ATOM      5  C   UNL     1      32.954 -13.145 -23.434  0.00  0.00    +0.137 C 
ATOM      6  C   UNL     1      33.206 -14.377 -22.859  0.00  0.00    +0.150 C 
ATOM      7  C   UNL     1      33.894 -15.093 -23.857  0.00  0.00    +0.090 C 
ATOM      8  C   UNL     1      32.754 -14.572 -21.557  0.00  0.00    +0.112 C 
ATOM      9  C   UNL     1      31.927 -12.410 -21.616  0.00  0.00    +0.252 C 
ATOM     10  N   UNL     1      32.963 -15.790 -20.885  0.00  0.00    -0.346 N 
ATOM     11  H   UNL     1      32.635 -15.906 -19.965  0.00  0.00    +0.143 HD
ATOM     12  H   UNL     1      33.437 -16.525 -21.336  0.00  0.00    +0.143 HD
ENDROOT
BRANCH   7  13
ATOM     13  C   UNL     1      34.395 -16.441 -23.782  0.00  0.00    +0.019 C 
ATOM     14  C   UNL     1      35.181 -16.833 -22.699  0.00  0.00    +0.038 C 
ATOM     15  C   UNL     1      34.092 -17.355 -24.791  0.00  0.00    +0.001 C 
ATOM     16  C   UNL     1      35.665 -18.140 -22.625  0.00  0.00    +0.134 C 
ATOM     17  C   UNL     1      34.575 -18.662 -24.717  0.00  0.00    +0.003 C 
ATOM     18  C   UNL     1      35.362 -19.054 -23.633  0.00  0.00    +0.037 C 
BRANCH  16  19
ATOM     19  O   UNL     1      36.433 -18.523 -21.568  0.00  0.00    -0.506 OA
ATOM     20  H   UNL     1      36.492 -17.977 -20.809  0.00  0.00    +0.292 HD
ENDBRANCH  16  19
ENDBRANCH   7  13
BRANCH   1  21
ATOM     21  C   UNL     1      33.475 -12.152 -25.681  0.00  0.00    +0.098 C 
ATOM     22  C   UNL     1      33.533 -12.721 -27.100  0.00  0.00    +0.024 C 
ATOM     23  C   UNL     1      34.605 -11.146 -25.449  0.00  0.00    +0.024 C 
ENDBRANCH   1  21
TORSDOF 3
ENDMDL
MODEL 7
REMARK VINA RESULT:      -8.7      3.072      4.656
REMARK  Name = 24905143
REMARK  3 active torsions:
REMARK  status: ('A' for Active; 'I' for Inactive)
REMARK    1  A    between atoms: N_1  and  C_21
REMARK    2  A    between atoms: C_7  and  C_10
REMARK    3  A    between atoms: C_13  and  O_16
REMARK                            x       y       z     vdW  Elec       q    Type
REMARK                         _______ _______ _______ _____ _____    ______ ____
ROOT
ATOM      1  N   UNL     1      33.569 -11.777 -24.313  0.00  0.00    -0.200 N 
ATOM      2  N   UNL     1      33.571 -12.444 -23.144  0.00  0.00    -0.181 NA
ATOM      3  N   UNL     1      33.544 -12.216 -26.694  0.00  0.00    -0.232 NA
ATOM      4  N   UNL     1      33.516 -14.608 -27.170  0.00  0.00    -0.234 NA
ATOM      5  C   UNL     1      33.551 -12.593 -25.405  0.00  0.00    +0.137 C 
ATOM      6  C   UNL     1      33.542 -13.886 -24.916  0.00  0.00    +0.150 C 
ATOM      7  C   UNL     1      33.555 -13.728 -23.517  0.00  0.00    +0.090 C 
ATOM      8  C   UNL     1      33.524 -14.916 -25.851  0.00  0.00    +0.112 C 
ATOM      9  C   UNL     1      33.526 -13.296 -27.504  0.00  0.00    +0.252 C 
ATOM     10  N   UNL     1      33.512 -16.265 -25.451  0.00  0.00    -0.346 N 
ATOM     11  H   UNL     1      33.499 -16.979 -26.129  0.00  0.00    +0.143 HD
ATOM     12  H   UNL     1      33.516 -16.495 -24.494  0.00  0.00    +0.143 HD
ENDROOT
BRANCH   7  13
ATOM     13  C   UNL     1      33.552 -14.765 -22.517  0.00  0.00    +0.019 C 
ATOM     14  C   UNL     1      34.617 -15.664 -22.442  0.00  0.00    +0.038 C 
ATOM     15  C   UNL     1      32.488 -14.868 -21.622  0.00  0.00    +0.001 C 
ATOM     16  C   UNL     1      34.616 -16.666 -21.472  0.00  0.00    +0.134 C 
ATOM     17  C   UNL     1      32.487 -15.871 -20.652  0.00  0.00    +0.003 C 
ATOM     18  C   UNL     1      33.551 -16.770 -20.577  0.00  0.00    +0.037 C 
BRANCH  16  19
ATOM     19  O   UNL     1      35.653 -17.544 -21.399  0.00  0.00    -0.506 OA
ATOM     20  H   UNL     1      35.712 -18.143 -20.681  0.00  0.00    +0.292 HD
ENDBRANCH  16  19
ENDBRANCH   7  13
BRANCH   1  21
ATOM     21  C   UNL     1      33.583 -10.333 -24.309  0.00  0.00    +0.098 C 
ATOM     22  C   UNL     1      35.007  -9.785 -24.417  0.00  0.00    +0.024 C 
ATOM     23  C   UNL     1      32.871  -9.766 -23.078  0.00  0.00    +0.024 C 
ENDBRANCH   1  21
TORSDOF 3
ENDMDL
MODEL 8
REMARK VINA RESULT:      -8.6      4.323      7.500
REMARK  Name = 24905143
REMARK  3 active torsions:
REMARK  status: ('A' for Active; 'I' for Inactive)
REMARK    1  A    between atoms: N_1  and  C_21
REMARK    2  A    between atoms: C_7  and  C_10
REMARK    3  A    between atoms: C_13  and  O_16
REMARK                            x       y       z     vdW  Elec       q    Type
REMARK                         _______ _______ _______ _____ _____    ______ ____
ROOT
ATOM      1  N   UNL     1      33.444 -14.524 -22.764  0.00  0.00    -0.200 N 
ATOM      2  N   UNL     1      33.475 -13.218 -22.440  0.00  0.00    -0.181 NA
ATOM      3  N   UNL     1      33.428 -15.944 -24.724  0.00  0.00    -0.232 NA
ATOM      4  N   UNL     1      33.482 -14.639 -26.785  0.00  0.00    -0.234 NA
ATOM      5  C   UNL     1      33.452 -14.751 -24.108  0.00  0.00    +0.137 C 
ATOM      6  C   UNL     1      33.490 -13.505 -24.706  0.00  0.00    +0.150 C 
ATOM      7  C   UNL     1      33.502 -12.602 -23.626  0.00  0.00    +0.090 C 
ATOM      8  C   UNL     1      33.504 -13.471 -26.097  0.00  0.00    +0.112 C 
ATOM      9  C   UNL     1      33.446 -15.786 -26.065  0.00  0.00    +0.252 C 
ATOM     10  N   UNL     1      33.544 -12.252 -26.798  0.00  0.00    -0.346 N 
ATOM     11  H   UNL     1      33.554 -12.251 -27.782  0.00  0.00    +0.143 HD
ATOM     12  H   UNL     1      33.561 -11.401 -26.304  0.00  0.00    +0.143 HD
ENDROOT
BRANCH   7  13
ATOM     13  C   UNL     1      33.539 -11.164 -23.686  0.00  0.00    +0.019 C 
ATOM     14  C   UNL     1      32.458 -10.418 -23.216  0.00  0.00    +0.038 C 
ATOM     15  C   UNL     1      34.657 -10.516 -24.212  0.00  0.00    +0.001 C 
ATOM     16  C   UNL     1      32.495  -9.024 -23.272  0.00  0.00    +0.134 C 
ATOM     17  C   UNL     1      34.694  -9.122 -24.268  0.00  0.00    +0.003 C 
ATOM     18  C   UNL     1      33.612  -8.377 -23.798  0.00  0.00    +0.037 C 
BRANCH  16  19
ATOM     19  O   UNL     1      31.440  -8.296 -22.814  0.00  0.00    -0.506 OA
ATOM     20  H   UNL     1      30.564  -8.589 -22.974  0.00  0.00    +0.292 HD
ENDBRANCH  16  19
ENDBRANCH   7  13
BRANCH   1  21
ATOM     21  C   UNL     1      33.409 -15.517 -21.716  0.00  0.00    +0.098 C 
ATOM     22  C   UNL     1      32.739 -14.976 -20.451  0.00  0.00    +0.024 C 
ATOM     23  C   UNL     1      34.807 -16.058 -21.405  0.00  0.00    +0.024 C 
ENDBRANCH   1  21
TORSDOF 3
ENDMDL
MODEL 9
REMARK VINA RESULT:      -8.5      6.062      9.511
REMARK  Name = 24905143
REMARK  3 active torsions:
REMARK  status: ('A' for Active; 'I' for Inactive)
REMARK    1  A    between atoms: N_1  and  C_21
REMARK    2  A    between atoms: C_7  and  C_10
REMARK    3  A    between atoms: C_13  and  O_16
REMARK                            x       y       z     vdW  Elec       q    Type
REMARK                         _______ _______ _______ _____ _____    ______ ____
ROOT
ATOM      1  N   UNL     1      35.155 -24.271 -15.101  0.00  0.00    -0.200 N 
ATOM      2  N   UNL     1      35.633 -23.610 -16.172  0.00  0.00    -0.181 NA
ATOM      3  N   UNL     1      33.044 -24.769 -14.026  0.00  0.00    -0.232 NA
ATOM      4  N   UNL     1      31.164 -23.780 -15.226  0.00  0.00    -0.234 NA
ATOM      5  C   UNL     1      33.798 -24.209 -14.985  0.00  0.00    +0.137 C 
ATOM      6  C   UNL     1      33.357 -23.453 -16.056  0.00  0.00    +0.150 C 
ATOM      7  C   UNL     1      34.534 -23.114 -16.750  0.00  0.00    +0.090 C 
ATOM      8  C   UNL     1      31.985 -23.243 -16.160  0.00  0.00    +0.112 C 
ATOM      9  C   UNL     1      31.736 -24.499 -14.231  0.00  0.00    +0.252 C 
ATOM     10  N   UNL     1      31.440 -22.489 -17.215  0.00  0.00    -0.346 N 
ATOM     11  H   UNL     1      30.466 -22.353 -17.270  0.00  0.00    +0.143 HD
ATOM     12  H   UNL     1      32.031 -22.098 -17.898  0.00  0.00    +0.143 HD
ENDROOT
BRANCH   7  13
ATOM     13  C   UNL     1      34.649 -22.328 -17.951  0.00  0.00    +0.019 C 
ATOM     14  C   UNL     1      33.512 -22.039 -18.706  0.00  0.00    +0.038 C 
ATOM     15  C   UNL     1      35.895 -21.854 -18.359  0.00  0.00    +0.001 C 
ATOM     16  C   UNL     1      33.622 -21.276 -19.869  0.00  0.00    +0.134 C 
ATOM     17  C   UNL     1      36.005 -21.091 -19.522  0.00  0.00    +0.003 C 
ATOM     18  C   UNL     1      34.868 -20.802 -20.277  0.00  0.00    +0.037 C 
BRANCH  16  19
ATOM     19  O   UNL     1      32.513 -20.994 -20.606  0.00  0.00    -0.506 OA
ATOM     20  H   UNL     1      32.576 -20.430 -21.351  0.00  0.00    +0.292 HD
ENDBRANCH  16  19
ENDBRANCH   7  13
BRANCH   1  21
ATOM     21  C   UNL     1      36.071 -24.952 -14.217  0.00  0.00    +0.098 C 
ATOM     22  C   UNL     1      37.095 -23.987 -13.617  0.00  0.00    +0.024 C 
ATOM     23  C   UNL     1      36.766 -26.121 -14.919  0.00  0.00    +0.024 C 
ENDBRANCH   1  21
TORSDOF 3
ENDMDL
