MODEL 1
REMARK VINA RESULT:      -8.2      0.000      0.000
REMARK  Name = 11531308
REMARK  8 active torsions:
REMARK  status: ('A' for Active; 'I' for Inactive)
REMARK    1  A    between atoms: C_4  and  C_8
REMARK    2  A    between atoms: C_5  and  C_16
REMARK    3  A    between atoms: C_6  and  C_25
REMARK    4  A    between atoms: C_7  and  C_29
REMARK    5  A    between atoms: C_13  and  O_14
REMARK    6  A    between atoms: C_21  and  O_22
REMARK    7  A    between atoms: C_25  and  O_26
REMARK    8  A    between atoms: C_29  and  O_30
REMARK                            x       y       z     vdW  Elec       q    Type
REMARK                         _______ _______ _______ _____ _____    ______ ____
ROOT
ATOM      1  O   UNL     1      30.667 -10.012 -22.920  0.00  0.00    -0.341 OA
ATOM      2  C   UNL     1      31.351 -10.652 -21.794  0.00  0.00    +0.166 C 
ATOM      3  C   UNL     1      31.876  -9.420 -23.500  0.00  0.00    +0.166 C 
ATOM      4  C   UNL     1      32.366 -11.460 -22.582  0.00  0.00    +0.008 C 
ATOM      5  C   UNL     1      32.676 -10.702 -23.663  0.00  0.00    +0.008 C 
ATOM      6  C   UNL     1      32.016  -9.423 -21.226  0.00  0.00    +0.089 C 
ATOM      7  C   UNL     1      32.342  -8.662 -22.282  0.00  0.00    +0.089 C 
ENDROOT
BRANCH   4   8
ATOM      8  C   UNL     1      32.845 -12.768 -22.136  0.00  0.00    -0.001 C 
ATOM      9  C   UNL     1      33.846 -13.440 -22.852  0.00  0.00    +0.003 C 
ATOM     10  C   UNL     1      32.308 -13.369 -20.990  0.00  0.00    +0.003 C 
ATOM     11  C   UNL     1      34.302 -14.687 -22.427  0.00  0.00    +0.037 C 
ATOM     12  C   UNL     1      32.764 -14.617 -20.565  0.00  0.00    +0.037 C 
ATOM     13  C   UNL     1      33.761 -15.277 -21.284  0.00  0.00    +0.134 C 
BRANCH  13  14
ATOM     14  O   UNL     1      34.206 -16.494 -20.870  0.00  0.00    -0.506 OA
ATOM     15  H   UNL     1      33.810 -16.911 -20.131  0.00  0.00    +0.292 HD
ENDBRANCH  13  14
ENDBRANCH   4   8
BRANCH   5  16
ATOM     16  C   UNL     1      33.565 -10.931 -24.802  0.00  0.00    -0.001 C 
ATOM     17  C   UNL     1      34.754 -10.201 -24.934  0.00  0.00    +0.003 C 
ATOM     18  C   UNL     1      33.239 -11.882 -25.778  0.00  0.00    +0.003 C 
ATOM     19  C   UNL     1      35.602 -10.420 -26.020  0.00  0.00    +0.037 C 
ATOM     20  C   UNL     1      34.086 -12.100 -26.865  0.00  0.00    +0.037 C 
ATOM     21  C   UNL     1      35.267 -11.369 -26.986  0.00  0.00    +0.134 C 
BRANCH  21  22
ATOM     22  O   UNL     1      36.094 -11.580 -28.047  0.00  0.00    -0.506 OA
ATOM     23  H   UNL     1      36.901 -11.108 -28.114  0.00  0.00    +0.292 HD
ENDBRANCH  21  22
ENDBRANCH   5  16
BRANCH   6  25
ATOM     24  O   UNL     1      32.233  -8.059 -19.301  0.00  0.00    -0.245 OA
ATOM     25  C   UNL     1      32.232  -9.176 -19.815  0.00  0.00    +0.340 C 
BRANCH  25  26
ATOM     26  O   UNL     1      32.428 -10.362 -19.174  0.00  0.00    -0.441 OA
ATOM     27  C   UNL     1      31.321 -10.852 -18.409  0.00  0.00    +0.256 C 
ENDBRANCH  25  26
ENDBRANCH   6  25
BRANCH   7  29
ATOM     28  O   UNL     1      32.461  -6.313 -21.996  0.00  0.00    -0.245 OA
ATOM     29  C   UNL     1      33.001  -7.372 -22.311  0.00  0.00    +0.340 C 
BRANCH  29  30
ATOM     30  O   UNL     1      34.285  -7.530 -22.735  0.00  0.00    -0.441 OA
ATOM     31  C   UNL     1      34.593  -6.986 -24.024  0.00  0.00    +0.256 C 
ENDBRANCH  29  30
ENDBRANCH   7  29
TORSDOF 8
ENDMDL
MODEL 2
REMARK VINA RESULT:      -8.1     11.821     16.022
REMARK  Name = 11531308
REMARK  8 active torsions:
REMARK  status: ('A' for Active; 'I' for Inactive)
REMARK    1  A    between atoms: C_4  and  C_8
REMARK    2  A    between atoms: C_5  and  C_16
REMARK    3  A    between atoms: C_6  and  C_25
REMARK    4  A    between atoms: C_7  and  C_29
REMARK    5  A    between atoms: C_13  and  O_14
REMARK    6  A    between atoms: C_21  and  O_22
REMARK    7  A    between atoms: C_25  and  O_26
REMARK    8  A    between atoms: C_29  and  O_30
REMARK                            x       y       z     vdW  Elec       q    Type
REMARK                         _______ _______ _______ _____ _____    ______ ____
ROOT
ATOM      1  O   UNL     1      37.096 -22.592 -13.273  0.00  0.00    -0.341 OA
ATOM      2  C   UNL     1      36.167 -23.719 -13.167  0.00  0.00    +0.166 C 
ATOM      3  C   UNL     1      37.559 -22.918 -14.625  0.00  0.00    +0.166 C 
ATOM      4  C   UNL     1      35.340 -23.442 -14.409  0.00  0.00    +0.008 C 
ATOM      5  C   UNL     1      36.204 -22.916 -15.313  0.00  0.00    +0.008 C 
ATOM      6  C   UNL     1      37.148 -24.828 -13.453  0.00  0.00    +0.089 C 
ATOM      7  C   UNL     1      38.008 -24.333 -14.356  0.00  0.00    +0.089 C 
ENDROOT
BRANCH   4   8
ATOM      8  C   UNL     1      33.913 -23.750 -14.487  0.00  0.00    -0.001 C 
ATOM      9  C   UNL     1      33.051 -22.941 -15.240  0.00  0.00    +0.003 C 
ATOM     10  C   UNL     1      33.386 -24.857 -13.808  0.00  0.00    +0.003 C 
ATOM     11  C   UNL     1      31.690 -23.235 -15.314  0.00  0.00    +0.037 C 
ATOM     12  C   UNL     1      32.025 -25.152 -13.882  0.00  0.00    +0.037 C 
ATOM     13  C   UNL     1      31.176 -24.339 -14.635  0.00  0.00    +0.134 C 
BRANCH  13  14
ATOM     14  O   UNL     1      29.848 -24.626 -14.707  0.00  0.00    -0.506 OA
ATOM     15  H   UNL     1      29.243 -23.972 -14.995  0.00  0.00    +0.292 HD
ENDBRANCH  13  14
ENDBRANCH   4   8
BRANCH   5  16
ATOM     16  C   UNL     1      36.020 -22.424 -16.678  0.00  0.00    -0.001 C 
ATOM     17  C   UNL     1      36.985 -21.602 -17.275  0.00  0.00    +0.003 C 
ATOM     18  C   UNL     1      34.873 -22.767 -17.408  0.00  0.00    +0.003 C 
ATOM     19  C   UNL     1      36.808 -21.133 -18.577  0.00  0.00    +0.037 C 
ATOM     20  C   UNL     1      34.695 -22.297 -18.709  0.00  0.00    +0.037 C 
ATOM     21  C   UNL     1      35.662 -21.481 -19.294  0.00  0.00    +0.134 C 
BRANCH  21  22
ATOM     22  O   UNL     1      35.490 -21.021 -20.564  0.00  0.00    -0.506 OA
ATOM     23  H   UNL     1      34.767 -21.324 -21.078  0.00  0.00    +0.292 HD
ENDBRANCH  21  22
ENDBRANCH   5  16
BRANCH   6  25
ATOM     24  O   UNL     1      36.944 -26.344 -11.643  0.00  0.00    -0.245 OA
ATOM     25  C   UNL     1      37.113 -26.142 -12.843  0.00  0.00    +0.340 C 
BRANCH  25  26
ATOM     26  O   UNL     1      37.295 -27.090 -13.806  0.00  0.00    -0.441 OA
ATOM     27  C   UNL     1      36.405 -27.027 -14.925  0.00  0.00    +0.256 C 
ENDBRANCH  25  26
ENDBRANCH   6  25
BRANCH   7  29
ATOM     28  O   UNL     1      39.166 -25.387 -16.135  0.00  0.00    -0.245 OA
ATOM     29  C   UNL     1      39.151 -24.972 -14.978  0.00  0.00    +0.340 C 
BRANCH  29  30
ATOM     30  O   UNL     1      40.176 -25.030 -14.084  0.00  0.00    -0.441 OA
ATOM     31  C   UNL     1      40.864 -26.283 -13.998  0.00  0.00    +0.256 C 
ENDBRANCH  29  30
ENDBRANCH   7  29
TORSDOF 8
ENDMDL
MODEL 3
REMARK VINA RESULT:      -6.6      9.655     14.436
REMARK  Name = 11531308
REMARK  8 active torsions:
REMARK  status: ('A' for Active; 'I' for Inactive)
REMARK    1  A    between atoms: C_4  and  C_8
REMARK    2  A    between atoms: C_5  and  C_16
REMARK    3  A    between atoms: C_6  and  C_25
REMARK    4  A    between atoms: C_7  and  C_29
REMARK    5  A    between atoms: C_13  and  O_14
REMARK    6  A    between atoms: C_21  and  O_22
REMARK    7  A    between atoms: C_25  and  O_26
REMARK    8  A    between atoms: C_29  and  O_30
REMARK                            x       y       z     vdW  Elec       q    Type
REMARK                         _______ _______ _______ _____ _____    ______ ____
ROOT
ATOM      1  O   UNL     1      33.824 -24.262 -18.593  0.00  0.00    -0.341 OA
ATOM      2  C   UNL     1      32.828 -23.190 -18.527  0.00  0.00    +0.166 C 
ATOM      3  C   UNL     1      34.758 -23.643 -17.648  0.00  0.00    +0.166 C 
ATOM      4  C   UNL     1      32.601 -23.190 -17.026  0.00  0.00    +0.008 C 
ATOM      5  C   UNL     1      33.802 -23.499 -16.476  0.00  0.00    +0.008 C 
ATOM      6  C   UNL     1      33.731 -22.042 -18.901  0.00  0.00    +0.089 C 
ATOM      7  C   UNL     1      34.924 -22.321 -18.355  0.00  0.00    +0.089 C 
ENDROOT
BRANCH   4   8
ATOM      8  C   UNL     1      31.304 -22.878 -16.429  0.00  0.00    -0.001 C 
ATOM      9  C   UNL     1      31.189 -22.673 -15.047  0.00  0.00    +0.003 C 
ATOM     10  C   UNL     1      30.157 -22.782 -17.229  0.00  0.00    +0.003 C 
ATOM     11  C   UNL     1      29.951 -22.376 -14.477  0.00  0.00    +0.037 C 
ATOM     12  C   UNL     1      28.919 -22.484 -16.659  0.00  0.00    +0.037 C 
ATOM     13  C   UNL     1      28.816 -22.282 -15.282  0.00  0.00    +0.134 C 
BRANCH  13  14
ATOM     14  O   UNL     1      27.608 -21.992 -14.725  0.00  0.00    -0.506 OA
ATOM     15  H   UNL     1      26.998 -21.451 -15.186  0.00  0.00    +0.292 HD
ENDBRANCH  13  14
ENDBRANCH   4   8
BRANCH   5  16
ATOM     16  C   UNL     1      34.230 -23.678 -15.089  0.00  0.00    -0.001 C 
ATOM     17  C   UNL     1      35.434 -23.121 -14.639  0.00  0.00    +0.003 C 
ATOM     18  C   UNL     1      33.442 -24.411 -14.191  0.00  0.00    +0.003 C 
ATOM     19  C   UNL     1      35.842 -23.292 -13.315  0.00  0.00    +0.037 C 
ATOM     20  C   UNL     1      33.850 -24.583 -12.869  0.00  0.00    +0.037 C 
ATOM     21  C   UNL     1      35.050 -24.024 -12.430  0.00  0.00    +0.134 C 
BRANCH  21  22
ATOM     22  O   UNL     1      35.449 -24.192 -11.140  0.00  0.00    -0.506 OA
ATOM     23  H   UNL     1      36.226 -23.767 -10.831  0.00  0.00    +0.292 HD
ENDBRANCH  21  22
ENDBRANCH   5  16
BRANCH   6  25
ATOM     24  O   UNL     1      32.283 -20.271 -19.521  0.00  0.00    -0.245 OA
ATOM     25  C   UNL     1      33.329 -20.895 -19.690  0.00  0.00    +0.340 C 
BRANCH  25  26
ATOM     26  O   UNL     1      34.284 -20.634 -20.625  0.00  0.00    -0.441 OA
ATOM     27  C   UNL     1      34.234 -19.337 -21.229  0.00  0.00    +0.256 C 
ENDBRANCH  25  26
ENDBRANCH   6  25
BRANCH   7  29
ATOM     28  O   UNL     1      36.814 -21.372 -19.424  0.00  0.00    -0.245 OA
ATOM     29  C   UNL     1      36.154 -21.556 -18.403  0.00  0.00    +0.340 C 
BRANCH  29  30
ATOM     30  O   UNL     1      36.444 -21.089 -17.157  0.00  0.00    -0.441 OA
ATOM     31  C   UNL     1      37.611 -21.639 -16.536  0.00  0.00    +0.256 C 
ENDBRANCH  29  30
ENDBRANCH   7  29
TORSDOF 8
ENDMDL
MODEL 4
REMARK VINA RESULT:      -6.4      9.593     14.174
REMARK  Name = 11531308
REMARK  8 active torsions:
REMARK  status: ('A' for Active; 'I' for Inactive)
REMARK    1  A    between atoms: C_4  and  C_8
REMARK    2  A    between atoms: C_5  and  C_16
REMARK    3  A    between atoms: C_6  and  C_25
REMARK    4  A    between atoms: C_7  and  C_29
REMARK    5  A    between atoms: C_13  and  O_14
REMARK    6  A    between atoms: C_21  and  O_22
REMARK    7  A    between atoms: C_25  and  O_26
REMARK    8  A    between atoms: C_29  and  O_30
REMARK                            x       y       z     vdW  Elec       q    Type
REMARK                         _______ _______ _______ _____ _____    ______ ____
ROOT
ATOM      1  O   UNL     1      33.950 -24.159 -18.739  0.00  0.00    -0.341 OA
ATOM      2  C   UNL     1      32.913 -23.131 -18.627  0.00  0.00    +0.166 C 
ATOM      3  C   UNL     1      34.899 -23.500 -17.836  0.00  0.00    +0.166 C 
ATOM      4  C   UNL     1      32.755 -23.139 -17.117  0.00  0.00    +0.008 C 
ATOM      5  C   UNL     1      33.992 -23.396 -16.623  0.00  0.00    +0.008 C 
ATOM      6  C   UNL     1      33.748 -21.945 -19.040  0.00  0.00    +0.089 C 
ATOM      7  C   UNL     1      34.976 -22.172 -18.549  0.00  0.00    +0.089 C 
ENDROOT
BRANCH   4   8
ATOM      8  C   UNL     1      31.474 -22.882 -16.461  0.00  0.00    -0.001 C 
ATOM      9  C   UNL     1      30.301 -22.751 -17.219  0.00  0.00    +0.003 C 
ATOM     10  C   UNL     1      31.400 -22.762 -15.067  0.00  0.00    +0.003 C 
ATOM     11  C   UNL     1      29.080 -22.506 -16.593  0.00  0.00    +0.037 C 
ATOM     12  C   UNL     1      30.178 -22.517 -14.441  0.00  0.00    +0.037 C 
ATOM     13  C   UNL     1      29.017 -22.388 -15.205  0.00  0.00    +0.134 C 
BRANCH  13  14
ATOM     14  O   UNL     1      27.825 -22.149 -14.594  0.00  0.00    -0.506 OA
ATOM     15  H   UNL     1      27.172 -22.820 -14.563  0.00  0.00    +0.292 HD
ENDBRANCH  13  14
ENDBRANCH   4   8
BRANCH   5  16
ATOM     16  C   UNL     1      34.490 -23.555 -15.257  0.00  0.00    -0.001 C 
ATOM     17  C   UNL     1      35.685 -22.941 -14.859  0.00  0.00    +0.003 C 
ATOM     18  C   UNL     1      33.779 -24.326 -14.326  0.00  0.00    +0.003 C 
ATOM     19  C   UNL     1      36.159 -23.093 -13.556  0.00  0.00    +0.037 C 
ATOM     20  C   UNL     1      34.254 -24.479 -13.024  0.00  0.00    +0.037 C 
ATOM     21  C   UNL     1      35.444 -23.863 -12.638  0.00  0.00    +0.134 C 
BRANCH  21  22
ATOM     22  O   UNL     1      35.908 -24.013 -11.368  0.00  0.00    -0.506 OA
ATOM     23  H   UNL     1      36.019 -23.262 -10.817  0.00  0.00    +0.292 HD
ENDBRANCH  21  22
ENDBRANCH   5  16
BRANCH   6  25
ATOM     24  O   UNL     1      32.269 -20.155 -19.513  0.00  0.00    -0.245 OA
ATOM     25  C   UNL     1      33.262 -20.817 -19.808  0.00  0.00    +0.340 C 
BRANCH  25  26
ATOM     26  O   UNL     1      34.074 -20.622 -20.885  0.00  0.00    -0.441 OA
ATOM     27  C   UNL     1      33.890 -19.392 -21.595  0.00  0.00    +0.256 C 
ENDBRANCH  25  26
ENDBRANCH   6  25
BRANCH   7  29
ATOM     28  O   UNL     1      36.743 -20.848 -17.691  0.00  0.00    -0.245 OA
ATOM     29  C   UNL     1      36.169 -21.356 -18.652  0.00  0.00    +0.340 C 
BRANCH  29  30
ATOM     30  O   UNL     1      36.532 -21.251 -19.960  0.00  0.00    -0.441 OA
ATOM     31  C   UNL     1      37.185 -20.033 -20.335  0.00  0.00    +0.256 C 
ENDBRANCH  29  30
ENDBRANCH   7  29
TORSDOF 8
ENDMDL
MODEL 5
REMARK VINA RESULT:      -6.3     10.799     14.400
REMARK  Name = 11531308
REMARK  8 active torsions:
REMARK  status: ('A' for Active; 'I' for Inactive)
REMARK    1  A    between atoms: C_4  and  C_8
REMARK    2  A    between atoms: C_5  and  C_16
REMARK    3  A    between atoms: C_6  and  C_25
REMARK    4  A    between atoms: C_7  and  C_29
REMARK    5  A    between atoms: C_13  and  O_14
REMARK    6  A    between atoms: C_21  and  O_22
REMARK    7  A    between atoms: C_25  and  O_26
REMARK    8  A    between atoms: C_29  and  O_30
REMARK                            x       y       z     vdW  Elec       q    Type
REMARK                         _______ _______ _______ _____ _____    ______ ____
ROOT
ATOM      1  O   UNL     1      31.532 -25.126 -16.448  0.00  0.00    -0.341 OA
ATOM      2  C   UNL     1      32.283 -24.780 -15.239  0.00  0.00    +0.166 C 
ATOM      3  C   UNL     1      31.384 -23.747 -16.922  0.00  0.00    +0.166 C 
ATOM      4  C   UNL     1      33.414 -24.009 -15.895  0.00  0.00    +0.008 C 
ATOM      5  C   UNL     1      32.858 -23.384 -16.963  0.00  0.00    +0.008 C 
ATOM      6  C   UNL     1      31.291 -23.811 -14.646  0.00  0.00    +0.089 C 
ATOM      7  C   UNL     1      30.736 -23.171 -15.687  0.00  0.00    +0.089 C 
ENDROOT
BRANCH   4   8
ATOM      8  C   UNL     1      34.776 -24.010 -15.363  0.00  0.00    -0.001 C 
ATOM      9  C   UNL     1      35.527 -25.194 -15.336  0.00  0.00    +0.003 C 
ATOM     10  C   UNL     1      35.348 -22.829 -14.871  0.00  0.00    +0.003 C 
ATOM     11  C   UNL     1      36.826 -25.194 -14.828  0.00  0.00    +0.037 C 
ATOM     12  C   UNL     1      36.647 -22.830 -14.364  0.00  0.00    +0.037 C 
ATOM     13  C   UNL     1      37.386 -24.013 -14.341  0.00  0.00    +0.134 C 
BRANCH  13  14
ATOM     14  O   UNL     1      38.654 -24.015 -13.846  0.00  0.00    -0.506 OA
ATOM     15  H   UNL     1      39.204 -24.763 -13.970  0.00  0.00    +0.292 HD
ENDBRANCH  13  14
ENDBRANCH   4   8
BRANCH   5  16
ATOM     16  C   UNL     1      33.423 -22.519 -17.998  0.00  0.00    -0.001 C 
ATOM     17  C   UNL     1      32.591 -21.700 -18.774  0.00  0.00    +0.003 C 
ATOM     18  C   UNL     1      34.805 -22.498 -18.231  0.00  0.00    +0.003 C 
ATOM     19  C   UNL     1      33.130 -20.875 -19.762  0.00  0.00    +0.037 C 
ATOM     20  C   UNL     1      35.345 -21.674 -19.219  0.00  0.00    +0.037 C 
ATOM     21  C   UNL     1      34.508 -20.863 -19.984  0.00  0.00    +0.134 C 
BRANCH  21  22
ATOM     22  O   UNL     1      35.033 -20.059 -20.949  0.00  0.00    -0.506 OA
ATOM     23  H   UNL     1      34.469 -19.644 -21.572  0.00  0.00    +0.292 HD
ENDBRANCH  21  22
ENDBRANCH   5  16
BRANCH   6  25
ATOM     24  O   UNL     1      31.517 -22.754 -12.537  0.00  0.00    -0.245 OA
ATOM     25  C   UNL     1      31.037 -23.650 -13.229  0.00  0.00    +0.340 C 
BRANCH  25  26
ATOM     26  O   UNL     1      30.196 -24.636 -12.807  0.00  0.00    -0.441 OA
ATOM     27  C   UNL     1      29.322 -25.183 -13.800  0.00  0.00    +0.256 C 
ENDBRANCH  25  26
ENDBRANCH   6  25
BRANCH   7  29
ATOM     28  O   UNL     1      29.417 -21.464 -14.707  0.00  0.00    -0.245 OA
ATOM     29  C   UNL     1      29.720 -22.137 -15.690  0.00  0.00    +0.340 C 
BRANCH  29  30
ATOM     30  O   UNL     1      29.175 -22.044 -16.934  0.00  0.00    -0.441 OA
ATOM     31  C   UNL     1      27.865 -22.601 -17.089  0.00  0.00    +0.256 C 
ENDBRANCH  29  30
ENDBRANCH   7  29
TORSDOF 8
ENDMDL
MODEL 6
REMARK VINA RESULT:      -6.2     12.097     15.791
REMARK  Name = 11531308
REMARK  8 active torsions:
REMARK  status: ('A' for Active; 'I' for Inactive)
REMARK    1  A    between atoms: C_4  and  C_8
REMARK    2  A    between atoms: C_5  and  C_16
REMARK    3  A    between atoms: C_6  and  C_25
REMARK    4  A    between atoms: C_7  and  C_29
REMARK    5  A    between atoms: C_13  and  O_14
REMARK    6  A    between atoms: C_21  and  O_22
REMARK    7  A    between atoms: C_25  and  O_26
REMARK    8  A    between atoms: C_29  and  O_30
REMARK                            x       y       z     vdW  Elec       q    Type
REMARK                         _______ _______ _______ _____ _____    ______ ____
ROOT
ATOM      1  O   UNL     1      33.070 -22.282 -13.815  0.00  0.00    -0.341 OA
ATOM      2  C   UNL     1      32.738 -22.224 -15.240  0.00  0.00    +0.166 C 
ATOM      3  C   UNL     1      33.294 -23.730 -13.781  0.00  0.00    +0.166 C 
ATOM      4  C   UNL     1      33.996 -22.875 -15.787  0.00  0.00    +0.008 C 
ATOM      5  C   UNL     1      34.360 -23.798 -14.862  0.00  0.00    +0.008 C 
ATOM      6  C   UNL     1      31.613 -23.228 -15.235  0.00  0.00    +0.089 C 
ATOM      7  C   UNL     1      31.958 -24.161 -14.334  0.00  0.00    +0.089 C 
ENDROOT
BRANCH   4   8
ATOM      8  C   UNL     1      34.577 -22.501 -17.075  0.00  0.00    -0.001 C 
ATOM      9  C   UNL     1      33.802 -22.541 -18.243  0.00  0.00    +0.003 C 
ATOM     10  C   UNL     1      35.917 -22.099 -17.162  0.00  0.00    +0.003 C 
ATOM     11  C   UNL     1      34.356 -22.185 -19.472  0.00  0.00    +0.037 C 
ATOM     12  C   UNL     1      36.471 -21.742 -18.391  0.00  0.00    +0.037 C 
ATOM     13  C   UNL     1      35.690 -21.786 -19.547  0.00  0.00    +0.134 C 
BRANCH  13  14
ATOM     14  O   UNL     1      36.231 -21.438 -20.746  0.00  0.00    -0.506 OA
ATOM     15  H   UNL     1      35.859 -21.767 -21.540  0.00  0.00    +0.292 HD
ENDBRANCH  13  14
ENDBRANCH   4   8
BRANCH   5  16
ATOM     16  C   UNL     1      35.488 -24.727 -14.792  0.00  0.00    -0.001 C 
ATOM     17  C   UNL     1      36.633 -24.401 -14.053  0.00  0.00    +0.003 C 
ATOM     18  C   UNL     1      35.439 -25.956 -15.465  0.00  0.00    +0.003 C 
ATOM     19  C   UNL     1      37.709 -25.287 -13.987  0.00  0.00    +0.037 C 
ATOM     20  C   UNL     1      36.515 -26.841 -15.400  0.00  0.00    +0.037 C 
ATOM     21  C   UNL     1      37.650 -26.507 -14.661  0.00  0.00    +0.134 C 
BRANCH  21  22
ATOM     22  O   UNL     1      38.701 -27.370 -14.597  0.00  0.00    -0.506 OA
ATOM     23  H   UNL     1      39.529 -27.077 -14.272  0.00  0.00    +0.292 HD
ENDBRANCH  21  22
ENDBRANCH   5  16
BRANCH   6  25
ATOM     24  O   UNL     1      30.384 -23.481 -17.246  0.00  0.00    -0.245 OA
ATOM     25  C   UNL     1      30.427 -23.147 -16.063  0.00  0.00    +0.340 C 
BRANCH  25  26
ATOM     26  O   UNL     1      29.395 -22.651 -15.325  0.00  0.00    -0.441 OA
ATOM     27  C   UNL     1      28.149 -22.495 -16.013  0.00  0.00    +0.256 C 
ENDBRANCH  25  26
ENDBRANCH   6  25
BRANCH   7  29
ATOM     28  O   UNL     1      31.310 -25.854 -12.808  0.00  0.00    -0.245 OA
ATOM     29  C   UNL     1      31.239 -25.352 -13.928  0.00  0.00    +0.340 C 
BRANCH  29  30
ATOM     30  O   UNL     1      30.493 -25.806 -14.973  0.00  0.00    -0.441 OA
ATOM     31  C   UNL     1      29.084 -25.908 -14.740  0.00  0.00    +0.256 C 
ENDBRANCH  29  30
ENDBRANCH   7  29
TORSDOF 8
ENDMDL
MODEL 7
REMARK VINA RESULT:      -6.2      8.753     13.494
REMARK  Name = 11531308
REMARK  8 active torsions:
REMARK  status: ('A' for Active; 'I' for Inactive)
REMARK    1  A    between atoms: C_4  and  C_8
REMARK    2  A    between atoms: C_5  and  C_16
REMARK    3  A    between atoms: C_6  and  C_25
REMARK    4  A    between atoms: C_7  and  C_29
REMARK    5  A    between atoms: C_13  and  O_14
REMARK    6  A    between atoms: C_21  and  O_22
REMARK    7  A    between atoms: C_25  and  O_26
REMARK    8  A    between atoms: C_29  and  O_30
REMARK                            x       y       z     vdW  Elec       q    Type
REMARK                         _______ _______ _______ _____ _____    ______ ____
ROOT
ATOM      1  O   UNL     1      34.397 -23.551 -19.689  0.00  0.00    -0.341 OA
ATOM      2  C   UNL     1      33.295 -22.693 -19.246  0.00  0.00    +0.166 C 
ATOM      3  C   UNL     1      35.434 -22.855 -18.921  0.00  0.00    +0.166 C 
ATOM      4  C   UNL     1      33.468 -22.868 -17.748  0.00  0.00    +0.008 C 
ATOM      5  C   UNL     1      34.803 -22.996 -17.547  0.00  0.00    +0.008 C 
ATOM      6  C   UNL     1      33.878 -21.368 -19.669  0.00  0.00    +0.089 C 
ATOM      7  C   UNL     1      35.201 -21.468 -19.466  0.00  0.00    +0.089 C 
ENDROOT
BRANCH   4   8
ATOM      8  C   UNL     1      32.337 -22.857 -16.821  0.00  0.00    -0.001 C 
ATOM      9  C   UNL     1      32.543 -23.036 -15.446  0.00  0.00    +0.003 C 
ATOM     10  C   UNL     1      31.031 -22.671 -17.294  0.00  0.00    +0.003 C 
ATOM     11  C   UNL     1      31.465 -23.026 -14.562  0.00  0.00    +0.037 C 
ATOM     12  C   UNL     1      29.952 -22.660 -16.410  0.00  0.00    +0.037 C 
ATOM     13  C   UNL     1      30.169 -22.839 -15.044  0.00  0.00    +0.134 C 
BRANCH  13  14
ATOM     14  O   UNL     1      29.117 -22.829 -14.181  0.00  0.00    -0.506 OA
ATOM     15  H   UNL     1      28.867 -23.616 -13.739  0.00  0.00    +0.292 HD
ENDBRANCH  13  14
ENDBRANCH   4   8
BRANCH   5  16
ATOM     16  C   UNL     1      35.599 -23.214 -16.339  0.00  0.00    -0.001 C 
ATOM     17  C   UNL     1      35.374 -24.337 -15.531  0.00  0.00    +0.003 C 
ATOM     18  C   UNL     1      36.596 -22.300 -15.971  0.00  0.00    +0.003 C 
ATOM     19  C   UNL     1      36.133 -24.543 -14.379  0.00  0.00    +0.037 C 
ATOM     20  C   UNL     1      37.354 -22.505 -14.818  0.00  0.00    +0.037 C 
ATOM     21  C   UNL     1      37.123 -23.627 -14.022  0.00  0.00    +0.134 C 
BRANCH  21  22
ATOM     22  O   UNL     1      37.861 -23.828 -12.896  0.00  0.00    -0.506 OA
ATOM     23  H   UNL     1      38.796 -23.859 -12.948  0.00  0.00    +0.292 HD
ENDBRANCH  21  22
ENDBRANCH   5  16
BRANCH   6  25
ATOM     24  O   UNL     1      32.051 -19.859 -19.692  0.00  0.00    -0.245 OA
ATOM     25  C   UNL     1      33.109 -20.251 -20.179  0.00  0.00    +0.340 C 
BRANCH  25  26
ATOM     26  O   UNL     1      33.745 -19.725 -21.264  0.00  0.00    -0.441 OA
ATOM     27  C   UNL     1      33.717 -18.299 -21.376  0.00  0.00    +0.256 C 
ENDBRANCH  25  26
ENDBRANCH   6  25
BRANCH   7  29
ATOM     28  O   UNL     1      36.915 -19.965 -18.820  0.00  0.00    -0.245 OA
ATOM     29  C   UNL     1      36.239 -20.486 -19.705  0.00  0.00    +0.340 C 
BRANCH  29  30
ATOM     30  O   UNL     1      36.335 -20.247 -21.042  0.00  0.00    -0.441 OA
ATOM     31  C   UNL     1      37.157 -19.139 -21.425  0.00  0.00    +0.256 C 
ENDBRANCH  29  30
ENDBRANCH   7  29
TORSDOF 8
ENDMDL
MODEL 8
REMARK VINA RESULT:      -5.8      3.097      7.316
REMARK  Name = 11531308
REMARK  8 active torsions:
REMARK  status: ('A' for Active; 'I' for Inactive)
REMARK    1  A    between atoms: C_4  and  C_8
REMARK    2  A    between atoms: C_5  and  C_16
REMARK    3  A    between atoms: C_6  and  C_25
REMARK    4  A    between atoms: C_7  and  C_29
REMARK    5  A    between atoms: C_13  and  O_14
REMARK    6  A    between atoms: C_21  and  O_22
REMARK    7  A    between atoms: C_25  and  O_26
REMARK    8  A    between atoms: C_29  and  O_30
REMARK                            x       y       z     vdW  Elec       q    Type
REMARK                         _______ _______ _______ _____ _____    ______ ____
ROOT
ATOM      1  O   UNL     1      36.066 -16.127 -22.828  0.00  0.00    -0.341 OA
ATOM      2  C   UNL     1      34.969 -16.112 -21.858  0.00  0.00    +0.166 C 
ATOM      3  C   UNL     1      35.219 -16.404 -23.992  0.00  0.00    +0.166 C 
ATOM      4  C   UNL     1      34.104 -15.054 -22.517  0.00  0.00    +0.008 C 
ATOM      5  C   UNL     1      34.280 -15.219 -23.852  0.00  0.00    +0.008 C 
ATOM      6  C   UNL     1      34.408 -17.479 -22.155  0.00  0.00    +0.089 C 
ATOM      7  C   UNL     1      34.560 -17.660 -23.476  0.00  0.00    +0.089 C 
ENDROOT
BRANCH   4   8
ATOM      8  C   UNL     1      33.278 -14.124 -21.748  0.00  0.00    -0.001 C 
ATOM      9  C   UNL     1      32.643 -13.047 -22.382  0.00  0.00    +0.003 C 
ATOM     10  C   UNL     1      33.112 -14.295 -20.367  0.00  0.00    +0.003 C 
ATOM     11  C   UNL     1      31.856 -12.159 -21.648  0.00  0.00    +0.037 C 
ATOM     12  C   UNL     1      32.324 -13.408 -19.634  0.00  0.00    +0.037 C 
ATOM     13  C   UNL     1      31.697 -12.339 -20.274  0.00  0.00    +0.134 C 
BRANCH  13  14
ATOM     14  O   UNL     1      30.928 -11.473 -19.559  0.00  0.00    -0.506 OA
ATOM     15  H   UNL     1      30.822 -11.595 -18.636  0.00  0.00    +0.292 HD
ENDBRANCH  13  14
ENDBRANCH   4   8
BRANCH   5  16
ATOM     16  C   UNL     1      33.746 -14.502 -25.010  0.00  0.00    -0.001 C 
ATOM     17  C   UNL     1      33.927 -13.117 -25.135  0.00  0.00    +0.003 C 
ATOM     18  C   UNL     1      33.044 -15.189 -26.009  0.00  0.00    +0.003 C 
ATOM     19  C   UNL     1      33.416 -12.434 -26.240  0.00  0.00    +0.037 C 
ATOM     20  C   UNL     1      32.532 -14.506 -27.112  0.00  0.00    +0.037 C 
ATOM     21  C   UNL     1      32.719 -13.129 -27.228  0.00  0.00    +0.134 C 
BRANCH  21  22
ATOM     22  O   UNL     1      32.220 -12.461 -28.304  0.00  0.00    -0.506 OA
ATOM     23  H   UNL     1      32.080 -11.536 -28.258  0.00  0.00    +0.292 HD
ENDBRANCH  21  22
ENDBRANCH   5  16
BRANCH   6  25
ATOM     24  O   UNL     1      32.638 -18.387 -20.865  0.00  0.00    -0.245 OA
ATOM     25  C   UNL     1      33.830 -18.370 -21.168  0.00  0.00    +0.340 C 
BRANCH  25  26
ATOM     26  O   UNL     1      34.808 -19.163 -20.649  0.00  0.00    -0.441 OA
ATOM     27  C   UNL     1      34.416 -20.494 -20.298  0.00  0.00    +0.256 C 
ENDBRANCH  25  26
ENDBRANCH   6  25
BRANCH   7  29
ATOM     28  O   UNL     1      33.296 -18.788 -25.132  0.00  0.00    -0.245 OA
ATOM     29  C   UNL     1      34.194 -18.799 -24.292  0.00  0.00    +0.340 C 
BRANCH  29  30
ATOM     30  O   UNL     1      34.995 -19.855 -23.978  0.00  0.00    -0.441 OA
ATOM     31  C   UNL     1      35.342 -20.725 -25.062  0.00  0.00    +0.256 C 
ENDBRANCH  29  30
ENDBRANCH   7  29
TORSDOF 8
ENDMDL
MODEL 9
REMARK VINA RESULT:      -5.8      1.890      7.141
REMARK  Name = 11531308
REMARK  8 active torsions:
REMARK  status: ('A' for Active; 'I' for Inactive)
REMARK    1  A    between atoms: C_4  and  C_8
REMARK    2  A    between atoms: C_5  and  C_16
REMARK    3  A    between atoms: C_6  and  C_25
REMARK    4  A    between atoms: C_7  and  C_29
REMARK    5  A    between atoms: C_13  and  O_14
REMARK    6  A    between atoms: C_21  and  O_22
REMARK    7  A    between atoms: C_25  and  O_26
REMARK    8  A    between atoms: C_29  and  O_30
REMARK                            x       y       z     vdW  Elec       q    Type
REMARK                         _______ _______ _______ _____ _____    ______ ____
ROOT
ATOM      1  O   UNL     1      31.739 -14.520 -23.693  0.00  0.00    -0.341 OA
ATOM      2  C   UNL     1      33.076 -14.293 -24.246  0.00  0.00    +0.166 C 
ATOM      3  C   UNL     1      32.082 -14.117 -22.326  0.00  0.00    +0.166 C 
ATOM      4  C   UNL     1      33.242 -12.841 -23.834  0.00  0.00    +0.008 C 
ATOM      5  C   UNL     1      32.598 -12.724 -22.646  0.00  0.00    +0.008 C 
ATOM      6  C   UNL     1      33.848 -15.177 -23.299  0.00  0.00    +0.089 C 
ATOM      7  C   UNL     1      33.234 -15.066 -22.111  0.00  0.00    +0.089 C 
ENDROOT
BRANCH   4   8
ATOM      8  C   UNL     1      33.991 -11.878 -24.639  0.00  0.00    -0.001 C 
ATOM      9  C   UNL     1      34.193 -12.101 -26.008  0.00  0.00    +0.003 C 
ATOM     10  C   UNL     1      34.518 -10.719 -24.053  0.00  0.00    +0.003 C 
ATOM     11  C   UNL     1      34.908 -11.182 -26.776  0.00  0.00    +0.037 C 
ATOM     12  C   UNL     1      35.232  -9.799 -24.821  0.00  0.00    +0.037 C 
ATOM     13  C   UNL     1      35.428 -10.031 -26.183  0.00  0.00    +0.134 C 
BRANCH  13  14
ATOM     14  O   UNL     1      36.125  -9.135 -26.933  0.00  0.00    -0.506 OA
ATOM     15  H   UNL     1      36.378  -8.312 -26.563  0.00  0.00    +0.292 HD
ENDBRANCH  13  14
ENDBRANCH   4   8
BRANCH   5  16
ATOM     16  C   UNL     1      32.377 -11.584 -21.756  0.00  0.00    -0.001 C 
ATOM     17  C   UNL     1      32.201 -11.779 -20.379  0.00  0.00    +0.003 C 
ATOM     18  C   UNL     1      32.336 -10.280 -22.270  0.00  0.00    +0.003 C 
ATOM     19  C   UNL     1      31.991 -10.691 -19.532  0.00  0.00    +0.037 C 
ATOM     20  C   UNL     1      32.124  -9.192 -21.422  0.00  0.00    +0.037 C 
ATOM     21  C   UNL     1      31.951  -9.397 -20.054  0.00  0.00    +0.134 C 
BRANCH  21  22
ATOM     22  O   UNL     1      31.744  -8.337 -19.226  0.00  0.00    -0.506 OA
ATOM     23  H   UNL     1      32.432  -7.718 -19.075  0.00  0.00    +0.292 HD
ENDBRANCH  21  22
ENDBRANCH   5  16
BRANCH   6  25
ATOM     24  O   UNL     1      35.945 -16.206 -22.899  0.00  0.00    -0.245 OA
ATOM     25  C   UNL     1      35.013 -15.960 -23.661  0.00  0.00    +0.340 C 
BRANCH  25  26
ATOM     26  O   UNL     1      34.898 -16.366 -24.957  0.00  0.00    -0.441 OA
ATOM     27  C   UNL     1      34.566 -17.744 -25.155  0.00  0.00    +0.256 C 
ENDBRANCH  25  26
ENDBRANCH   6  25
BRANCH   7  29
ATOM     28  O   UNL     1      34.362 -15.253 -20.036  0.00  0.00    -0.245 OA
ATOM     29  C   UNL     1      33.559 -15.703 -20.851  0.00  0.00    +0.340 C 
BRANCH  29  30
ATOM     30  O   UNL     1      32.842 -16.854 -20.729  0.00  0.00    -0.441 OA
ATOM     31  C   UNL     1      33.548 -18.067 -21.008  0.00  0.00    +0.256 C 
ENDBRANCH  29  30
ENDBRANCH   7  29
TORSDOF 8
ENDMDL
