MODEL 1
REMARK VINA RESULT:      -9.2      0.000      0.000
REMARK  Name = 447012
REMARK  2 active torsions:
REMARK  status: ('A' for Active; 'I' for Inactive)
REMARK    1  A    between atoms: N_2  and  C_21
REMARK    2  A    between atoms: C_12  and  N_20
REMARK                            x       y       z     vdW  Elec       q    Type
REMARK                         _______ _______ _______ _____ _____    ______ ____
ROOT
ATOM      1  O   UNL     1      31.192  -9.619 -22.914  0.00  0.00    -0.269 OA
ATOM      2  N   UNL     1      33.328 -12.722 -24.250  0.00  0.00    -0.271 N 
ATOM      3  N   UNL     1      31.755 -11.672 -21.986  0.00  0.00    -0.252 N 
ATOM      4  N   UNL     1      34.857 -11.121 -25.169  0.00  0.00    -0.229 NA
ATOM      5  C   UNL     1      33.253 -13.397 -23.012  0.00  0.00    +0.068 C 
ATOM      6  C   UNL     1      32.548 -12.870 -21.908  0.00  0.00    +0.068 C 
ATOM      7  C   UNL     1      33.810 -11.399 -24.338  0.00  0.00    +0.140 C 
ATOM      8  C   UNL     1      33.247 -10.396 -23.556  0.00  0.00    +0.086 C 
ATOM      9  C   UNL     1      31.985 -10.561 -22.812  0.00  0.00    +0.256 C 
ATOM     10  C   UNL     1      33.915 -14.642 -22.848  0.00  0.00    +0.040 C 
ATOM     11  C   UNL     1      32.536 -13.610 -20.700  0.00  0.00    +0.018 C 
ATOM     12  C   UNL     1      33.891 -15.347 -21.648  0.00  0.00    +0.144 C 
ATOM     13  C   UNL     1      30.589 -11.588 -21.095  0.00  0.00    +0.120 C 
ATOM     14  C   UNL     1      33.202 -14.827 -20.568  0.00  0.00    +0.025 C 
ATOM     15  C   UNL     1      33.796  -9.105 -23.604  0.00  0.00    +0.009 C 
ATOM     16  C   UNL     1      34.881  -8.835 -24.422  0.00  0.00    +0.021 C 
ATOM     17  C   UNL     1      35.365  -9.870 -25.189  0.00  0.00    +0.100 C 
ENDROOT
BRANCH  12  20
ATOM     18  O   UNL     1      34.486 -17.414 -22.481  0.00  0.00    -0.126 OA
ATOM     19  O   UNL     1      35.216 -16.839 -20.492  0.00  0.00    -0.126 OA
ATOM     20  N   UNL     1      34.562 -16.592 -21.535  0.00  0.00    +0.058 N 
ENDBRANCH  12  20
BRANCH   2  21
ATOM     21  C   UNL     1      33.523 -13.518 -25.465  0.00  0.00    +0.097 C 
ATOM     22  C   UNL     1      32.805 -12.894 -26.650  0.00  0.00    +0.024 C 
ENDBRANCH   2  21
TORSDOF 2
ENDMDL
MODEL 2
REMARK VINA RESULT:      -8.3      2.033      6.103
REMARK  Name = 447012
REMARK  2 active torsions:
REMARK  status: ('A' for Active; 'I' for Inactive)
REMARK    1  A    between atoms: N_2  and  C_21
REMARK    2  A    between atoms: C_12  and  N_20
REMARK                            x       y       z     vdW  Elec       q    Type
REMARK                         _______ _______ _______ _____ _____    ______ ____
ROOT
ATOM      1  O   UNL     1      33.119 -15.459 -25.505  0.00  0.00    -0.269 OA
ATOM      2  N   UNL     1      32.714 -12.585 -22.756  0.00  0.00    -0.271 N 
ATOM      3  N   UNL     1      33.568 -13.180 -25.516  0.00  0.00    -0.252 N 
ATOM      4  N   UNL     1      33.513 -14.174 -21.150  0.00  0.00    -0.229 NA
ATOM      5  C   UNL     1      33.348 -11.620 -23.569  0.00  0.00    +0.068 C 
ATOM      6  C   UNL     1      33.809 -11.917 -24.870  0.00  0.00    +0.068 C 
ATOM      7  C   UNL     1      33.335 -13.816 -22.455  0.00  0.00    +0.140 C 
ATOM      8  C   UNL     1      33.796 -14.636 -23.479  0.00  0.00    +0.086 C 
ATOM      9  C   UNL     1      33.448 -14.434 -24.898  0.00  0.00    +0.256 C 
ATOM     10  C   UNL     1      33.549 -10.306 -23.073  0.00  0.00    +0.040 C 
ATOM     11  C   UNL     1      34.444 -10.890 -25.610  0.00  0.00    +0.018 C 
ATOM     12  C   UNL     1      34.181  -9.316 -23.820  0.00  0.00    +0.144 C 
ATOM     13  C   UNL     1      33.456 -13.165 -26.982  0.00  0.00    +0.120 C 
ATOM     14  C   UNL     1      34.634  -9.610 -25.093  0.00  0.00    +0.025 C 
ATOM     15  C   UNL     1      34.481 -15.816 -23.152  0.00  0.00    +0.009 C 
ATOM     16  C   UNL     1      34.690 -16.160 -21.826  0.00  0.00    +0.021 C 
ATOM     17  C   UNL     1      34.180 -15.315 -20.868  0.00  0.00    +0.100 C 
ENDROOT
BRANCH  12  20
ATOM     18  O   UNL     1      34.976  -7.154 -23.956  0.00  0.00    -0.126 OA
ATOM     19  O   UNL     1      33.877  -7.753 -22.152  0.00  0.00    -0.126 OA
ATOM     20  N   UNL     1      34.353  -8.013 -23.284  0.00  0.00    +0.058 N 
ENDBRANCH  12  20
BRANCH   2  21
ATOM     21  C   UNL     1      31.765 -12.123 -21.739  0.00  0.00    +0.097 C 
ATOM     22  C   UNL     1      30.819 -11.079 -22.305  0.00  0.00    +0.024 C 
ENDBRANCH   2  21
TORSDOF 2
ENDMDL
MODEL 3
REMARK VINA RESULT:      -8.2      2.181      6.301
REMARK  Name = 447012
REMARK  2 active torsions:
REMARK  status: ('A' for Active; 'I' for Inactive)
REMARK    1  A    between atoms: N_2  and  C_21
REMARK    2  A    between atoms: C_12  and  N_20
REMARK                            x       y       z     vdW  Elec       q    Type
REMARK                         _______ _______ _______ _____ _____    ______ ____
ROOT
ATOM      1  O   UNL     1      33.748 -13.764 -25.110  0.00  0.00    -0.269 OA
ATOM      2  N   UNL     1      31.872 -11.693 -22.252  0.00  0.00    -0.271 N 
ATOM      3  N   UNL     1      33.746 -11.517 -24.524  0.00  0.00    -0.252 N 
ATOM      4  N   UNL     1      32.325 -13.534 -20.787  0.00  0.00    -0.229 NA
ATOM      5  C   UNL     1      32.565 -10.502 -22.562  0.00  0.00    +0.068 C 
ATOM      6  C   UNL     1      33.505 -10.429 -23.613  0.00  0.00    +0.068 C 
ATOM      7  C   UNL     1      32.560 -12.892 -21.968  0.00  0.00    +0.140 C 
ATOM      8  C   UNL     1      33.498 -13.391 -22.866  0.00  0.00    +0.086 C 
ATOM      9  C   UNL     1      33.645 -12.889 -24.245  0.00  0.00    +0.256 C 
ATOM     10  C   UNL     1      32.332  -9.333 -21.793  0.00  0.00    +0.040 C 
ATOM     11  C   UNL     1      34.162  -9.196 -23.845  0.00  0.00    +0.018 C 
ATOM     12  C   UNL     1      32.996  -8.134 -22.039  0.00  0.00    +0.144 C 
ATOM     13  C   UNL     1      34.161 -11.161 -25.889  0.00  0.00    +0.120 C 
ATOM     14  C   UNL     1      33.918  -8.066 -23.067  0.00  0.00    +0.025 C 
ATOM     15  C   UNL     1      34.225 -14.541 -22.524  0.00  0.00    +0.009 C 
ATOM     16  C   UNL     1      34.009 -15.171 -21.309  0.00  0.00    +0.021 C 
ATOM     17  C   UNL     1      33.045 -14.637 -20.485  0.00  0.00    +0.100 C 
ENDROOT
BRANCH  12  20
ATOM     18  O   UNL     1      32.349  -5.931 -21.811  0.00  0.00    -0.126 OA
ATOM     19  O   UNL     1      32.865  -7.062 -20.002  0.00  0.00    -0.126 OA
ATOM     20  N   UNL     1      32.724  -6.988 -21.247  0.00  0.00    +0.058 N 
ENDBRANCH  12  20
BRANCH   2  21
ATOM     21  C   UNL     1      30.557 -11.587 -21.615  0.00  0.00    +0.097 C 
ATOM     22  C   UNL     1      30.674 -11.049 -20.199  0.00  0.00    +0.024 C 
ENDBRANCH   2  21
TORSDOF 2
ENDMDL
MODEL 4
REMARK VINA RESULT:      -7.9      1.714      5.518
REMARK  Name = 447012
REMARK  2 active torsions:
REMARK  status: ('A' for Active; 'I' for Inactive)
REMARK    1  A    between atoms: N_2  and  C_21
REMARK    2  A    between atoms: C_12  and  N_20
REMARK                            x       y       z     vdW  Elec       q    Type
REMARK                         _______ _______ _______ _____ _____    ______ ____
ROOT
ATOM      1  O   UNL     1      33.786 -15.241 -23.069  0.00  0.00    -0.269 OA
ATOM      2  N   UNL     1      33.913 -11.494 -24.455  0.00  0.00    -0.271 N 
ATOM      3  N   UNL     1      32.848 -13.248 -22.334  0.00  0.00    -0.252 N 
ATOM      4  N   UNL     1      33.707 -12.428 -26.653  0.00  0.00    -0.229 NA
ATOM      5  C   UNL     1      32.979 -11.035 -23.501  0.00  0.00    +0.068 C 
ATOM      6  C   UNL     1      32.424 -11.885 -22.520  0.00  0.00    +0.068 C 
ATOM      7  C   UNL     1      33.625 -12.587 -25.300  0.00  0.00    +0.140 C 
ATOM      8  C   UNL     1      33.222 -13.804 -24.758  0.00  0.00    +0.086 C 
ATOM      9  C   UNL     1      33.324 -14.124 -23.321  0.00  0.00    +0.256 C 
ATOM     10  C   UNL     1      32.562  -9.679 -23.522  0.00  0.00    +0.040 C 
ATOM     11  C   UNL     1      31.485 -11.340 -21.610  0.00  0.00    +0.018 C 
ATOM     12  C   UNL     1      31.632  -9.170 -22.619  0.00  0.00    +0.144 C 
ATOM     13  C   UNL     1      32.757 -13.792 -20.972  0.00  0.00    +0.120 C 
ATOM     14  C   UNL     1      31.088 -10.005 -21.661  0.00  0.00    +0.025 C 
ATOM     15  C   UNL     1      32.865 -14.850 -25.622  0.00  0.00    +0.009 C 
ATOM     16  C   UNL     1      32.916 -14.673 -26.995  0.00  0.00    +0.021 C 
ATOM     17  C   UNL     1      33.352 -13.453 -27.457  0.00  0.00    +0.100 C 
ENDROOT
BRANCH  12  20
ATOM     18  O   UNL     1      31.597  -7.036 -21.745  0.00  0.00    -0.126 OA
ATOM     19  O   UNL     1      30.578  -7.400 -23.656  0.00  0.00    -0.126 OA
ATOM     20  N   UNL     1      31.251  -7.804 -22.676  0.00  0.00    +0.058 N 
ENDBRANCH  12  20
BRANCH   2  21
ATOM     21  C   UNL     1      34.864 -10.532 -25.017  0.00  0.00    +0.097 C 
ATOM     22  C   UNL     1      35.084  -9.362 -24.073  0.00  0.00    +0.024 C 
ENDBRANCH   2  21
TORSDOF 2
ENDMDL
MODEL 5
REMARK VINA RESULT:      -7.5      2.113      4.419
REMARK  Name = 447012
REMARK  2 active torsions:
REMARK  status: ('A' for Active; 'I' for Inactive)
REMARK    1  A    between atoms: N_2  and  C_21
REMARK    2  A    between atoms: C_12  and  N_20
REMARK                            x       y       z     vdW  Elec       q    Type
REMARK                         _______ _______ _______ _____ _____    ______ ____
ROOT
ATOM      1  O   UNL     1      34.376  -9.286 -23.626  0.00  0.00    -0.269 OA
ATOM      2  N   UNL     1      33.271 -13.063 -22.923  0.00  0.00    -0.271 N 
ATOM      3  N   UNL     1      34.237 -11.173 -24.973  0.00  0.00    -0.252 N 
ATOM      4  N   UNL     1      31.516 -12.169 -21.557  0.00  0.00    -0.229 NA
ATOM      5  C   UNL     1      33.359 -13.417 -24.287  0.00  0.00    +0.068 C 
ATOM      6  C   UNL     1      33.766 -12.498 -25.279  0.00  0.00    +0.068 C 
ATOM      7  C   UNL     1      32.488 -11.970 -22.495  0.00  0.00    +0.140 C 
ATOM      8  C   UNL     1      32.678 -10.711 -23.055  0.00  0.00    +0.086 C 
ATOM      9  C   UNL     1      33.839 -10.365 -23.896  0.00  0.00    +0.256 C 
ATOM     10  C   UNL     1      33.016 -14.732 -24.696  0.00  0.00    +0.040 C 
ATOM     11  C   UNL     1      33.814 -12.937 -26.625  0.00  0.00    +0.018 C 
ATOM     12  C   UNL     1      33.066 -15.136 -26.027  0.00  0.00    +0.144 C 
ATOM     13  C   UNL     1      35.224 -10.590 -25.892  0.00  0.00    +0.120 C 
ATOM     14  C   UNL     1      33.463 -14.234 -26.996  0.00  0.00    +0.025 C 
ATOM     15  C   UNL     1      31.833  -9.659 -22.670  0.00  0.00    +0.009 C 
ATOM     16  C   UNL     1      30.826  -9.873 -21.743  0.00  0.00    +0.021 C 
ATOM     17  C   UNL     1      30.716 -11.136 -21.212  0.00  0.00    +0.100 C 
ENDROOT
BRANCH  12  20
ATOM     18  O   UNL     1      31.715 -16.658 -27.111  0.00  0.00    -0.126 OA
ATOM     19  O   UNL     1      33.432 -17.412 -25.970  0.00  0.00    -0.126 OA
ATOM     20  N   UNL     1      32.721 -16.465 -26.386  0.00  0.00    +0.058 N 
ENDBRANCH  12  20
BRANCH   2  21
ATOM     21  C   UNL     1      33.435 -14.117 -21.919  0.00  0.00    +0.097 C 
ATOM     22  C   UNL     1      34.884 -14.563 -21.822  0.00  0.00    +0.024 C 
ENDBRANCH   2  21
TORSDOF 2
ENDMDL
MODEL 6
REMARK VINA RESULT:      -7.2      3.921      7.572
REMARK  Name = 447012
REMARK  2 active torsions:
REMARK  status: ('A' for Active; 'I' for Inactive)
REMARK    1  A    between atoms: N_2  and  C_21
REMARK    2  A    between atoms: C_12  and  N_20
REMARK                            x       y       z     vdW  Elec       q    Type
REMARK                         _______ _______ _______ _____ _____    ______ ____
ROOT
ATOM      1  O   UNL     1      32.551  -9.410 -19.027  0.00  0.00    -0.269 OA
ATOM      2  N   UNL     1      33.142  -8.440 -22.859  0.00  0.00    -0.271 N 
ATOM      3  N   UNL     1      31.997  -7.544 -20.292  0.00  0.00    -0.252 N 
ATOM      4  N   UNL     1      32.614 -10.716 -23.392  0.00  0.00    -0.229 NA
ATOM      5  C   UNL     1      32.372  -7.262 -22.753  0.00  0.00    +0.068 C 
ATOM      6  C   UNL     1      31.775  -6.859 -21.538  0.00  0.00    +0.068 C 
ATOM      7  C   UNL     1      32.620  -9.697 -22.485  0.00  0.00    +0.140 C 
ATOM      8  C   UNL     1      32.080  -9.881 -21.216  0.00  0.00    +0.086 C 
ATOM      9  C   UNL     1      32.249  -8.913 -20.116  0.00  0.00    +0.256 C 
ATOM     10  C   UNL     1      32.170  -6.449 -23.898  0.00  0.00    +0.040 C 
ATOM     11  C   UNL     1      31.009  -5.667 -21.527  0.00  0.00    +0.018 C 
ATOM     12  C   UNL     1      31.407  -5.284 -23.860  0.00  0.00    +0.144 C 
ATOM     13  C   UNL     1      31.935  -6.732 -19.068  0.00  0.00    +0.120 C 
ATOM     14  C   UNL     1      30.822  -4.894 -22.671  0.00  0.00    +0.025 C 
ATOM     15  C   UNL     1      31.495 -11.115 -20.897  0.00  0.00    +0.009 C 
ATOM     16  C   UNL     1      31.460 -12.137 -21.832  0.00  0.00    +0.021 C 
ATOM     17  C   UNL     1      32.039 -11.892 -23.055  0.00  0.00    +0.100 C 
ENDROOT
BRANCH  12  20
ATOM     18  O   UNL     1      32.032  -4.659 -25.991  0.00  0.00    -0.126 OA
ATOM     19  O   UNL     1      30.300  -3.668 -25.076  0.00  0.00    -0.126 OA
ATOM     20  N   UNL     1      31.239  -4.500 -25.031  0.00  0.00    +0.058 N 
ENDBRANCH  12  20
BRANCH   2  21
ATOM     21  C   UNL     1      34.181  -8.502 -23.891  0.00  0.00    +0.097 C 
ATOM     22  C   UNL     1      35.252  -7.451 -23.654  0.00  0.00    +0.024 C 
ENDBRANCH   2  21
TORSDOF 2
ENDMDL
MODEL 7
REMARK VINA RESULT:      -6.8      1.687      4.897
REMARK  Name = 447012
REMARK  2 active torsions:
REMARK  status: ('A' for Active; 'I' for Inactive)
REMARK    1  A    between atoms: N_2  and  C_21
REMARK    2  A    between atoms: C_12  and  N_20
REMARK                            x       y       z     vdW  Elec       q    Type
REMARK                         _______ _______ _______ _____ _____    ______ ____
ROOT
ATOM      1  O   UNL     1      34.996 -15.987 -24.377  0.00  0.00    -0.269 OA
ATOM      2  N   UNL     1      33.781 -12.191 -24.065  0.00  0.00    -0.271 N 
ATOM      3  N   UNL     1      33.988 -14.781 -22.667  0.00  0.00    -0.252 N 
ATOM      4  N   UNL     1      32.982 -12.388 -26.316  0.00  0.00    -0.229 NA
ATOM      5  C   UNL     1      33.192 -12.410 -22.801  0.00  0.00    +0.068 C 
ATOM      6  C   UNL     1      33.240 -13.664 -22.154  0.00  0.00    +0.068 C 
ATOM      7  C   UNL     1      33.445 -12.988 -25.181  0.00  0.00    +0.140 C 
ATOM      8  C   UNL     1      33.548 -14.373 -25.108  0.00  0.00    +0.086 C 
ATOM      9  C   UNL     1      34.242 -15.078 -24.014  0.00  0.00    +0.256 C 
ATOM     10  C   UNL     1      32.512 -11.348 -22.149  0.00  0.00    +0.040 C 
ATOM     11  C   UNL     1      32.611 -13.795 -20.891  0.00  0.00    +0.018 C 
ATOM     12  C   UNL     1      31.897 -11.506 -20.910  0.00  0.00    +0.144 C 
ATOM     13  C   UNL     1      34.530 -15.727 -21.681  0.00  0.00    +0.120 C 
ATOM     14  C   UNL     1      31.944 -12.736 -20.280  0.00  0.00    +0.025 C 
ATOM     15  C   UNL     1      33.132 -15.146 -26.203  0.00  0.00    +0.009 C 
ATOM     16  C   UNL     1      32.630 -14.535 -27.341  0.00  0.00    +0.021 C 
ATOM     17  C   UNL     1      32.586 -13.160 -27.352  0.00  0.00    +0.100 C 
ENDROOT
BRANCH  12  20
ATOM     18  O   UNL     1      31.569  -9.243 -20.606  0.00  0.00    -0.126 OA
ATOM     19  O   UNL     1      30.331 -10.643 -19.454  0.00  0.00    -0.126 OA
ATOM     20  N   UNL     1      31.235 -10.412 -20.294  0.00  0.00    +0.058 N 
ENDBRANCH  12  20
BRANCH   2  21
ATOM     21  C   UNL     1      34.221 -10.835 -24.403  0.00  0.00    +0.097 C 
ATOM     22  C   UNL     1      35.192 -10.848 -25.572  0.00  0.00    +0.024 C 
ENDBRANCH   2  21
TORSDOF 2
ENDMDL
MODEL 8
REMARK VINA RESULT:      -6.7      1.876      4.217
REMARK  Name = 447012
REMARK  2 active torsions:
REMARK  status: ('A' for Active; 'I' for Inactive)
REMARK    1  A    between atoms: N_2  and  C_21
REMARK    2  A    between atoms: C_12  and  N_20
REMARK                            x       y       z     vdW  Elec       q    Type
REMARK                         _______ _______ _______ _____ _____    ______ ____
ROOT
ATOM      1  O   UNL     1      33.275 -10.271 -24.056  0.00  0.00    -0.269 OA
ATOM      2  N   UNL     1      34.070 -13.792 -22.339  0.00  0.00    -0.271 N 
ATOM      3  N   UNL     1      33.610 -12.407 -24.903  0.00  0.00    -0.252 N 
ATOM      4  N   UNL     1      32.503 -13.178 -20.632  0.00  0.00    -0.229 NA
ATOM      5  C   UNL     1      33.956 -14.493 -23.559  0.00  0.00    +0.068 C 
ATOM      6  C   UNL     1      33.679 -13.839 -24.780  0.00  0.00    +0.068 C 
ATOM      7  C   UNL     1      33.034 -12.956 -21.870  0.00  0.00    +0.140 C 
ATOM      8  C   UNL     1      32.533 -11.942 -22.679  0.00  0.00    +0.086 C 
ATOM      9  C   UNL     1      33.192 -11.496 -23.921  0.00  0.00    +0.256 C 
ATOM     10  C   UNL     1      34.107 -15.904 -23.577  0.00  0.00    +0.040 C 
ATOM     11  C   UNL     1      33.569 -14.624 -25.954  0.00  0.00    +0.018 C 
ATOM     12  C   UNL     1      33.989 -16.652 -24.745  0.00  0.00    +0.144 C 
ATOM     13  C   UNL     1      33.998 -11.832 -26.199  0.00  0.00    +0.120 C 
ATOM     14  C   UNL     1      33.715 -16.010 -25.938  0.00  0.00    +0.025 C 
ATOM     15  C   UNL     1      31.450 -11.177 -22.221  0.00  0.00    +0.009 C 
ATOM     16  C   UNL     1      30.891 -11.428 -20.978  0.00  0.00    +0.021 C 
ATOM     17  C   UNL     1      31.458 -12.427 -20.222  0.00  0.00    +0.100 C 
ENDROOT
BRANCH  12  20
ATOM     18  O   UNL     1      33.590 -18.761 -25.589  0.00  0.00    -0.126 OA
ATOM     19  O   UNL     1      34.865 -18.570 -23.812  0.00  0.00    -0.126 OA
ATOM     20  N   UNL     1      34.155 -18.061 -24.714  0.00  0.00    +0.058 N 
ENDBRANCH  12  20
BRANCH   2  21
ATOM     21  C   UNL     1      34.906 -14.368 -21.282  0.00  0.00    +0.097 C 
ATOM     22  C   UNL     1      34.248 -15.592 -20.668  0.00  0.00    +0.024 C 
ENDBRANCH   2  21
TORSDOF 2
ENDMDL
MODEL 9
REMARK VINA RESULT:      -6.4      9.439     12.459
REMARK  Name = 447012
REMARK  2 active torsions:
REMARK  status: ('A' for Active; 'I' for Inactive)
REMARK    1  A    between atoms: N_2  and  C_21
REMARK    2  A    between atoms: C_12  and  N_20
REMARK                            x       y       z     vdW  Elec       q    Type
REMARK                         _______ _______ _______ _____ _____    ______ ____
ROOT
ATOM      1  O   UNL     1      34.767 -24.749 -14.636  0.00  0.00    -0.269 OA
ATOM      2  N   UNL     1      33.967 -23.128 -18.201  0.00  0.00    -0.271 N 
ATOM      3  N   UNL     1      35.928 -23.272 -16.001  0.00  0.00    -0.252 N 
ATOM      4  N   UNL     1      31.707 -22.874 -17.445  0.00  0.00    -0.229 NA
ATOM      5  C   UNL     1      35.108 -22.296 -18.157  0.00  0.00    +0.068 C 
ATOM      6  C   UNL     1      36.018 -22.322 -17.078  0.00  0.00    +0.068 C 
ATOM      7  C   UNL     1      33.017 -23.129 -17.158  0.00  0.00    +0.140 C 
ATOM      8  C   UNL     1      33.420 -23.348 -15.844  0.00  0.00    +0.086 C 
ATOM      9  C   UNL     1      34.759 -23.848 -15.480  0.00  0.00    +0.256 C 
ATOM     10  C   UNL     1      35.356 -21.387 -19.218  0.00  0.00    +0.040 C 
ATOM     11  C   UNL     1      37.129 -21.444 -17.113  0.00  0.00    +0.018 C 
ATOM     12  C   UNL     1      36.454 -20.530 -19.224  0.00  0.00    +0.144 C 
ATOM     13  C   UNL     1      37.189 -23.671 -15.359  0.00  0.00    +0.120 C 
ATOM     14  C   UNL     1      37.342 -20.556 -18.165  0.00  0.00    +0.025 C 
ATOM     15  C   UNL     1      32.468 -23.265 -14.817  0.00  0.00    +0.009 C 
ATOM     16  C   UNL     1      31.146 -22.972 -15.109  0.00  0.00    +0.021 C 
ATOM     17  C   UNL     1      30.816 -22.796 -16.433  0.00  0.00    +0.100 C 
ENDROOT
BRANCH  12  20
ATOM     18  O   UNL     1      37.819 -19.530 -20.792  0.00  0.00    -0.126 OA
ATOM     19  O   UNL     1      35.690 -18.996 -20.766  0.00  0.00    -0.126 OA
ATOM     20  N   UNL     1      36.664 -19.643 -20.312  0.00  0.00    +0.058 N 
ENDBRANCH  12  20
BRANCH   2  21
ATOM     21  C   UNL     1      33.425 -23.497 -19.511  0.00  0.00    +0.097 C 
ATOM     22  C   UNL     1      34.075 -24.765 -20.037  0.00  0.00    +0.024 C 
ENDBRANCH   2  21
TORSDOF 2
ENDMDL
