MODEL 1
REMARK VINA RESULT:      -8.8      0.000      0.000
REMARK  Name = 6323452
REMARK  4 active torsions:
REMARK  status: ('A' for Active; 'I' for Inactive)
REMARK    1  A    between atoms: N_3  and  C_25
REMARK    2  A    between atoms: C_5  and  O_21
REMARK    3  A    between atoms: C_19  and  O_23
REMARK    4  A    between atoms: C_25  and  C_26
REMARK                            x       y       z     vdW  Elec       q    Type
REMARK                         _______ _______ _______ _____ _____    ______ ____
ROOT
ATOM      1  O   UNL     1      31.408 -10.967 -22.522  0.00  0.00    -0.469 OA
ATOM      2  O   UNL     1      31.948 -11.004 -19.870  0.00  0.00    -0.292 OA
ATOM      3  N   UNL     1      32.049  -6.029 -24.115  0.00  0.00    +0.394 N 
ATOM      4  C   UNL     1      31.680  -8.565 -22.607  0.00  0.00    +0.084 C 
ATOM      5  C   UNL     1      32.232  -7.338 -21.872  0.00  0.00    +0.080 C 
ATOM      6  C   UNL     1      33.023  -6.494 -22.935  0.00  0.00    -0.024 C 
ATOM      7  C   UNL     1      30.666  -8.131 -23.690  0.00  0.00    -0.012 C 
ATOM      8  C   UNL     1      31.149  -9.740 -21.766  0.00  0.00    +0.228 C 
ATOM      9  C   UNL     1      31.263  -7.189 -24.737  0.00  0.00    -0.072 C 
ATOM     10  C   UNL     1      32.799  -9.308 -23.254  0.00  0.00    +0.016 C 
ATOM     11  C   UNL     1      33.088  -7.750 -20.651  0.00  0.00    +0.033 C 
ATOM     12  C   UNL     1      34.247  -7.302 -23.497  0.00  0.00    +0.008 C 
ATOM     13  C   UNL     1      33.968  -8.761 -23.750  0.00  0.00    -0.025 C 
ATOM     14  C   UNL     1      32.294  -8.647 -19.701  0.00  0.00    +0.071 C 
ATOM     15  C   UNL     1      31.835  -9.901 -20.407  0.00  0.00    +0.191 C 
ATOM     16  C   UNL     1      32.545 -10.664 -23.236  0.00  0.00    +0.168 C 
ATOM     17  C   UNL     1      32.855  -5.338 -25.238  0.00  0.00    -0.095 C 
ATOM     18  C   UNL     1      34.871  -9.643 -24.345  0.00  0.00    -0.001 C 
ATOM     19  C   UNL     1      33.414 -11.550 -23.832  0.00  0.00    +0.167 C 
ATOM     20  C   UNL     1      34.582 -11.025 -24.403  0.00  0.00    +0.039 C 
ENDROOT
BRANCH   5  21
ATOM     21  O   UNL     1      31.153  -6.584 -21.317  0.00  0.00    -0.388 OA
ATOM     22  H   UNL     1      31.506  -5.817 -20.841  0.00  0.00    +0.210 HD
ENDBRANCH   5  21
BRANCH  19  23
ATOM     23  O   UNL     1      33.176 -12.884 -23.840  0.00  0.00    -0.503 OA
ATOM     24  H   UNL     1      32.957 -13.326 -23.043  0.00  0.00    +0.292 HD
ENDBRANCH  19  23
BRANCH   3  25
ATOM     25  C   UNL     1      31.063  -4.948 -23.626  0.00  0.00    -0.046 C 
BRANCH  25  26
ATOM     26  C   UNL     1      31.454  -3.571 -24.051  0.00  0.00    -0.049 C 
ATOM     27  C   UNL     1      31.483  -2.516 -23.230  0.00  0.00    -0.007 C 
ENDBRANCH  25  26
ENDBRANCH   3  25
TORSDOF 4
ENDMDL
MODEL 2
REMARK VINA RESULT:      -6.6     16.595     18.829
REMARK  Name = 6323452
REMARK  4 active torsions:
REMARK  status: ('A' for Active; 'I' for Inactive)
REMARK    1  A    between atoms: N_3  and  C_25
REMARK    2  A    between atoms: C_5  and  O_21
REMARK    3  A    between atoms: C_19  and  O_23
REMARK    4  A    between atoms: C_25  and  C_26
REMARK                            x       y       z     vdW  Elec       q    Type
REMARK                         _______ _______ _______ _____ _____    ______ ____
ROOT
ATOM      1  O   UNL     1      37.966 -26.535 -13.342  0.00  0.00    -0.469 OA
ATOM      2  O   UNL     1      38.305 -25.436 -10.890  0.00  0.00    -0.292 OA
ATOM      3  N   UNL     1      34.454 -23.575 -15.840  0.00  0.00    +0.394 N 
ATOM      4  C   UNL     1      36.228 -24.942 -13.883  0.00  0.00    +0.084 C 
ATOM      5  C   UNL     1      35.587 -23.604 -13.495  0.00  0.00    +0.080 C 
ATOM      6  C   UNL     1      35.408 -22.788 -14.825  0.00  0.00    -0.024 C 
ATOM      7  C   UNL     1      35.274 -25.752 -14.790  0.00  0.00    -0.012 C 
ATOM      8  C   UNL     1      36.829 -25.812 -12.765  0.00  0.00    +0.228 C 
ATOM      9  C   UNL     1      34.899 -25.022 -16.081  0.00  0.00    -0.072 C 
ATOM     10  C   UNL     1      37.504 -24.693 -14.613  0.00  0.00    +0.016 C 
ATOM     11  C   UNL     1      36.426 -22.865 -12.427  0.00  0.00    +0.033 C 
ATOM     12  C   UNL     1      36.798 -22.474 -15.485  0.00  0.00    +0.008 C 
ATOM     13  C   UNL     1      37.787 -23.610 -15.425  0.00  0.00    -0.025 C 
ATOM     14  C   UNL     1      36.646 -23.745 -11.195  0.00  0.00    +0.071 C 
ATOM     15  C   UNL     1      37.365 -25.020 -11.570  0.00  0.00    +0.191 C 
ATOM     16  C   UNL     1      38.424 -25.677 -14.316  0.00  0.00    +0.168 C 
ATOM     17  C   UNL     1      34.406 -22.853 -17.204  0.00  0.00    -0.095 C 
ATOM     18  C   UNL     1      39.040 -23.595 -16.037  0.00  0.00    -0.001 C 
ATOM     19  C   UNL     1      39.660 -25.691 -14.921  0.00  0.00    +0.167 C 
ATOM     20  C   UNL     1      39.960 -24.641 -15.801  0.00  0.00    +0.039 C 
ENDROOT
BRANCH   5  21
ATOM     21  O   UNL     1      34.327 -23.840 -12.864  0.00  0.00    -0.388 OA
ATOM     22  H   UNL     1      34.245 -24.782 -12.648  0.00  0.00    +0.210 HD
ENDBRANCH   5  21
BRANCH  19  23
ATOM     23  O   UNL     1      40.573 -26.656 -14.655  0.00  0.00    -0.503 OA
ATOM     24  H   UNL     1      40.294 -27.486 -14.320  0.00  0.00    +0.292 HD
ENDBRANCH  19  23
BRANCH   3  25
ATOM     25  C   UNL     1      32.992 -23.566 -15.346  0.00  0.00    -0.046 C 
BRANCH  25  26
ATOM     26  C   UNL     1      32.013 -23.278 -16.436  0.00  0.00    -0.049 C 
ATOM     27  C   UNL     1      30.728 -22.975 -16.225  0.00  0.00    -0.007 C 
ENDBRANCH  25  26
ENDBRANCH   3  25
TORSDOF 4
ENDMDL
MODEL 3
REMARK VINA RESULT:      -6.5     16.172     18.941
REMARK  Name = 6323452
REMARK  4 active torsions:
REMARK  status: ('A' for Active; 'I' for Inactive)
REMARK    1  A    between atoms: N_3  and  C_25
REMARK    2  A    between atoms: C_5  and  O_21
REMARK    3  A    between atoms: C_19  and  O_23
REMARK    4  A    between atoms: C_25  and  C_26
REMARK                            x       y       z     vdW  Elec       q    Type
REMARK                         _______ _______ _______ _____ _____    ______ ____
ROOT
ATOM      1  O   UNL     1      38.722 -23.933 -14.157  0.00  0.00    -0.469 OA
ATOM      2  O   UNL     1      39.347 -26.566 -14.236  0.00  0.00    -0.292 OA
ATOM      3  N   UNL     1      33.680 -23.549 -15.489  0.00  0.00    +0.394 N 
ATOM      4  C   UNL     1      36.493 -24.375 -14.986  0.00  0.00    +0.084 C 
ATOM      5  C   UNL     1      35.431 -25.457 -15.217  0.00  0.00    +0.080 C 
ATOM      6  C   UNL     1      34.072 -24.875 -14.686  0.00  0.00    -0.024 C 
ATOM      7  C   UNL     1      36.173 -23.120 -15.830  0.00  0.00    -0.012 C 
ATOM      8  C   UNL     1      37.975 -24.774 -15.096  0.00  0.00    +0.228 C 
ATOM      9  C   UNL     1      34.807 -22.509 -15.515  0.00  0.00    -0.072 C 
ATOM     10  C   UNL     1      36.521 -24.000 -13.543  0.00  0.00    +0.016 C 
ATOM     11  C   UNL     1      35.833 -26.793 -14.549  0.00  0.00    +0.033 C 
ATOM     12  C   UNL     1      34.143 -24.601 -13.141  0.00  0.00    +0.008 C 
ATOM     13  C   UNL     1      35.449 -24.014 -12.671  0.00  0.00    -0.025 C 
ATOM     14  C   UNL     1      37.206 -27.260 -15.035  0.00  0.00    +0.071 C 
ATOM     15  C   UNL     1      38.264 -26.229 -14.717  0.00  0.00    +0.191 C 
ATOM     16  C   UNL     1      37.809 -23.690 -13.156  0.00  0.00    +0.168 C 
ATOM     17  C   UNL     1      32.432 -22.889 -14.863  0.00  0.00    -0.095 C 
ATOM     18  C   UNL     1      35.697 -23.592 -11.364  0.00  0.00    -0.001 C 
ATOM     19  C   UNL     1      38.073 -23.256 -11.877  0.00  0.00    +0.167 C 
ATOM     20  C   UNL     1      36.997 -23.196 -10.979  0.00  0.00    +0.039 C 
ENDROOT
BRANCH   5  21
ATOM     21  O   UNL     1      35.350 -25.762 -16.611  0.00  0.00    -0.388 OA
ATOM     22  H   UNL     1      34.972 -25.006 -17.085  0.00  0.00    +0.210 HD
ENDBRANCH   5  21
BRANCH  19  23
ATOM     23  O   UNL     1      39.328 -22.932 -11.480  0.00  0.00    -0.503 OA
ATOM     24  H   UNL     1      39.653 -23.242 -10.657  0.00  0.00    +0.292 HD
ENDBRANCH  19  23
BRANCH   3  25
ATOM     25  C   UNL     1      33.258 -23.881 -16.935  0.00  0.00    -0.046 C 
BRANCH  25  26
ATOM     26  C   UNL     1      33.078 -22.663 -17.781  0.00  0.00    -0.049 C 
ATOM     27  C   UNL     1      33.718 -22.456 -18.937  0.00  0.00    -0.007 C 
ENDBRANCH  25  26
ENDBRANCH   3  25
TORSDOF 4
ENDMDL
MODEL 4
REMARK VINA RESULT:      -6.2      2.333      6.018
REMARK  Name = 6323452
REMARK  4 active torsions:
REMARK  status: ('A' for Active; 'I' for Inactive)
REMARK    1  A    between atoms: N_3  and  C_25
REMARK    2  A    between atoms: C_5  and  O_21
REMARK    3  A    between atoms: C_19  and  O_23
REMARK    4  A    between atoms: C_25  and  C_26
REMARK                            x       y       z     vdW  Elec       q    Type
REMARK                         _______ _______ _______ _____ _____    ______ ____
ROOT
ATOM      1  O   UNL     1      31.542  -5.774 -25.036  0.00  0.00    -0.469 OA
ATOM      2  O   UNL     1      34.081  -5.165 -25.752  0.00  0.00    -0.292 OA
ATOM      3  N   UNL     1      31.830  -9.923 -21.867  0.00  0.00    +0.394 N 
ATOM      4  C   UNL     1      32.287  -7.730 -23.823  0.00  0.00    +0.084 C 
ATOM      5  C   UNL     1      33.499  -8.435 -23.203  0.00  0.00    +0.080 C 
ATOM      6  C   UNL     1      33.061  -8.906 -21.770  0.00  0.00    -0.024 C 
ATOM      7  C   UNL     1      31.121  -8.728 -24.008  0.00  0.00    -0.012 C 
ATOM      8  C   UNL     1      32.509  -6.873 -25.083  0.00  0.00    +0.228 C 
ATOM      9  C   UNL     1      30.664  -9.375 -22.699  0.00  0.00    -0.072 C 
ATOM     10  C   UNL     1      31.844  -6.618 -22.934  0.00  0.00    +0.016 C 
ATOM     11  C   UNL     1      34.743  -7.518 -23.197  0.00  0.00    +0.033 C 
ATOM     12  C   UNL     1      32.708  -7.677 -20.858  0.00  0.00    +0.008 C 
ATOM     13  C   UNL     1      31.946  -6.580 -21.556  0.00  0.00    -0.025 C 
ATOM     14  C   UNL     1      35.064  -7.016 -24.606  0.00  0.00    +0.071 C 
ATOM     15  C   UNL     1      33.899  -6.238 -25.174  0.00  0.00    +0.191 C 
ATOM     16  C   UNL     1      31.364  -5.566 -23.688  0.00  0.00    +0.168 C 
ATOM     17  C   UNL     1      31.297 -10.260 -20.458  0.00  0.00    -0.095 C 
ATOM     18  C   UNL     1      31.436  -5.448 -20.920  0.00  0.00    -0.001 C 
ATOM     19  C   UNL     1      30.842  -4.447 -23.080  0.00  0.00    +0.167 C 
ATOM     20  C   UNL     1      30.870  -4.400 -21.679  0.00  0.00    +0.039 C 
ENDROOT
BRANCH   5  21
ATOM     21  O   UNL     1      33.876  -9.548 -24.016  0.00  0.00    -0.388 OA
ATOM     22  H   UNL     1      33.093 -10.085 -24.213  0.00  0.00    +0.210 HD
ENDBRANCH   5  21
BRANCH  19  23
ATOM     23  O   UNL     1      30.351  -3.410 -23.801  0.00  0.00    -0.503 OA
ATOM     24  H   UNL     1      29.698  -2.849 -23.430  0.00  0.00    +0.292 HD
ENDBRANCH  19  23
BRANCH   3  25
ATOM     25  C   UNL     1      32.278 -11.281 -22.446  0.00  0.00    -0.046 C 
BRANCH  25  26
ATOM     26  C   UNL     1      31.906 -12.434 -21.574  0.00  0.00    -0.049 C 
ATOM     27  C   UNL     1      32.309 -13.691 -21.788  0.00  0.00    -0.007 C 
ENDBRANCH  25  26
ENDBRANCH   3  25
TORSDOF 4
ENDMDL
