MODEL 1
REMARK VINA RESULT:      -9.0      0.000      0.000
REMARK  Name = 30699
REMARK  9 active torsions:
REMARK  status: ('A' for Active; 'I' for Inactive)
REMARK    1  A    between atoms: CA_5  and  N_11
REMARK    2  A    between atoms: CA_7  and  C_23
REMARK    3  A    between atoms: C_8  and  C_26
REMARK    4  A    between atoms: C_12  and  C_14
REMARK    5  A    between atoms: C_14  and  S_15
REMARK    6  A    between atoms: S_15  and  C_17
REMARK    7  A    between atoms: C_23  and  O_24
REMARK    8  A    between atoms: C_26  and  O_27
REMARK    9  A    between atoms: O_27  and  C_29
REMARK                            x       y       z     vdW  Elec       q    Type
REMARK                         _______ _______ _______ _____ _____    ______ ____
ROOT
ATOM      1  S   UNL     1      34.556 -18.708 -24.007  0.00  0.00    -0.114 S 
ATOM      2  O   UNL     1      34.679 -15.745 -20.426  0.00  0.00    -0.273 OA
ATOM      3  N   UNL     1      34.750 -16.412 -22.686  0.00  0.00    -0.242 N 
ATOM      4  C   UNL     1      35.567 -17.556 -23.048  0.00  0.00    +0.155 C 
ATOM      5  CA  UNL     1      35.676 -17.836 -21.533  0.00  0.00    +0.178 C 
ATOM      6  C   UNL     1      34.979 -16.457 -21.356  0.00  0.00    +0.251 C 
ATOM      7  CA  UNL     1      34.051 -15.670 -23.583  0.00  0.00    +0.127 C 
ATOM      8  C   UNL     1      33.826 -16.111 -24.844  0.00  0.00    +0.030 C 
ATOM      9  C   UNL     1      34.239 -17.497 -25.335  0.00  0.00    +0.086 C 
ENDROOT
BRANCH   5  11
ATOM     10  O   UNL     1      36.715 -20.060 -20.012  0.00  0.00    -0.274 OA
ATOM     11  N   UNL     1      34.915 -18.951 -20.969  0.00  0.00    -0.296 N 
ATOM     12  C   UNL     1      35.510 -19.982 -20.246  0.00  0.00    +0.234 C 
ATOM     13  H   UNL     1      33.941 -18.973 -21.107  0.00  0.00    +0.150 HD
BRANCH  12  14
ATOM     14  C   UNL     1      34.529 -21.015 -19.745  0.00  0.00    +0.147 C 
BRANCH  14  15
ATOM     15  S   UNL     1      35.433 -22.289 -18.834  0.00  0.00    -0.104 S 
BRANCH  15  17
ATOM     16  N   UNL     1      32.408 -23.428 -15.581  0.00  0.00    -0.242 NA
ATOM     17  C   UNL     1      34.252 -22.733 -17.563  0.00  0.00    +0.029 C 
ATOM     18  C   UNL     1      32.890 -22.731 -17.845  0.00  0.00    +0.027 C 
ATOM     19  C   UNL     1      34.693 -23.082 -16.292  0.00  0.00    +0.027 C 
ATOM     20  C   UNL     1      32.017 -23.084 -16.828  0.00  0.00    +0.099 C 
ATOM     21  C   UNL     1      33.739 -23.418 -15.345  0.00  0.00    +0.099 C 
ENDBRANCH  15  17
ENDBRANCH  14  15
ENDBRANCH  12  14
ENDBRANCH   5  11
BRANCH   7  23
ATOM     22  OXT UNL     1      32.378 -14.266 -22.645  0.00  0.00    -0.244 OA
ATOM     23  C   UNL     1      33.494 -14.396 -23.105  0.00  0.00    +0.352 C 
BRANCH  23  24
ATOM     24  O   UNL     1      34.412 -13.420 -23.262  0.00  0.00    -0.476 OA
ATOM     25  H   UNL     1      35.313 -13.641 -23.387  0.00  0.00    +0.295 HD
ENDBRANCH  23  24
ENDBRANCH   7  23
BRANCH   8  26
ATOM     26  C   UNL     1      33.132 -15.312 -25.921  0.00  0.00    +0.233 C 
BRANCH  26  27
ATOM     27  O   UNL     1      33.999 -14.299 -26.385  0.00  0.00    -0.444 OA
BRANCH  27  29
ATOM     28  O   UNL     1      32.618 -13.132 -27.823  0.00  0.00    -0.250 OA
ATOM     29  C   UNL     1      33.399 -13.169 -26.881  0.00  0.00    +0.318 C 
ATOM     30  C   UNL     1      33.835 -11.966 -26.103  0.00  0.00    +0.121 C 
ENDBRANCH  27  29
ENDBRANCH  26  27
ENDBRANCH   8  26
TORSDOF 9
ENDMDL
MODEL 2
REMARK VINA RESULT:      -8.7      4.098     10.993
REMARK  Name = 30699
REMARK  9 active torsions:
REMARK  status: ('A' for Active; 'I' for Inactive)
REMARK    1  A    between atoms: CA_5  and  N_11
REMARK    2  A    between atoms: CA_7  and  C_23
REMARK    3  A    between atoms: C_8  and  C_26
REMARK    4  A    between atoms: C_12  and  C_14
REMARK    5  A    between atoms: C_14  and  S_15
REMARK    6  A    between atoms: S_15  and  C_17
REMARK    7  A    between atoms: C_23  and  O_24
REMARK    8  A    between atoms: C_26  and  O_27
REMARK    9  A    between atoms: O_27  and  C_29
REMARK                            x       y       z     vdW  Elec       q    Type
REMARK                         _______ _______ _______ _____ _____    ______ ____
ROOT
ATOM      1  S   UNL     1      36.555 -21.687 -17.634  0.00  0.00    -0.114 S 
ATOM      2  O   UNL     1      32.015 -22.674 -17.817  0.00  0.00    -0.273 OA
ATOM      3  N   UNL     1      34.257 -22.916 -17.126  0.00  0.00    -0.242 N 
ATOM      4  C   UNL     1      35.301 -22.889 -18.133  0.00  0.00    +0.155 C 
ATOM      5  CA  UNL     1      34.215 -22.384 -19.108  0.00  0.00    +0.178 C 
ATOM      6  C   UNL     1      33.216 -22.696 -17.958  0.00  0.00    +0.251 C 
ATOM      7  CA  UNL     1      34.488 -23.116 -15.803  0.00  0.00    +0.127 C 
ATOM      8  C   UNL     1      35.734 -23.014 -15.280  0.00  0.00    +0.030 C 
ATOM      9  C   UNL     1      36.952 -22.576 -16.090  0.00  0.00    +0.086 C 
ENDROOT
BRANCH   5  11
ATOM     10  O   UNL     1      32.369 -21.059 -20.891  0.00  0.00    -0.274 OA
ATOM     11  N   UNL     1      34.229 -20.976 -19.504  0.00  0.00    -0.296 N 
ATOM     12  C   UNL     1      33.290 -20.427 -20.374  0.00  0.00    +0.234 C 
ATOM     13  H   UNL     1      34.931 -20.391 -19.140  0.00  0.00    +0.150 HD
BRANCH  12  14
ATOM     14  C   UNL     1      33.487 -18.951 -20.626  0.00  0.00    +0.147 C 
BRANCH  14  15
ATOM     15  S   UNL     1      35.179 -18.677 -21.205  0.00  0.00    -0.104 S 
BRANCH  15  17
ATOM     16  N   UNL     1      34.469 -17.190 -25.484  0.00  0.00    -0.242 NA
ATOM     17  C   UNL     1      34.901 -18.096 -22.876  0.00  0.00    +0.029 C 
ATOM     18  C   UNL     1      34.997 -16.740 -23.168  0.00  0.00    +0.027 C 
ATOM     19  C   UNL     1      34.589 -19.000 -23.886  0.00  0.00    +0.027 C 
ATOM     20  C   UNL     1      34.774 -16.342 -24.477  0.00  0.00    +0.099 C 
ATOM     21  C   UNL     1      34.384 -18.499 -25.162  0.00  0.00    +0.099 C 
ENDBRANCH  15  17
ENDBRANCH  14  15
ENDBRANCH  12  14
ENDBRANCH   5  11
BRANCH   7  23
ATOM     22  OXT UNL     1      32.972 -24.487 -14.590  0.00  0.00    -0.244 OA
ATOM     23  C   UNL     1      33.318 -23.381 -14.953  0.00  0.00    +0.352 C 
BRANCH  23  24
ATOM     24  O   UNL     1      32.710 -22.215 -14.654  0.00  0.00    -0.476 OA
ATOM     25  H   UNL     1      32.172 -22.152 -13.890  0.00  0.00    +0.295 HD
ENDBRANCH  23  24
ENDBRANCH   7  23
BRANCH   8  26
ATOM     26  C   UNL     1      36.085 -23.301 -13.840  0.00  0.00    +0.233 C 
BRANCH  26  27
ATOM     27  O   UNL     1      37.486 -23.234 -13.677  0.00  0.00    -0.444 OA
BRANCH  27  29
ATOM     28  O   UNL     1      38.475 -23.133 -11.592  0.00  0.00    -0.250 OA
ATOM     29  C   UNL     1      37.987 -23.768 -12.517  0.00  0.00    +0.318 C 
ATOM     30  C   UNL     1      37.852 -25.260 -12.533  0.00  0.00    +0.121 C 
ENDBRANCH  27  29
ENDBRANCH  26  27
ENDBRANCH   8  26
TORSDOF 9
ENDMDL
MODEL 3
REMARK VINA RESULT:      -8.7      5.859     10.960
REMARK  Name = 30699
REMARK  9 active torsions:
REMARK  status: ('A' for Active; 'I' for Inactive)
REMARK    1  A    between atoms: CA_5  and  N_11
REMARK    2  A    between atoms: CA_7  and  C_23
REMARK    3  A    between atoms: C_8  and  C_26
REMARK    4  A    between atoms: C_12  and  C_14
REMARK    5  A    between atoms: C_14  and  S_15
REMARK    6  A    between atoms: S_15  and  C_17
REMARK    7  A    between atoms: C_23  and  O_24
REMARK    8  A    between atoms: C_26  and  O_27
REMARK    9  A    between atoms: O_27  and  C_29
REMARK                            x       y       z     vdW  Elec       q    Type
REMARK                         _______ _______ _______ _____ _____    ______ ____
ROOT
ATOM      1  S   UNL     1      33.383 -11.776 -23.953  0.00  0.00    -0.114 S 
ATOM      2  O   UNL     1      31.972 -12.460 -19.575  0.00  0.00    -0.273 OA
ATOM      3  N   UNL     1      32.589 -13.063 -21.770  0.00  0.00    -0.242 N 
ATOM      4  C   UNL     1      32.030 -12.313 -22.880  0.00  0.00    +0.155 C 
ATOM      5  CA  UNL     1      31.547 -11.295 -21.824  0.00  0.00    +0.178 C 
ATOM      6  C   UNL     1      32.015 -12.348 -20.779  0.00  0.00    +0.251 C 
ATOM      7  CA  UNL     1      33.418 -14.127 -21.920  0.00  0.00    +0.127 C 
ATOM      8  C   UNL     1      34.023 -14.392 -23.103  0.00  0.00    +0.030 C 
ATOM      9  C   UNL     1      33.913 -13.482 -24.324  0.00  0.00    +0.086 C 
ENDROOT
BRANCH   5  11
ATOM     10  O   UNL     1      31.325  -9.370 -19.682  0.00  0.00    -0.274 OA
ATOM     11  N   UNL     1      32.244 -10.014 -21.714  0.00  0.00    -0.296 N 
ATOM     12  C   UNL     1      32.070  -9.149 -20.635  0.00  0.00    +0.234 C 
ATOM     13  H   UNL     1      32.862  -9.752 -22.433  0.00  0.00    +0.150 HD
BRANCH  12  14
ATOM     14  C   UNL     1      32.904  -7.894 -20.725  0.00  0.00    +0.147 C 
BRANCH  14  15
ATOM     15  S   UNL     1      33.479  -7.692 -22.428  0.00  0.00    -0.104 S 
BRANCH  15  17
ATOM     16  N   UNL     1      30.733  -4.348 -23.946  0.00  0.00    -0.242 NA
ATOM     17  C   UNL     1      32.407  -6.385 -23.020  0.00  0.00    +0.029 C 
ATOM     18  C   UNL     1      32.350  -6.092 -24.378  0.00  0.00    +0.027 C 
ATOM     19  C   UNL     1      31.628  -5.662 -22.124  0.00  0.00    +0.027 C 
ATOM     20  C   UNL     1      31.504  -5.073 -24.786  0.00  0.00    +0.099 C 
ATOM     21  C   UNL     1      30.816  -4.662 -22.633  0.00  0.00    +0.099 C 
ENDBRANCH  15  17
ENDBRANCH  14  15
ENDBRANCH  12  14
ENDBRANCH   5  11
BRANCH   7  23
ATOM     22  OXT UNL     1      34.767 -15.037 -20.186  0.00  0.00    -0.244 OA
ATOM     23  C   UNL     1      33.683 -14.941 -20.724  0.00  0.00    +0.352 C 
BRANCH  23  24
ATOM     24  O   UNL     1      32.543 -15.549 -20.337  0.00  0.00    -0.476 OA
ATOM     25  H   UNL     1      32.514 -16.481 -20.256  0.00  0.00    +0.295 HD
ENDBRANCH  23  24
ENDBRANCH   7  23
BRANCH   8  26
ATOM     26  C   UNL     1      34.891 -15.598 -23.371  0.00  0.00    +0.233 C 
BRANCH  26  27
ATOM     27  O   UNL     1      34.079 -16.675 -23.788  0.00  0.00    -0.444 OA
BRANCH  27  29
ATOM     28  O   UNL     1      34.828 -16.870 -25.965  0.00  0.00    -0.250 OA
ATOM     29  C   UNL     1      34.511 -17.366 -24.893  0.00  0.00    +0.318 C 
ATOM     30  C   UNL     1      34.543 -18.836 -24.605  0.00  0.00    +0.121 C 
ENDBRANCH  27  29
ENDBRANCH  26  27
ENDBRANCH   8  26
TORSDOF 9
ENDMDL
MODEL 4
REMARK VINA RESULT:      -8.6      4.452      6.469
REMARK  Name = 30699
REMARK  9 active torsions:
REMARK  status: ('A' for Active; 'I' for Inactive)
REMARK    1  A    between atoms: CA_5  and  N_11
REMARK    2  A    between atoms: CA_7  and  C_23
REMARK    3  A    between atoms: C_8  and  C_26
REMARK    4  A    between atoms: C_12  and  C_14
REMARK    5  A    between atoms: C_14  and  S_15
REMARK    6  A    between atoms: S_15  and  C_17
REMARK    7  A    between atoms: C_23  and  O_24
REMARK    8  A    between atoms: C_26  and  O_27
REMARK    9  A    between atoms: O_27  and  C_29
REMARK                            x       y       z     vdW  Elec       q    Type
REMARK                         _______ _______ _______ _____ _____    ______ ____
ROOT
ATOM      1  S   UNL     1      31.852 -12.122 -20.353  0.00  0.00    -0.114 S 
ATOM      2  O   UNL     1      33.957 -12.435 -24.487  0.00  0.00    -0.273 OA
ATOM      3  N   UNL     1      32.582 -11.483 -22.824  0.00  0.00    -0.242 N 
ATOM      4  C   UNL     1      31.633 -12.337 -22.134  0.00  0.00    +0.155 C 
ATOM      5  CA  UNL     1      32.380 -13.525 -22.779  0.00  0.00    +0.178 C 
ATOM      6  C   UNL     1      33.140 -12.441 -23.595  0.00  0.00    +0.251 C 
ATOM      7  CA  UNL     1      32.699 -10.149 -22.601  0.00  0.00    +0.127 C 
ATOM      8  C   UNL     1      32.145  -9.563 -21.511  0.00  0.00    +0.030 C 
ATOM      9  C   UNL     1      31.441 -10.344 -20.405  0.00  0.00    +0.086 C 
ENDROOT
BRANCH   5  11
ATOM     10  O   UNL     1      33.735 -15.962 -23.531  0.00  0.00    -0.274 OA
ATOM     11  N   UNL     1      33.254 -14.344 -21.939  0.00  0.00    -0.296 N 
ATOM     12  C   UNL     1      33.866 -15.509 -22.395  0.00  0.00    +0.234 C 
ATOM     13  H   UNL     1      33.417 -14.058 -21.011  0.00  0.00    +0.150 HD
BRANCH  12  14
ATOM     14  C   UNL     1      34.738 -16.180 -21.361  0.00  0.00    +0.147 C 
BRANCH  14  15
ATOM     15  S   UNL     1      35.581 -17.584 -22.127  0.00  0.00    -0.104 S 
BRANCH  15  17
ATOM     16  N   UNL     1      33.805 -21.114 -19.799  0.00  0.00    -0.242 NA
ATOM     17  C   UNL     1      34.887 -18.964 -21.219  0.00  0.00    +0.029 C 
ATOM     18  C   UNL     1      35.725 -19.918 -20.653  0.00  0.00    +0.027 C 
ATOM     19  C   UNL     1      33.509 -19.082 -21.075  0.00  0.00    +0.027 C 
ATOM     20  C   UNL     1      35.139 -20.964 -19.959  0.00  0.00    +0.099 C 
ATOM     21  C   UNL     1      33.023 -20.166 -20.362  0.00  0.00    +0.099 C 
ENDBRANCH  15  17
ENDBRANCH  14  15
ENDBRANCH  12  14
ENDBRANCH   5  11
BRANCH   7  23
ATOM     22  OXT UNL     1      34.721  -9.370 -23.577  0.00  0.00    -0.244 OA
ATOM     23  C   UNL     1      33.507  -9.379 -23.558  0.00  0.00    +0.352 C 
BRANCH  23  24
ATOM     24  O   UNL     1      32.690  -8.702 -24.390  0.00  0.00    -0.476 OA
ATOM     25  H   UNL     1      32.337  -7.876 -24.129  0.00  0.00    +0.295 HD
ENDBRANCH  23  24
ENDBRANCH   7  23
BRANCH   8  26
ATOM     26  C   UNL     1      32.160  -8.079 -21.235  0.00  0.00    +0.233 C 
BRANCH  26  27
ATOM     27  O   UNL     1      31.190  -7.443 -22.040  0.00  0.00    -0.444 OA
BRANCH  27  29
ATOM     28  O   UNL     1      32.427  -5.882 -23.211  0.00  0.00    -0.250 OA
ATOM     29  C   UNL     1      31.497  -6.177 -22.472  0.00  0.00    +0.318 C 
ATOM     30  C   UNL     1      30.523  -5.187 -21.910  0.00  0.00    +0.121 C 
ENDBRANCH  27  29
ENDBRANCH  26  27
ENDBRANCH   8  26
TORSDOF 9
ENDMDL
MODEL 5
REMARK VINA RESULT:      -8.5      3.453     10.513
REMARK  Name = 30699
REMARK  9 active torsions:
REMARK  status: ('A' for Active; 'I' for Inactive)
REMARK    1  A    between atoms: CA_5  and  N_11
REMARK    2  A    between atoms: CA_7  and  C_23
REMARK    3  A    between atoms: C_8  and  C_26
REMARK    4  A    between atoms: C_12  and  C_14
REMARK    5  A    between atoms: C_14  and  S_15
REMARK    6  A    between atoms: S_15  and  C_17
REMARK    7  A    between atoms: C_23  and  O_24
REMARK    8  A    between atoms: C_26  and  O_27
REMARK    9  A    between atoms: O_27  and  C_29
REMARK                            x       y       z     vdW  Elec       q    Type
REMARK                         _______ _______ _______ _____ _____    ______ ____
ROOT
ATOM      1  S   UNL     1      37.158 -20.785 -17.879  0.00  0.00    -0.114 S 
ATOM      2  O   UNL     1      33.103 -21.895 -19.863  0.00  0.00    -0.273 OA
ATOM      3  N   UNL     1      35.016 -22.215 -18.523  0.00  0.00    -0.242 N 
ATOM      4  C   UNL     1      36.313 -21.855 -19.065  0.00  0.00    +0.155 C 
ATOM      5  CA  UNL     1      35.536 -21.146 -20.196  0.00  0.00    +0.178 C 
ATOM      6  C   UNL     1      34.276 -21.819 -19.580  0.00  0.00    +0.251 C 
ATOM      7  CA  UNL     1      34.839 -22.771 -17.296  0.00  0.00    +0.127 C 
ATOM      8  C   UNL     1      35.824 -22.762 -16.367  0.00  0.00    +0.030 C 
ATOM      9  C   UNL     1      37.163 -22.055 -16.568  0.00  0.00    +0.086 C 
ENDROOT
BRANCH   5  11
ATOM     10  O   UNL     1      34.911 -19.431 -22.434  0.00  0.00    -0.274 OA
ATOM     11  N   UNL     1      35.477 -19.685 -20.197  0.00  0.00    -0.296 N 
ATOM     12  C   UNL     1      35.164 -18.942 -21.334  0.00  0.00    +0.234 C 
ATOM     13  H   UNL     1      35.665 -19.206 -19.359  0.00  0.00    +0.150 HD
BRANCH  12  14
ATOM     14  C   UNL     1      35.143 -17.451 -21.096  0.00  0.00    +0.147 C 
BRANCH  14  15
ATOM     15  S   UNL     1      35.049 -16.605 -22.692  0.00  0.00    -0.104 S 
BRANCH  15  17
ATOM     16  N   UNL     1      32.100 -13.216 -21.772  0.00  0.00    -0.242 NA
ATOM     17  C   UNL     1      33.898 -15.280 -22.332  0.00  0.00    +0.029 C 
ATOM     18  C   UNL     1      33.415 -14.478 -23.360  0.00  0.00    +0.027 C 
ATOM     19  C   UNL     1      33.483 -15.053 -21.025  0.00  0.00    +0.027 C 
ATOM     20  C   UNL     1      32.526 -13.468 -23.030  0.00  0.00    +0.099 C 
ATOM     21  C   UNL     1      32.591 -14.016 -20.800  0.00  0.00    +0.099 C 
ENDBRANCH  15  17
ENDBRANCH  14  15
ENDBRANCH  12  14
ENDBRANCH   5  11
BRANCH   7  23
ATOM     22  OXT UNL     1      32.816 -22.975 -16.065  0.00  0.00    -0.244 OA
ATOM     23  C   UNL     1      33.509 -23.322 -16.999  0.00  0.00    +0.352 C 
BRANCH  23  24
ATOM     24  O   UNL     1      33.197 -24.258 -17.920  0.00  0.00    -0.476 OA
ATOM     25  H   UNL     1      33.781 -24.425 -18.633  0.00  0.00    +0.295 HD
ENDBRANCH  23  24
ENDBRANCH   7  23
BRANCH   8  26
ATOM     26  C   UNL     1      35.734 -23.429 -15.015  0.00  0.00    +0.233 C 
BRANCH  26  27
ATOM     27  O   UNL     1      36.832 -24.299 -14.847  0.00  0.00    -0.444 OA
BRANCH  27  29
ATOM     28  O   UNL     1      35.843 -26.190 -15.733  0.00  0.00    -0.250 OA
ATOM     29  C   UNL     1      36.554 -25.642 -14.902  0.00  0.00    +0.318 C 
ATOM     30  C   UNL     1      37.252 -26.361 -13.788  0.00  0.00    +0.121 C 
ENDBRANCH  27  29
ENDBRANCH  26  27
ENDBRANCH   8  26
TORSDOF 9
ENDMDL
MODEL 6
REMARK VINA RESULT:      -8.5      4.900     11.726
REMARK  Name = 30699
REMARK  9 active torsions:
REMARK  status: ('A' for Active; 'I' for Inactive)
REMARK    1  A    between atoms: CA_5  and  N_11
REMARK    2  A    between atoms: CA_7  and  C_23
REMARK    3  A    between atoms: C_8  and  C_26
REMARK    4  A    between atoms: C_12  and  C_14
REMARK    5  A    between atoms: C_14  and  S_15
REMARK    6  A    between atoms: S_15  and  C_17
REMARK    7  A    between atoms: C_23  and  O_24
REMARK    8  A    between atoms: C_26  and  O_27
REMARK    9  A    between atoms: O_27  and  C_29
REMARK                            x       y       z     vdW  Elec       q    Type
REMARK                         _______ _______ _______ _____ _____    ______ ____
ROOT
ATOM      1  S   UNL     1      35.725 -22.741 -16.298  0.00  0.00    -0.114 S 
ATOM      2  O   UNL     1      31.153 -23.581 -16.361  0.00  0.00    -0.273 OA
ATOM      3  N   UNL     1      33.381 -23.786 -15.618  0.00  0.00    -0.242 N 
ATOM      4  C   UNL     1      34.430 -23.964 -16.606  0.00  0.00    +0.155 C 
ATOM      5  CA  UNL     1      33.367 -23.587 -17.661  0.00  0.00    +0.178 C 
ATOM      6  C   UNL     1      32.352 -23.670 -16.485  0.00  0.00    +0.251 C 
ATOM      7  CA  UNL     1      33.600 -23.774 -14.278  0.00  0.00    +0.127 C 
ATOM      8  C   UNL     1      34.847 -23.633 -13.766  0.00  0.00    +0.030 C 
ATOM      9  C   UNL     1      36.083 -23.378 -14.625  0.00  0.00    +0.086 C 
ENDROOT
BRANCH   5  11
ATOM     10  O   UNL     1      34.876 -22.842 -20.008  0.00  0.00    -0.274 OA
ATOM     11  N   UNL     1      33.434 -22.265 -18.283  0.00  0.00    -0.296 N 
ATOM     12  C   UNL     1      34.194 -22.003 -19.420  0.00  0.00    +0.234 C 
ATOM     13  H   UNL     1      32.920 -21.529 -17.880  0.00  0.00    +0.150 HD
BRANCH  12  14
ATOM     14  C   UNL     1      34.099 -20.573 -19.897  0.00  0.00    +0.147 C 
BRANCH  14  15
ATOM     15  S   UNL     1      35.719 -20.048 -20.505  0.00  0.00    -0.104 S 
BRANCH  15  17
ATOM     16  N   UNL     1      34.577 -16.702 -23.425  0.00  0.00    -0.242 NA
ATOM     17  C   UNL     1      35.272 -18.742 -21.646  0.00  0.00    +0.029 C 
ATOM     18  C   UNL     1      35.150 -17.433 -21.193  0.00  0.00    +0.027 C 
ATOM     19  C   UNL     1      35.048 -19.033 -22.987  0.00  0.00    +0.027 C 
ATOM     20  C   UNL     1      34.804 -16.458 -22.115  0.00  0.00    +0.099 C 
ATOM     21  C   UNL     1      34.706 -17.986 -23.827  0.00  0.00    +0.099 C 
ENDBRANCH  15  17
ENDBRANCH  14  15
ENDBRANCH  12  14
ENDBRANCH   5  11
BRANCH   7  23
ATOM     22  OXT UNL     1      31.812 -22.891 -12.984  0.00  0.00    -0.244 OA
ATOM     23  C   UNL     1      32.418 -23.854 -13.407  0.00  0.00    +0.352 C 
BRANCH  23  24
ATOM     24  O   UNL     1      32.130 -25.149 -13.164  0.00  0.00    -0.476 OA
ATOM     25  H   UNL     1      32.771 -25.811 -13.333  0.00  0.00    +0.295 HD
ENDBRANCH  23  24
ENDBRANCH   7  23
BRANCH   8  26
ATOM     26  C   UNL     1      35.182 -23.691 -12.295  0.00  0.00    +0.233 C 
BRANCH  26  27
ATOM     27  O   UNL     1      35.586 -25.001 -11.959  0.00  0.00    -0.444 OA
BRANCH  27  29
ATOM     28  O   UNL     1      37.744 -24.620 -11.227  0.00  0.00    -0.250 OA
ATOM     29  C   UNL     1      36.939 -25.226 -11.922  0.00  0.00    +0.318 C 
ATOM     30  C   UNL     1      37.306 -26.335 -12.861  0.00  0.00    +0.121 C 
ENDBRANCH  27  29
ENDBRANCH  26  27
ENDBRANCH   8  26
TORSDOF 9
ENDMDL
MODEL 7
REMARK VINA RESULT:      -8.5      4.297      9.694
REMARK  Name = 30699
REMARK  9 active torsions:
REMARK  status: ('A' for Active; 'I' for Inactive)
REMARK    1  A    between atoms: CA_5  and  N_11
REMARK    2  A    between atoms: CA_7  and  C_23
REMARK    3  A    between atoms: C_8  and  C_26
REMARK    4  A    between atoms: C_12  and  C_14
REMARK    5  A    between atoms: C_14  and  S_15
REMARK    6  A    between atoms: S_15  and  C_17
REMARK    7  A    between atoms: C_23  and  O_24
REMARK    8  A    between atoms: C_26  and  O_27
REMARK    9  A    between atoms: O_27  and  C_29
REMARK                            x       y       z     vdW  Elec       q    Type
REMARK                         _______ _______ _______ _____ _____    ______ ____
ROOT
ATOM      1  S   UNL     1      34.181 -15.447 -21.024  0.00  0.00    -0.114 S 
ATOM      2  O   UNL     1      33.474 -14.813 -25.575  0.00  0.00    -0.273 OA
ATOM      3  N   UNL     1      34.429 -15.777 -23.646  0.00  0.00    -0.242 N 
ATOM      4  C   UNL     1      34.898 -14.899 -22.590  0.00  0.00    +0.155 C 
ATOM      5  CA  UNL     1      34.150 -13.768 -23.329  0.00  0.00    +0.178 C 
ATOM      6  C   UNL     1      33.945 -14.815 -24.461  0.00  0.00    +0.251 C 
ATOM      7  CA  UNL     1      34.546 -17.129 -23.612  0.00  0.00    +0.127 C 
ATOM      8  C   UNL     1      34.842 -17.785 -22.464  0.00  0.00    +0.030 C 
ATOM      9  C   UNL     1      34.970 -17.091 -21.110  0.00  0.00    +0.086 C 
ENDROOT
BRANCH   5  11
ATOM     10  O   UNL     1      33.127 -11.071 -23.471  0.00  0.00    -0.274 OA
ATOM     11  N   UNL     1      32.897 -13.269 -22.762  0.00  0.00    -0.296 N 
ATOM     12  C   UNL     1      32.488 -11.943 -22.884  0.00  0.00    +0.234 C 
ATOM     13  H   UNL     1      32.318 -13.897 -22.273  0.00  0.00    +0.150 HD
BRANCH  12  14
ATOM     14  C   UNL     1      31.154 -11.659 -22.237  0.00  0.00    +0.147 C 
BRANCH  14  15
ATOM     15  S   UNL     1      31.436 -11.014 -20.571  0.00  0.00    -0.104 S 
BRANCH  15  17
ATOM     16  N   UNL     1      32.230  -6.577 -21.415  0.00  0.00    -0.242 NA
ATOM     17  C   UNL     1      31.747  -9.281 -20.901  0.00  0.00    +0.029 C 
ATOM     18  C   UNL     1      31.453  -8.745 -22.149  0.00  0.00    +0.027 C 
ATOM     19  C   UNL     1      32.283  -8.467 -19.909  0.00  0.00    +0.027 C 
ATOM     20  C   UNL     1      31.710  -7.399 -22.354  0.00  0.00    +0.099 C 
ATOM     21  C   UNL     1      32.503  -7.134 -20.214  0.00  0.00    +0.099 C 
ENDBRANCH  15  17
ENDBRANCH  14  15
ENDBRANCH  12  14
ENDBRANCH   5  11
BRANCH   7  23
ATOM     22  OXT UNL     1      33.550 -18.827 -24.944  0.00  0.00    -0.244 OA
ATOM     23  C   UNL     1      34.272 -17.855 -24.861  0.00  0.00    +0.352 C 
BRANCH  23  24
ATOM     24  O   UNL     1      34.944 -17.270 -25.874  0.00  0.00    -0.476 OA
ATOM     25  H   UNL     1      35.717 -16.772 -25.697  0.00  0.00    +0.295 HD
ENDBRANCH  23  24
ENDBRANCH   7  23
BRANCH   8  26
ATOM     26  C   UNL     1      35.070 -19.274 -22.361  0.00  0.00    +0.233 C 
BRANCH  26  27
ATOM     27  O   UNL     1      34.089 -19.840 -21.518  0.00  0.00    -0.444 OA
BRANCH  27  29
ATOM     28  O   UNL     1      35.685 -20.339 -19.923  0.00  0.00    -0.250 OA
ATOM     29  C   UNL     1      34.548 -20.431 -20.368  0.00  0.00    +0.318 C 
ATOM     30  C   UNL     1      33.452 -21.218 -19.716  0.00  0.00    +0.121 C 
ENDBRANCH  27  29
ENDBRANCH  26  27
ENDBRANCH   8  26
TORSDOF 9
ENDMDL
MODEL 8
REMARK VINA RESULT:      -8.3      4.957      7.582
REMARK  Name = 30699
REMARK  9 active torsions:
REMARK  status: ('A' for Active; 'I' for Inactive)
REMARK    1  A    between atoms: CA_5  and  N_11
REMARK    2  A    between atoms: CA_7  and  C_23
REMARK    3  A    between atoms: C_8  and  C_26
REMARK    4  A    between atoms: C_12  and  C_14
REMARK    5  A    between atoms: C_14  and  S_15
REMARK    6  A    between atoms: S_15  and  C_17
REMARK    7  A    between atoms: C_23  and  O_24
REMARK    8  A    between atoms: C_26  and  O_27
REMARK    9  A    between atoms: O_27  and  C_29
REMARK                            x       y       z     vdW  Elec       q    Type
REMARK                         _______ _______ _______ _____ _____    ______ ____
ROOT
ATOM      1  S   UNL     1      32.146 -11.140 -22.136  0.00  0.00    -0.114 S 
ATOM      2  O   UNL     1      35.513 -10.415 -25.260  0.00  0.00    -0.273 OA
ATOM      3  N   UNL     1      33.588  -9.909 -23.995  0.00  0.00    -0.242 N 
ATOM      4  C   UNL     1      32.546 -10.913 -23.884  0.00  0.00    +0.155 C 
ATOM      5  CA  UNL     1      33.567 -11.902 -24.489  0.00  0.00    +0.178 C 
ATOM      6  C   UNL     1      34.453 -10.645 -24.726  0.00  0.00    +0.251 C 
ATOM      7  CA  UNL     1      33.504  -8.670 -23.447  0.00  0.00    +0.127 C 
ATOM      8  C   UNL     1      32.573  -8.373 -22.509  0.00  0.00    +0.030 C 
ATOM      9  C   UNL     1      31.617  -9.407 -21.918  0.00  0.00    +0.086 C 
ENDROOT
BRANCH   5  11
ATOM     10  O   UNL     1      33.148 -14.759 -24.526  0.00  0.00    -0.274 OA
ATOM     11  N   UNL     1      34.185 -12.895 -23.611  0.00  0.00    -0.296 N 
ATOM     12  C   UNL     1      33.919 -14.259 -23.707  0.00  0.00    +0.234 C 
ATOM     13  H   UNL     1      34.818 -12.586 -22.923  0.00  0.00    +0.150 HD
BRANCH  12  14
ATOM     14  C   UNL     1      34.684 -15.098 -22.712  0.00  0.00    +0.147 C 
BRANCH  14  15
ATOM     15  S   UNL     1      33.511 -15.870 -21.572  0.00  0.00    -0.104 S 
BRANCH  15  17
ATOM     16  N   UNL     1      35.425 -19.986 -20.919  0.00  0.00    -0.242 NA
ATOM     17  C   UNL     1      34.258 -17.478 -21.318  0.00  0.00    +0.029 C 
ATOM     18  C   UNL     1      35.638 -17.627 -21.405  0.00  0.00    +0.027 C 
ATOM     19  C   UNL     1      33.461 -18.580 -21.031  0.00  0.00    +0.027 C 
ATOM     20  C   UNL     1      36.167 -18.891 -21.199  0.00  0.00    +0.099 C 
ATOM     21  C   UNL     1      34.088 -19.801 -20.842  0.00  0.00    +0.099 C 
ENDBRANCH  15  17
ENDBRANCH  14  15
ENDBRANCH  12  14
ENDBRANCH   5  11
BRANCH   7  23
ATOM     22  OXT UNL     1      34.455  -7.046 -24.900  0.00  0.00    -0.244 OA
ATOM     23  C   UNL     1      34.510  -7.684 -23.869  0.00  0.00    +0.352 C 
BRANCH  23  24
ATOM     24  O   UNL     1      35.481  -7.611 -22.936  0.00  0.00    -0.476 OA
ATOM     25  H   UNL     1      35.484  -8.210 -22.216  0.00  0.00    +0.295 HD
ENDBRANCH  23  24
ENDBRANCH   7  23
BRANCH   8  26
ATOM     26  C   UNL     1      32.362  -7.001 -21.913  0.00  0.00    +0.233 C 
BRANCH  26  27
ATOM     27  O   UNL     1      31.029  -6.593 -22.138  0.00  0.00    -0.444 OA
BRANCH  27  29
ATOM     28  O   UNL     1      30.179  -4.445 -22.173  0.00  0.00    -0.250 OA
ATOM     29  C   UNL     1      30.862  -5.336 -22.661  0.00  0.00    +0.318 C 
ATOM     30  C   UNL     1      31.641  -5.195 -23.933  0.00  0.00    +0.121 C 
ENDBRANCH  27  29
ENDBRANCH  26  27
ENDBRANCH   8  26
TORSDOF 9
ENDMDL
MODEL 9
REMARK VINA RESULT:      -8.3      5.165     11.011
REMARK  Name = 30699
REMARK  9 active torsions:
REMARK  status: ('A' for Active; 'I' for Inactive)
REMARK    1  A    between atoms: CA_5  and  N_11
REMARK    2  A    between atoms: CA_7  and  C_23
REMARK    3  A    between atoms: C_8  and  C_26
REMARK    4  A    between atoms: C_12  and  C_14
REMARK    5  A    between atoms: C_14  and  S_15
REMARK    6  A    between atoms: S_15  and  C_17
REMARK    7  A    between atoms: C_23  and  O_24
REMARK    8  A    between atoms: C_26  and  O_27
REMARK    9  A    between atoms: O_27  and  C_29
REMARK                            x       y       z     vdW  Elec       q    Type
REMARK                         _______ _______ _______ _____ _____    ______ ____
ROOT
ATOM      1  S   UNL     1      33.819 -13.779 -24.649  0.00  0.00    -0.114 S 
ATOM      2  O   UNL     1      32.297 -12.651 -20.403  0.00  0.00    -0.273 OA
ATOM      3  N   UNL     1      32.899 -14.083 -22.178  0.00  0.00    -0.242 N 
ATOM      4  C   UNL     1      32.414 -13.779 -23.511  0.00  0.00    +0.155 C 
ATOM      5  CA  UNL     1      31.993 -12.407 -22.941  0.00  0.00    +0.178 C 
ATOM      6  C   UNL     1      32.365 -13.009 -21.556  0.00  0.00    +0.251 C 
ATOM      7  CA  UNL     1      33.648 -15.175 -21.877  0.00  0.00    +0.127 C 
ATOM      8  C   UNL     1      34.249 -15.909 -22.845  0.00  0.00    +0.030 C 
ATOM      9  C   UNL     1      34.225 -15.528 -24.324  0.00  0.00    +0.086 C 
ENDROOT
BRANCH   5  11
ATOM     10  O   UNL     1      31.180  -9.642 -22.743  0.00  0.00    -0.274 OA
ATOM     11  N   UNL     1      32.783 -11.227 -23.296  0.00  0.00    -0.296 N 
ATOM     12  C   UNL     1      32.301  -9.927 -23.163  0.00  0.00    +0.234 C 
ATOM     13  H   UNL     1      33.695 -11.359 -23.642  0.00  0.00    +0.150 HD
BRANCH  12  14
ATOM     14  C   UNL     1      33.295  -8.868 -23.573  0.00  0.00    +0.147 C 
BRANCH  14  15
ATOM     15  S   UNL     1      33.494  -7.693 -22.211  0.00  0.00    -0.104 S 
BRANCH  15  17
ATOM     16  N   UNL     1      30.534  -4.395 -23.389  0.00  0.00    -0.242 NA
ATOM     17  C   UNL     1      32.337  -6.405 -22.672  0.00  0.00    +0.029 C 
ATOM     18  C   UNL     1      31.424  -5.923 -21.741  0.00  0.00    +0.027 C 
ATOM     19  C   UNL     1      32.351  -5.884 -23.961  0.00  0.00    +0.027 C 
ATOM     20  C   UNL     1      30.552  -4.925 -22.146  0.00  0.00    +0.099 C 
ATOM     21  C   UNL     1      31.436  -4.889 -24.266  0.00  0.00    +0.099 C 
ENDBRANCH  15  17
ENDBRANCH  14  15
ENDBRANCH  12  14
ENDBRANCH   5  11
BRANCH   7  23
ATOM     22  OXT UNL     1      34.913 -15.581 -19.906  0.00  0.00    -0.244 OA
ATOM     23  C   UNL     1      33.833 -15.487 -20.452  0.00  0.00    +0.352 C 
BRANCH  23  24
ATOM     24  O   UNL     1      32.627 -15.647 -19.870  0.00  0.00    -0.476 OA
ATOM     25  H   UNL     1      32.502 -15.399 -18.976  0.00  0.00    +0.295 HD
ENDBRANCH  23  24
ENDBRANCH   7  23
BRANCH   8  26
ATOM     26  C   UNL     1      35.027 -17.179 -22.600  0.00  0.00    +0.233 C 
BRANCH  26  27
ATOM     27  O   UNL     1      34.129 -18.231 -22.315  0.00  0.00    -0.444 OA
BRANCH  27  29
ATOM     28  O   UNL     1      35.468 -18.992 -20.592  0.00  0.00    -0.250 OA
ATOM     29  C   UNL     1      34.401 -18.971 -21.192  0.00  0.00    +0.318 C 
ATOM     30  C   UNL     1      33.196 -19.765 -20.791  0.00  0.00    +0.121 C 
ENDBRANCH  27  29
ENDBRANCH  26  27
ENDBRANCH   8  26
TORSDOF 9
ENDMDL
