MODEL 1
REMARK VINA RESULT:      -7.0      0.000      0.000
REMARK  Name = 24748050
REMARK  5 active torsions:
REMARK  status: ('A' for Active; 'I' for Inactive)
REMARK    1  A    between atoms: C_1  and  C_11
REMARK    2  A    between atoms: C_2  and  C_9
REMARK    3  A    between atoms: C_4  and  O_7
REMARK    4  A    between atoms: C_11  and  C_12
REMARK    5  A    between atoms: C_12  and  N_13
REMARK                            x       y       z     vdW  Elec       q    Type
REMARK                         _______ _______ _______ _____ _____    ______ ____
ROOT
ATOM      1  C   UNL     1      35.054 -19.351 -21.277  0.00  0.00    -0.024 C 
ATOM      2  C   UNL     1      34.824 -21.148 -19.680  0.00  0.00    +0.011 C 
ATOM      3  C   UNL     1      35.633 -20.304 -20.440  0.00  0.00    -0.006 C 
ATOM      4  C   UNL     1      33.435 -21.040 -19.759  0.00  0.00    +0.130 C 
ATOM      5  C   UNL     1      33.666 -19.242 -21.356  0.00  0.00    -0.001 C 
ATOM      6  C   UNL     1      32.856 -20.087 -20.598  0.00  0.00    +0.036 C 
ENDROOT
BRANCH   4   7
ATOM      7  O   UNL     1      32.630 -21.857 -19.024  0.00  0.00    -0.506 OA
ATOM      8  H   UNL     1      31.715 -21.912 -19.218  0.00  0.00    +0.292 HD
ENDBRANCH   4   7
BRANCH   2   9
ATOM      9  C   UNL     1      35.460 -22.163 -18.788  0.00  0.00    +0.029 C 
ATOM     10  C   UNL     1      36.660 -21.599 -18.034  0.00  0.00    +0.005 C 
ENDBRANCH   2   9
BRANCH   1  11
ATOM     11  C   UNL     1      35.920 -18.447 -22.089  0.00  0.00    +0.002 C 
BRANCH  11  12
ATOM     12  C   UNL     1      35.379 -18.255 -23.513  0.00  0.00    -0.081 C 
BRANCH  12  13
ATOM     13  N   UNL     1      35.445 -16.858 -23.928  0.00  0.00    +0.381 N 
ATOM     14  H   UNL     1      36.003 -16.329 -23.257  0.00  0.00    -0.089 HD
ATOM     15  H   UNL     1      34.502 -16.469 -23.967  0.00  0.00    -0.089 HD
ATOM     16  H   UNL     1      35.876 -16.797 -24.850  0.00  0.00    -0.089 HD
ENDBRANCH  12  13
ENDBRANCH  11  12
ENDBRANCH   1  11
TORSDOF 5
ENDMDL
MODEL 2
REMARK VINA RESULT:      -6.7      3.695      5.733
REMARK  Name = 24748050
REMARK  5 active torsions:
REMARK  status: ('A' for Active; 'I' for Inactive)
REMARK    1  A    between atoms: C_1  and  C_11
REMARK    2  A    between atoms: C_2  and  C_9
REMARK    3  A    between atoms: C_4  and  O_7
REMARK    4  A    between atoms: C_11  and  C_12
REMARK    5  A    between atoms: C_12  and  N_13
REMARK                            x       y       z     vdW  Elec       q    Type
REMARK                         _______ _______ _______ _____ _____    ______ ____
ROOT
ATOM      1  C   UNL     1      34.536 -18.770 -22.216  0.00  0.00    -0.024 C 
ATOM      2  C   UNL     1      34.626 -16.649 -23.366  0.00  0.00    +0.011 C 
ATOM      3  C   UNL     1      34.524 -17.377 -22.182  0.00  0.00    -0.006 C 
ATOM      4  C   UNL     1      34.738 -17.316 -24.586  0.00  0.00    +0.130 C 
ATOM      5  C   UNL     1      34.649 -19.437 -23.436  0.00  0.00    -0.001 C 
ATOM      6  C   UNL     1      34.749 -18.710 -24.621  0.00  0.00    +0.036 C 
ENDROOT
BRANCH   4   7
ATOM      7  O   UNL     1      34.838 -16.620 -25.754  0.00  0.00    -0.506 OA
ATOM      8  H   UNL     1      35.200 -17.029 -26.514  0.00  0.00    +0.292 HD
ENDBRANCH   4   7
BRANCH   2   9
ATOM      9  C   UNL     1      34.613 -15.157 -23.311  0.00  0.00    +0.029 C 
ATOM     10  C   UNL     1      34.338 -14.632 -21.906  0.00  0.00    +0.005 C 
ENDBRANCH   2   9
BRANCH   1  11
ATOM     11  C   UNL     1      34.428 -19.549 -20.948  0.00  0.00    +0.002 C 
BRANCH  11  12
ATOM     12  C   UNL     1      32.975 -19.918 -20.619  0.00  0.00    -0.081 C 
BRANCH  12  13
ATOM     13  N   UNL     1      32.903 -21.062 -19.716  0.00  0.00    +0.381 N 
ATOM     14  H   UNL     1      32.498 -21.859 -20.207  0.00  0.00    -0.089 HD
ATOM     15  H   UNL     1      32.320 -20.825 -18.912  0.00  0.00    -0.089 HD
ATOM     16  H   UNL     1      33.842 -21.302 -19.396  0.00  0.00    -0.089 HD
ENDBRANCH  12  13
ENDBRANCH  11  12
ENDBRANCH   1  11
TORSDOF 5
ENDMDL
MODEL 3
REMARK VINA RESULT:      -6.7      3.679      5.397
REMARK  Name = 24748050
REMARK  5 active torsions:
REMARK  status: ('A' for Active; 'I' for Inactive)
REMARK    1  A    between atoms: C_1  and  C_11
REMARK    2  A    between atoms: C_2  and  C_9
REMARK    3  A    between atoms: C_4  and  O_7
REMARK    4  A    between atoms: C_11  and  C_12
REMARK    5  A    between atoms: C_12  and  N_13
REMARK                            x       y       z     vdW  Elec       q    Type
REMARK                         _______ _______ _______ _____ _____    ______ ____
ROOT
ATOM      1  C   UNL     1      34.729 -19.022 -21.483  0.00  0.00    -0.024 C 
ATOM      2  C   UNL     1      34.750 -16.622 -21.760  0.00  0.00    +0.011 C 
ATOM      3  C   UNL     1      34.555 -17.743 -20.954  0.00  0.00    -0.006 C 
ATOM      4  C   UNL     1      35.117 -16.780 -23.097  0.00  0.00    +0.130 C 
ATOM      5  C   UNL     1      35.097 -19.180 -22.819  0.00  0.00    -0.001 C 
ATOM      6  C   UNL     1      35.290 -18.059 -23.626  0.00  0.00    +0.036 C 
ENDROOT
BRANCH   4   7
ATOM      7  O   UNL     1      35.311 -15.696 -23.899  0.00  0.00    -0.506 OA
ATOM      8  H   UNL     1      35.959 -15.058 -23.676  0.00  0.00    +0.292 HD
ENDBRANCH   4   7
BRANCH   2   9
ATOM      9  C   UNL     1      34.561 -15.261 -21.177  0.00  0.00    +0.029 C 
ATOM     10  C   UNL     1      33.183 -15.087 -20.546  0.00  0.00    +0.005 C 
ENDBRANCH   2   9
BRANCH   1  11
ATOM     11  C   UNL     1      34.522 -20.221 -20.620  0.00  0.00    +0.002 C 
BRANCH  11  12
ATOM     12  C   UNL     1      33.045 -20.419 -20.253  0.00  0.00    -0.081 C 
BRANCH  12  13
ATOM     13  N   UNL     1      32.824 -21.702 -19.593  0.00  0.00    +0.381 N 
ATOM     14  H   UNL     1      31.964 -21.661 -19.047  0.00  0.00    -0.089 HD
ATOM     15  H   UNL     1      33.610 -21.907 -18.975  0.00  0.00    -0.089 HD
ATOM     16  H   UNL     1      32.744 -22.437 -20.296  0.00  0.00    -0.089 HD
ENDBRANCH  12  13
ENDBRANCH  11  12
ENDBRANCH   1  11
TORSDOF 5
ENDMDL
MODEL 4
REMARK VINA RESULT:      -6.5      3.646      5.735
REMARK  Name = 24748050
REMARK  5 active torsions:
REMARK  status: ('A' for Active; 'I' for Inactive)
REMARK    1  A    between atoms: C_1  and  C_11
REMARK    2  A    between atoms: C_2  and  C_9
REMARK    3  A    between atoms: C_4  and  O_7
REMARK    4  A    between atoms: C_11  and  C_12
REMARK    5  A    between atoms: C_12  and  N_13
REMARK                            x       y       z     vdW  Elec       q    Type
REMARK                         _______ _______ _______ _____ _____    ______ ____
ROOT
ATOM      1  C   UNL     1      34.826 -18.653 -22.435  0.00  0.00    -0.024 C 
ATOM      2  C   UNL     1      34.609 -16.504 -23.516  0.00  0.00    +0.011 C 
ATOM      3  C   UNL     1      34.737 -17.264 -22.354  0.00  0.00    -0.006 C 
ATOM      4  C   UNL     1      34.569 -17.134 -24.760  0.00  0.00    +0.130 C 
ATOM      5  C   UNL     1      34.786 -19.283 -23.678  0.00  0.00    -0.001 C 
ATOM      6  C   UNL     1      34.658 -18.524 -24.841  0.00  0.00    +0.036 C 
ENDROOT
BRANCH   4   7
ATOM      7  O   UNL     1      34.445 -16.407 -25.905  0.00  0.00    -0.506 OA
ATOM      8  H   UNL     1      35.203 -16.035 -26.309  0.00  0.00    +0.292 HD
ENDBRANCH   4   7
BRANCH   2   9
ATOM      9  C   UNL     1      34.516 -15.017 -23.411  0.00  0.00    +0.029 C 
ATOM     10  C   UNL     1      34.285 -14.552 -21.977  0.00  0.00    +0.005 C 
ENDBRANCH   2   9
BRANCH   1  11
ATOM     11  C   UNL     1      34.963 -19.466 -21.191  0.00  0.00    +0.002 C 
BRANCH  11  12
ATOM     12  C   UNL     1      36.406 -19.482 -20.668  0.00  0.00    -0.081 C 
BRANCH  12  13
ATOM     13  N   UNL     1      36.560 -20.406 -19.549  0.00  0.00    +0.381 N 
ATOM     14  H   UNL     1      36.757 -19.881 -18.697  0.00  0.00    -0.089 HD
ATOM     15  H   UNL     1      37.331 -21.046 -19.740  0.00  0.00    -0.089 HD
ATOM     16  H   UNL     1      35.699 -20.939 -19.427  0.00  0.00    -0.089 HD
ENDBRANCH  12  13
ENDBRANCH  11  12
ENDBRANCH   1  11
TORSDOF 5
ENDMDL
MODEL 5
REMARK VINA RESULT:      -6.5      3.833      5.129
REMARK  Name = 24748050
REMARK  5 active torsions:
REMARK  status: ('A' for Active; 'I' for Inactive)
REMARK    1  A    between atoms: C_1  and  C_11
REMARK    2  A    between atoms: C_2  and  C_9
REMARK    3  A    between atoms: C_4  and  O_7
REMARK    4  A    between atoms: C_11  and  C_12
REMARK    5  A    between atoms: C_12  and  N_13
REMARK                            x       y       z     vdW  Elec       q    Type
REMARK                         _______ _______ _______ _____ _____    ______ ____
ROOT
ATOM      1  C   UNL     1      34.437 -16.632 -24.202  0.00  0.00    -0.024 C 
ATOM      2  C   UNL     1      34.722 -16.394 -21.815  0.00  0.00    +0.011 C 
ATOM      3  C   UNL     1      34.278 -15.885 -23.036  0.00  0.00    -0.006 C 
ATOM      4  C   UNL     1      35.327 -17.649 -21.763  0.00  0.00    +0.130 C 
ATOM      5  C   UNL     1      35.043 -17.888 -24.149  0.00  0.00    -0.001 C 
ATOM      6  C   UNL     1      35.488 -18.396 -22.930  0.00  0.00    +0.036 C 
ENDROOT
BRANCH   4   7
ATOM      7  O   UNL     1      35.767 -18.161 -20.579  0.00  0.00    -0.506 OA
ATOM      8  H   UNL     1      35.578 -17.717 -19.777  0.00  0.00    +0.292 HD
ENDBRANCH   4   7
BRANCH   2   9
ATOM      9  C   UNL     1      34.542 -15.581 -20.576  0.00  0.00    +0.029 C 
ATOM     10  C   UNL     1      33.137 -14.998 -20.465  0.00  0.00    +0.005 C 
ENDBRANCH   2   9
BRANCH   1  11
ATOM     11  C   UNL     1      33.962 -16.088 -25.507  0.00  0.00    +0.002 C 
BRANCH  11  12
ATOM     12  C   UNL     1      33.243 -14.742 -25.345  0.00  0.00    -0.081 C 
BRANCH  12  13
ATOM     13  N   UNL     1      32.328 -14.485 -26.452  0.00  0.00    +0.381 N 
ATOM     14  H   UNL     1      31.663 -13.760 -26.184  0.00  0.00    -0.089 HD
ATOM     15  H   UNL     1      31.823 -15.341 -26.682  0.00  0.00    -0.089 HD
ATOM     16  H   UNL     1      32.859 -14.175 -27.267  0.00  0.00    -0.089 HD
ENDBRANCH  12  13
ENDBRANCH  11  12
ENDBRANCH   1  11
TORSDOF 5
ENDMDL
MODEL 6
REMARK VINA RESULT:      -6.4      3.917      6.268
REMARK  Name = 24748050
REMARK  5 active torsions:
REMARK  status: ('A' for Active; 'I' for Inactive)
REMARK    1  A    between atoms: C_1  and  C_11
REMARK    2  A    between atoms: C_2  and  C_9
REMARK    3  A    between atoms: C_4  and  O_7
REMARK    4  A    between atoms: C_11  and  C_12
REMARK    5  A    between atoms: C_12  and  N_13
REMARK                            x       y       z     vdW  Elec       q    Type
REMARK                         _______ _______ _______ _____ _____    ______ ____
ROOT
ATOM      1  C   UNL     1      35.196 -17.576 -22.687  0.00  0.00    -0.024 C 
ATOM      2  C   UNL     1      34.271 -15.679 -23.863  0.00  0.00    +0.011 C 
ATOM      3  C   UNL     1      34.748 -16.255 -22.686  0.00  0.00    -0.006 C 
ATOM      4  C   UNL     1      34.242 -16.424 -25.041  0.00  0.00    +0.130 C 
ATOM      5  C   UNL     1      35.166 -18.321 -23.866  0.00  0.00    -0.001 C 
ATOM      6  C   UNL     1      34.689 -17.746 -25.043  0.00  0.00    +0.036 C 
ENDROOT
BRANCH   4   7
ATOM      7  O   UNL     1      33.779 -15.877 -26.200  0.00  0.00    -0.506 OA
ATOM      8  H   UNL     1      33.418 -15.012 -26.199  0.00  0.00    +0.292 HD
ENDBRANCH   4   7
BRANCH   2   9
ATOM      9  C   UNL     1      33.797 -14.263 -23.844  0.00  0.00    +0.029 C 
ATOM     10  C   UNL     1      32.791 -14.005 -22.727  0.00  0.00    +0.005 C 
ENDBRANCH   2   9
BRANCH   1  11
ATOM     11  C   UNL     1      35.706 -18.192 -21.428  0.00  0.00    +0.002 C 
BRANCH  11  12
ATOM     12  C   UNL     1      35.004 -19.519 -21.109  0.00  0.00    -0.081 C 
BRANCH  12  13
ATOM     13  N   UNL     1      35.727 -20.278 -20.094  0.00  0.00    +0.381 N 
ATOM     14  H   UNL     1      36.269 -19.639 -19.513  0.00  0.00    -0.089 HD
ATOM     15  H   UNL     1      36.356 -20.941 -20.549  0.00  0.00    -0.089 HD
ATOM     16  H   UNL     1      35.062 -20.787 -19.511  0.00  0.00    -0.089 HD
ENDBRANCH  12  13
ENDBRANCH  11  12
ENDBRANCH   1  11
TORSDOF 5
ENDMDL
MODEL 7
REMARK VINA RESULT:      -6.3      3.386      5.284
REMARK  Name = 24748050
REMARK  5 active torsions:
REMARK  status: ('A' for Active; 'I' for Inactive)
REMARK    1  A    between atoms: C_1  and  C_11
REMARK    2  A    between atoms: C_2  and  C_9
REMARK    3  A    between atoms: C_4  and  O_7
REMARK    4  A    between atoms: C_11  and  C_12
REMARK    5  A    between atoms: C_12  and  N_13
REMARK                            x       y       z     vdW  Elec       q    Type
REMARK                         _______ _______ _______ _____ _____    ______ ____
ROOT
ATOM      1  C   UNL     1      34.284 -20.222 -20.540  0.00  0.00    -0.024 C 
ATOM      2  C   UNL     1      35.092 -18.728 -22.258  0.00  0.00    +0.011 C 
ATOM      3  C   UNL     1      34.038 -19.397 -21.637  0.00  0.00    -0.006 C 
ATOM      4  C   UNL     1      36.394 -18.886 -21.783  0.00  0.00    +0.130 C 
ATOM      5  C   UNL     1      35.586 -20.380 -20.065  0.00  0.00    -0.001 C 
ATOM      6  C   UNL     1      36.641 -19.713 -20.687  0.00  0.00    +0.036 C 
ENDROOT
BRANCH   4   7
ATOM      7  O   UNL     1      37.436 -18.241 -22.379  0.00  0.00    -0.506 OA
ATOM      8  H   UNL     1      37.647 -18.417 -23.274  0.00  0.00    +0.292 HD
ENDBRANCH   4   7
BRANCH   2   9
ATOM      9  C   UNL     1      34.810 -17.848 -23.431  0.00  0.00    +0.029 C 
ATOM     10  C   UNL     1      34.528 -18.645 -24.699  0.00  0.00    +0.005 C 
ENDBRANCH   2   9
BRANCH   1  11
ATOM     11  C   UNL     1      33.156 -20.936 -19.876  0.00  0.00    +0.002 C 
BRANCH  11  12
ATOM     12  C   UNL     1      33.640 -22.137 -19.051  0.00  0.00    -0.081 C 
BRANCH  12  13
ATOM     13  N   UNL     1      32.607 -22.609 -18.134  0.00  0.00    +0.381 N 
ATOM     14  H   UNL     1      32.616 -23.629 -18.107  0.00  0.00    -0.089 HD
ATOM     15  H   UNL     1      31.694 -22.286 -18.455  0.00  0.00    -0.089 HD
ATOM     16  H   UNL     1      32.788 -22.243 -17.200  0.00  0.00    -0.089 HD
ENDBRANCH  12  13
ENDBRANCH  11  12
ENDBRANCH   1  11
TORSDOF 5
ENDMDL
MODEL 8
REMARK VINA RESULT:      -6.3      4.245      5.464
REMARK  Name = 24748050
REMARK  5 active torsions:
REMARK  status: ('A' for Active; 'I' for Inactive)
REMARK    1  A    between atoms: C_1  and  C_11
REMARK    2  A    between atoms: C_2  and  C_9
REMARK    3  A    between atoms: C_4  and  O_7
REMARK    4  A    between atoms: C_11  and  C_12
REMARK    5  A    between atoms: C_12  and  N_13
REMARK                            x       y       z     vdW  Elec       q    Type
REMARK                         _______ _______ _______ _____ _____    ______ ____
ROOT
ATOM      1  C   UNL     1      34.136 -14.938 -23.275  0.00  0.00    -0.024 C 
ATOM      2  C   UNL     1      35.042 -17.139 -22.864  0.00  0.00    +0.011 C 
ATOM      3  C   UNL     1      34.581 -16.170 -23.754  0.00  0.00    -0.006 C 
ATOM      4  C   UNL     1      35.057 -16.877 -21.494  0.00  0.00    +0.130 C 
ATOM      5  C   UNL     1      34.151 -14.676 -21.905  0.00  0.00    -0.001 C 
ATOM      6  C   UNL     1      34.611 -15.645 -21.015  0.00  0.00    +0.036 C 
ENDROOT
BRANCH   4   7
ATOM      7  O   UNL     1      35.504 -17.813 -20.611  0.00  0.00    -0.506 OA
ATOM      8  H   UNL     1      34.957 -18.536 -20.377  0.00  0.00    +0.292 HD
ENDBRANCH   4   7
BRANCH   2   9
ATOM      9  C   UNL     1      35.516 -18.452 -23.394  0.00  0.00    +0.029 C 
ATOM     10  C   UNL     1      34.602 -19.000 -24.486  0.00  0.00    +0.005 C 
ENDBRANCH   2   9
BRANCH   1  11
ATOM     11  C   UNL     1      33.643 -13.902 -24.228  0.00  0.00    +0.002 C 
BRANCH  11  12
ATOM     12  C   UNL     1      33.506 -12.525 -23.563  0.00  0.00    -0.081 C 
BRANCH  12  13
ATOM     13  N   UNL     1      34.349 -11.528 -24.214  0.00  0.00    +0.381 N 
ATOM     14  H   UNL     1      33.772 -10.921 -24.796  0.00  0.00    -0.089 HD
ATOM     15  H   UNL     1      35.043 -11.998 -24.796  0.00  0.00    -0.089 HD
ATOM     16  H   UNL     1      34.823 -10.968 -23.505  0.00  0.00    -0.089 HD
ENDBRANCH  12  13
ENDBRANCH  11  12
ENDBRANCH   1  11
TORSDOF 5
ENDMDL
MODEL 9
REMARK VINA RESULT:      -6.3      3.159      4.386
REMARK  Name = 24748050
REMARK  5 active torsions:
REMARK  status: ('A' for Active; 'I' for Inactive)
REMARK    1  A    between atoms: C_1  and  C_11
REMARK    2  A    between atoms: C_2  and  C_9
REMARK    3  A    between atoms: C_4  and  O_7
REMARK    4  A    between atoms: C_11  and  C_12
REMARK    5  A    between atoms: C_12  and  N_13
REMARK                            x       y       z     vdW  Elec       q    Type
REMARK                         _______ _______ _______ _____ _____    ______ ____
ROOT
ATOM      1  C   UNL     1      34.555 -16.073 -21.729  0.00  0.00    -0.024 C 
ATOM      2  C   UNL     1      34.525 -18.487 -21.809  0.00  0.00    +0.011 C 
ATOM      3  C   UNL     1      34.385 -17.301 -21.090  0.00  0.00    -0.006 C 
ATOM      4  C   UNL     1      34.837 -18.446 -23.168  0.00  0.00    +0.130 C 
ATOM      5  C   UNL     1      34.868 -16.032 -23.088  0.00  0.00    -0.001 C 
ATOM      6  C   UNL     1      35.009 -17.218 -23.807  0.00  0.00    +0.036 C 
ENDROOT
BRANCH   4   7
ATOM      7  O   UNL     1      34.977 -19.596 -23.885  0.00  0.00    -0.506 OA
ATOM      8  H   UNL     1      34.729 -20.417 -23.509  0.00  0.00    +0.292 HD
ENDBRANCH   4   7
BRANCH   2   9
ATOM      9  C   UNL     1      34.337 -19.793 -21.109  0.00  0.00    +0.029 C 
ATOM     10  C   UNL     1      32.908 -19.982 -20.609  0.00  0.00    +0.005 C 
ENDBRANCH   2   9
BRANCH   1  11
ATOM     11  C   UNL     1      34.406 -14.804 -20.960  0.00  0.00    +0.002 C 
BRANCH  11  12
ATOM     12  C   UNL     1      32.935 -14.474 -20.671  0.00  0.00    -0.081 C 
BRANCH  12  13
ATOM     13  N   UNL     1      32.305 -13.798 -21.801  0.00  0.00    +0.381 N 
ATOM     14  H   UNL     1      31.443 -13.349 -21.492  0.00  0.00    -0.089 HD
ATOM     15  H   UNL     1      32.091 -14.480 -22.529  0.00  0.00    -0.089 HD
ATOM     16  H   UNL     1      32.941 -13.092 -22.172  0.00  0.00    -0.089 HD
ENDBRANCH  12  13
ENDBRANCH  11  12
ENDBRANCH   1  11
TORSDOF 5
ENDMDL
