MODEL 1
REMARK VINA RESULT:     -11.9      0.000      0.000
REMARK  Name = 5288011
REMARK  9 active torsions:
REMARK  status: ('A' for Active; 'I' for Inactive)
REMARK    1  A    between atoms: C_5  and  O_19
REMARK    2  A    between atoms: C_5  and  C_22
REMARK    3  A    between atoms: C_8  and  C_31
REMARK    4  A    between atoms: C_10  and  C_11
REMARK    5  A    between atoms: C_16  and  O_17
REMARK    6  A    between atoms: O_19  and  O_20
REMARK    7  A    between atoms: C_22  and  C_23
REMARK    8  A    between atoms: C_28  and  O_29
REMARK    9  A    between atoms: C_31  and  C_32
REMARK                            x       y       z     vdW  Elec       q    Type
REMARK                         _______ _______ _______ _____ _____    ______ ____
ROOT
ATOM      1  O   UNL     1      34.806 -24.394 -10.817  0.00  0.00    -0.270 OA
ATOM      2  N   UNL     1      34.768 -23.834 -13.083  0.00  0.00    -0.232 N 
ATOM      3  N   UNL     1      36.940 -23.344 -13.484  0.00  0.00    -0.220 NA
ATOM      4  N   UNL     1      34.053 -23.254 -15.686  0.00  0.00    -0.406 NA
ATOM      5  C   UNL     1      36.822 -23.755 -12.051  0.00  0.00    +0.282 C 
ATOM      6  C   UNL     1      35.732 -23.436 -13.932  0.00  0.00    +0.162 C 
ATOM      7  C   UNL     1      35.334 -24.053 -11.863  0.00  0.00    +0.281 C 
ATOM      8  C   UNL     1      35.296 -23.134 -15.326  0.00  0.00    +0.144 C 
ATOM      9  C   UNL     1      33.467 -23.955 -13.463  0.00  0.00    +0.159 C 
ATOM     10  C   UNL     1      33.133 -23.676 -14.739  0.00  0.00    +0.129 C 
ENDROOT
BRANCH  10  11
ATOM     11  C   UNL     1      31.722 -23.791 -15.169  0.00  0.00    +0.027 C 
ATOM     12  C   UNL     1      30.902 -24.779 -14.623  0.00  0.00    +0.005 C 
ATOM     13  C   UNL     1      31.209 -22.910 -16.122  0.00  0.00    +0.005 C 
ATOM     14  C   UNL     1      29.573 -24.887 -15.029  0.00  0.00    +0.037 C 
ATOM     15  C   UNL     1      29.879 -23.018 -16.529  0.00  0.00    +0.037 C 
ATOM     16  C   UNL     1      29.060 -24.006 -15.981  0.00  0.00    +0.134 C 
BRANCH  16  17
ATOM     17  O   UNL     1      27.763 -24.112 -16.378  0.00  0.00    -0.506 OA
ATOM     18  H   UNL     1      27.426 -23.537 -17.037  0.00  0.00    +0.292 HD
ENDBRANCH  16  17
ENDBRANCH  10  11
BRANCH   5  19
ATOM     19  O   UNL     1      37.184 -22.776 -11.089  0.00  0.00    -0.196 OA
BRANCH  19  20
ATOM     20  O   UNL     1      38.138 -21.911 -11.763  0.00  0.00    -0.247 OA
ATOM     21  H   UNL     1      37.870 -21.793 -12.688  0.00  0.00    +0.253 HD
ENDBRANCH  19  20
ENDBRANCH   5  19
BRANCH   5  22
ATOM     22  C   UNL     1      37.654 -25.014 -11.840  0.00  0.00    +0.090 C 
BRANCH  22  23
ATOM     23  C   UNL     1      38.463 -25.358 -13.063  0.00  0.00    -0.017 C 
ATOM     24  C   UNL     1      39.722 -24.799 -13.229  0.00  0.00    -0.001 C 
ATOM     25  C   UNL     1      37.937 -26.228 -14.007  0.00  0.00    -0.001 C 
ATOM     26  C   UNL     1      40.471 -25.116 -14.361  0.00  0.00    +0.036 C 
ATOM     27  C   UNL     1      38.686 -26.546 -15.140  0.00  0.00    +0.036 C 
ATOM     28  C   UNL     1      39.953 -25.990 -15.318  0.00  0.00    +0.134 C 
BRANCH  28  29
ATOM     29  O   UNL     1      40.685 -26.300 -16.422  0.00  0.00    -0.506 OA
ATOM     30  H   UNL     1      40.305 -26.217 -17.274  0.00  0.00    +0.292 HD
ENDBRANCH  28  29
ENDBRANCH  22  23
ENDBRANCH   5  22
BRANCH   8  31
ATOM     31  C   UNL     1      36.342 -22.683 -16.300  0.00  0.00    +0.088 C 
BRANCH  31  32
ATOM     32  C   UNL     1      35.716 -22.211 -17.579  0.00  0.00    -0.015 C 
ATOM     33  C   UNL     1      34.397 -22.546 -17.865  0.00  0.00    -0.004 C 
ATOM     34  C   UNL     1      36.462 -21.445 -18.468  0.00  0.00    -0.004 C 
ATOM     35  C   UNL     1      33.816 -22.108 -19.055  0.00  0.00    -0.000 C 
ATOM     36  C   UNL     1      35.880 -21.008 -19.659  0.00  0.00    -0.000 C 
ATOM     37  C   UNL     1      34.557 -21.339 -19.952  0.00  0.00    -0.000 C 
ENDBRANCH  31  32
ENDBRANCH   8  31
TORSDOF 9
ENDMDL
MODEL 2
REMARK VINA RESULT:     -11.0      2.102      8.023
REMARK  Name = 5288011
REMARK  9 active torsions:
REMARK  status: ('A' for Active; 'I' for Inactive)
REMARK    1  A    between atoms: C_5  and  O_19
REMARK    2  A    between atoms: C_5  and  C_22
REMARK    3  A    between atoms: C_8  and  C_31
REMARK    4  A    between atoms: C_10  and  C_11
REMARK    5  A    between atoms: C_16  and  O_17
REMARK    6  A    between atoms: O_19  and  O_20
REMARK    7  A    between atoms: C_22  and  C_23
REMARK    8  A    between atoms: C_28  and  O_29
REMARK    9  A    between atoms: C_31  and  C_32
REMARK                            x       y       z     vdW  Elec       q    Type
REMARK                         _______ _______ _______ _____ _____    ______ ____
ROOT
ATOM      1  O   UNL     1      31.668 -25.093 -13.121  0.00  0.00    -0.270 OA
ATOM      2  N   UNL     1      32.936 -24.308 -14.917  0.00  0.00    -0.232 N 
ATOM      3  N   UNL     1      31.335 -23.684 -16.388  0.00  0.00    -0.220 NA
ATOM      4  N   UNL     1      34.956 -23.599 -16.662  0.00  0.00    -0.406 NA
ATOM      5  C   UNL     1      30.652 -24.188 -15.157  0.00  0.00    +0.282 C 
ATOM      6  C   UNL     1      32.591 -23.805 -16.116  0.00  0.00    +0.162 C 
ATOM      7  C   UNL     1      31.796 -24.597 -14.229  0.00  0.00    +0.281 C 
ATOM      8  C   UNL     1      33.717 -23.438 -17.023  0.00  0.00    +0.144 C 
ATOM      9  C   UNL     1      34.234 -24.477 -14.544  0.00  0.00    +0.159 C 
ATOM     10  C   UNL     1      35.210 -24.120 -15.403  0.00  0.00    +0.129 C 
ENDROOT
BRANCH  10  11
ATOM     11  C   UNL     1      36.627 -24.307 -15.020  0.00  0.00    +0.027 C 
ATOM     12  C   UNL     1      37.633 -23.634 -15.714  0.00  0.00    +0.005 C 
ATOM     13  C   UNL     1      36.958 -25.157 -13.965  0.00  0.00    +0.005 C 
ATOM     14  C   UNL     1      38.969 -23.811 -15.353  0.00  0.00    +0.037 C 
ATOM     15  C   UNL     1      38.294 -25.335 -13.603  0.00  0.00    +0.037 C 
ATOM     16  C   UNL     1      39.300 -24.661 -14.297  0.00  0.00    +0.134 C 
BRANCH  16  17
ATOM     17  O   UNL     1      40.602 -24.835 -13.946  0.00  0.00    -0.506 OA
ATOM     18  H   UNL     1      41.270 -24.316 -14.351  0.00  0.00    +0.292 HD
ENDBRANCH  16  17
ENDBRANCH  10  11
BRANCH   5  19
ATOM     19  O   UNL     1      29.816 -25.323 -15.327  0.00  0.00    -0.196 OA
BRANCH  19  20
ATOM     20  O   UNL     1      29.056 -25.426 -14.092  0.00  0.00    -0.247 OA
ATOM     21  H   UNL     1      29.403 -26.157 -13.558  0.00  0.00    +0.253 HD
ENDBRANCH  19  20
ENDBRANCH   5  19
BRANCH   5  22
ATOM     22  C   UNL     1      29.848 -23.045 -14.549  0.00  0.00    +0.090 C 
BRANCH  22  23
ATOM     23  C   UNL     1      28.706 -22.633 -15.439  0.00  0.00    -0.017 C 
ATOM     24  C   UNL     1      28.821 -22.784 -16.813  0.00  0.00    -0.001 C 
ATOM     25  C   UNL     1      27.554 -22.105 -14.871  0.00  0.00    -0.001 C 
ATOM     26  C   UNL     1      27.764 -22.401 -17.638  0.00  0.00    +0.036 C 
ATOM     27  C   UNL     1      26.496 -21.721 -15.696  0.00  0.00    +0.036 C 
ATOM     28  C   UNL     1      26.601 -21.869 -17.079  0.00  0.00    +0.134 C 
BRANCH  28  29
ATOM     29  O   UNL     1      25.569 -21.497 -17.885  0.00  0.00    -0.506 OA
ATOM     30  H   UNL     1      25.630 -21.621 -18.811  0.00  0.00    +0.292 HD
ENDBRANCH  28  29
ENDBRANCH  22  23
ENDBRANCH   5  22
BRANCH   8  31
ATOM     31  C   UNL     1      33.372 -22.879 -18.369  0.00  0.00    +0.088 C 
BRANCH  31  32
ATOM     32  C   UNL     1      34.478 -22.010 -18.890  0.00  0.00    -0.015 C 
ATOM     33  C   UNL     1      34.240 -21.162 -19.966  0.00  0.00    -0.004 C 
ATOM     34  C   UNL     1      35.733 -22.061 -18.292  0.00  0.00    -0.004 C 
ATOM     35  C   UNL     1      35.269 -20.355 -20.450  0.00  0.00    -0.000 C 
ATOM     36  C   UNL     1      36.762 -21.254 -18.777  0.00  0.00    -0.000 C 
ATOM     37  C   UNL     1      36.530 -20.401 -19.856  0.00  0.00    -0.000 C 
ENDBRANCH  31  32
ENDBRANCH   8  31
TORSDOF 9
ENDMDL
MODEL 3
REMARK VINA RESULT:     -10.3      2.053      3.125
REMARK  Name = 5288011
REMARK  9 active torsions:
REMARK  status: ('A' for Active; 'I' for Inactive)
REMARK    1  A    between atoms: C_5  and  O_19
REMARK    2  A    between atoms: C_5  and  C_22
REMARK    3  A    between atoms: C_8  and  C_31
REMARK    4  A    between atoms: C_10  and  C_11
REMARK    5  A    between atoms: C_16  and  O_17
REMARK    6  A    between atoms: O_19  and  O_20
REMARK    7  A    between atoms: C_22  and  C_23
REMARK    8  A    between atoms: C_28  and  O_29
REMARK    9  A    between atoms: C_31  and  C_32
REMARK                            x       y       z     vdW  Elec       q    Type
REMARK                         _______ _______ _______ _____ _____    ______ ____
ROOT
ATOM      1  O   UNL     1      36.114 -22.731 -13.988  0.00  0.00    -0.270 OA
ATOM      2  N   UNL     1      34.962 -22.791 -16.018  0.00  0.00    -0.232 N 
ATOM      3  N   UNL     1      36.626 -22.454 -17.513  0.00  0.00    -0.220 NA
ATOM      4  N   UNL     1      33.057 -22.913 -18.013  0.00  0.00    -0.406 NA
ATOM      5  C   UNL     1      37.236 -22.469 -16.149  0.00  0.00    +0.282 C 
ATOM      6  C   UNL     1      35.368 -22.645 -17.292  0.00  0.00    +0.162 C 
ATOM      7  C   UNL     1      36.052 -22.687 -15.206  0.00  0.00    +0.281 C 
ATOM      8  C   UNL     1      34.302 -22.718 -18.333  0.00  0.00    +0.144 C 
ATOM      9  C   UNL     1      33.658 -22.992 -15.687  0.00  0.00    +0.159 C 
ATOM     10  C   UNL     1      32.740 -23.057 -16.672  0.00  0.00    +0.129 C 
ENDROOT
BRANCH  10  11
ATOM     11  C   UNL     1      31.314 -23.263 -16.331  0.00  0.00    +0.027 C 
ATOM     12  C   UNL     1      30.943 -24.294 -15.467  0.00  0.00    +0.005 C 
ATOM     13  C   UNL     1      30.339 -22.426 -16.876  0.00  0.00    +0.005 C 
ATOM     14  C   UNL     1      29.600 -24.488 -15.148  0.00  0.00    +0.037 C 
ATOM     15  C   UNL     1      28.995 -22.620 -16.556  0.00  0.00    +0.037 C 
ATOM     16  C   UNL     1      28.625 -23.651 -15.692  0.00  0.00    +0.134 C 
BRANCH  16  17
ATOM     17  O   UNL     1      27.314 -23.841 -15.381  0.00  0.00    -0.506 OA
ATOM     18  H   UNL     1      26.831 -24.531 -15.790  0.00  0.00    +0.292 HD
ENDBRANCH  16  17
ENDBRANCH  10  11
BRANCH   5  19
ATOM     19  O   UNL     1      37.888 -21.274 -15.743  0.00  0.00    -0.196 OA
BRANCH  19  20
ATOM     20  O   UNL     1      37.744 -20.361 -16.864  0.00  0.00    -0.247 OA
ATOM     21  H   UNL     1      37.073 -19.693 -16.653  0.00  0.00    +0.253 HD
ENDBRANCH  19  20
ENDBRANCH   5  19
BRANCH   5  22
ATOM     22  C   UNL     1      38.211 -23.638 -16.069  0.00  0.00    +0.090 C 
BRANCH  22  23
ATOM     23  C   UNL     1      37.922 -24.522 -14.885  0.00  0.00    -0.017 C 
ATOM     24  C   UNL     1      38.521 -24.248 -13.664  0.00  0.00    -0.001 C 
ATOM     25  C   UNL     1      37.061 -25.601 -15.033  0.00  0.00    -0.001 C 
ATOM     26  C   UNL     1      38.255 -25.068 -12.568  0.00  0.00    +0.036 C 
ATOM     27  C   UNL     1      36.794 -26.422 -13.936  0.00  0.00    +0.036 C 
ATOM     28  C   UNL     1      37.391 -26.156 -12.705  0.00  0.00    +0.134 C 
BRANCH  28  29
ATOM     29  O   UNL     1      37.131 -26.955 -11.634  0.00  0.00    -0.506 OA
ATOM     30  H   UNL     1      37.787 -27.542 -11.318  0.00  0.00    +0.292 HD
ENDBRANCH  28  29
ENDBRANCH  22  23
ENDBRANCH   5  22
BRANCH   8  31
ATOM     31  C   UNL     1      34.715 -22.555 -19.764  0.00  0.00    +0.088 C 
BRANCH  31  32
ATOM     32  C   UNL     1      34.489 -21.148 -20.231  0.00  0.00    -0.015 C 
ATOM     33  C   UNL     1      33.193 -20.648 -20.310  0.00  0.00    -0.004 C 
ATOM     34  C   UNL     1      35.577 -20.355 -20.581  0.00  0.00    -0.004 C 
ATOM     35  C   UNL     1      32.983 -19.340 -20.745  0.00  0.00    -0.000 C 
ATOM     36  C   UNL     1      35.366 -19.047 -21.017  0.00  0.00    -0.000 C 
ATOM     37  C   UNL     1      34.070 -18.539 -21.099  0.00  0.00    -0.000 C 
ENDBRANCH  31  32
ENDBRANCH   8  31
TORSDOF 9
ENDMDL
MODEL 4
REMARK VINA RESULT:      -9.9     11.356     15.327
REMARK  Name = 5288011
REMARK  9 active torsions:
REMARK  status: ('A' for Active; 'I' for Inactive)
REMARK    1  A    between atoms: C_5  and  O_19
REMARK    2  A    between atoms: C_5  and  C_22
REMARK    3  A    between atoms: C_8  and  C_31
REMARK    4  A    between atoms: C_10  and  C_11
REMARK    5  A    between atoms: C_16  and  O_17
REMARK    6  A    between atoms: O_19  and  O_20
REMARK    7  A    between atoms: C_22  and  C_23
REMARK    8  A    between atoms: C_28  and  O_29
REMARK    9  A    between atoms: C_31  and  C_32
REMARK                            x       y       z     vdW  Elec       q    Type
REMARK                         _______ _______ _______ _____ _____    ______ ____
ROOT
ATOM      1  O   UNL     1      31.944 -12.497 -19.270  0.00  0.00    -0.270 OA
ATOM      2  N   UNL     1      32.535 -13.188 -21.421  0.00  0.00    -0.232 N 
ATOM      3  N   UNL     1      31.817 -11.455 -22.686  0.00  0.00    -0.220 NA
ATOM      4  N   UNL     1      33.419 -14.572 -23.641  0.00  0.00    -0.406 NA
ATOM      5  C   UNL     1      31.523 -11.128 -21.257  0.00  0.00    +0.282 C 
ATOM      6  C   UNL     1      32.376 -12.617 -22.629  0.00  0.00    +0.162 C 
ATOM      7  C   UNL     1      32.023 -12.346 -20.479  0.00  0.00    +0.281 C 
ATOM      8  C   UNL     1      32.868 -13.405 -23.796  0.00  0.00    +0.144 C 
ATOM      9  C   UNL     1      33.109 -14.411 -21.263  0.00  0.00    +0.159 C 
ATOM     10  C   UNL     1      33.542 -15.073 -22.354  0.00  0.00    +0.129 C 
ENDROOT
BRANCH  10  11
ATOM     11  C   UNL     1      34.159 -16.410 -22.204  0.00  0.00    +0.027 C 
ATOM     12  C   UNL     1      35.114 -16.847 -23.122  0.00  0.00    +0.005 C 
ATOM     13  C   UNL     1      33.783 -17.235 -21.143  0.00  0.00    +0.005 C 
ATOM     14  C   UNL     1      35.694 -18.107 -22.979  0.00  0.00    +0.037 C 
ATOM     15  C   UNL     1      34.364 -18.496 -21.001  0.00  0.00    +0.037 C 
ATOM     16  C   UNL     1      35.319 -18.932 -21.919  0.00  0.00    +0.134 C 
BRANCH  16  17
ATOM     17  O   UNL     1      35.885 -20.162 -21.780  0.00  0.00    -0.506 OA
ATOM     18  H   UNL     1      36.649 -20.384 -22.275  0.00  0.00    +0.292 HD
ENDBRANCH  16  17
ENDBRANCH  10  11
BRANCH   5  19
ATOM     19  O   UNL     1      30.154 -10.947 -20.926  0.00  0.00    -0.196 OA
BRANCH  19  20
ATOM     20  O   UNL     1      30.153 -10.492 -19.545  0.00  0.00    -0.247 OA
ATOM     21  H   UNL     1      29.755  -9.609 -19.496  0.00  0.00    +0.253 HD
ENDBRANCH  19  20
ENDBRANCH   5  19
BRANCH   5  22
ATOM     22  C   UNL     1      32.314  -9.883 -20.875  0.00  0.00    +0.090 C 
BRANCH  22  23
ATOM     23  C   UNL     1      32.315  -8.863 -21.982  0.00  0.00    -0.017 C 
ATOM     24  C   UNL     1      33.437  -8.071 -22.180  0.00  0.00    -0.001 C 
ATOM     25  C   UNL     1      31.193  -8.729 -22.788  0.00  0.00    -0.001 C 
ATOM     26  C   UNL     1      33.438  -7.125 -23.205  0.00  0.00    +0.036 C 
ATOM     27  C   UNL     1      31.194  -7.782 -23.813  0.00  0.00    +0.036 C 
ATOM     28  C   UNL     1      32.316  -6.981 -24.022  0.00  0.00    +0.134 C 
BRANCH  28  29
ATOM     29  O   UNL     1      32.318  -6.058 -25.023  0.00  0.00    -0.506 OA
ATOM     30  H   UNL     1      32.063  -5.175 -24.846  0.00  0.00    +0.292 HD
ENDBRANCH  28  29
ENDBRANCH  22  23
ENDBRANCH   5  22
BRANCH   8  31
ATOM     31  C   UNL     1      32.704 -12.804 -25.159  0.00  0.00    +0.088 C 
BRANCH  31  32
ATOM     32  C   UNL     1      33.819 -11.847 -25.462  0.00  0.00    -0.015 C 
ATOM     33  C   UNL     1      34.194 -10.903 -24.511  0.00  0.00    -0.004 C 
ATOM     34  C   UNL     1      34.467 -11.910 -26.690  0.00  0.00    -0.004 C 
ATOM     35  C   UNL     1      35.230 -10.013 -24.792  0.00  0.00    -0.000 C 
ATOM     36  C   UNL     1      35.503 -11.019 -26.972  0.00  0.00    -0.000 C 
ATOM     37  C   UNL     1      35.884 -10.071 -26.023  0.00  0.00    -0.000 C 
ENDBRANCH  31  32
ENDBRANCH   8  31
TORSDOF 9
ENDMDL
MODEL 5
REMARK VINA RESULT:      -9.4      3.666      7.361
REMARK  Name = 5288011
REMARK  9 active torsions:
REMARK  status: ('A' for Active; 'I' for Inactive)
REMARK    1  A    between atoms: C_5  and  O_19
REMARK    2  A    between atoms: C_5  and  C_22
REMARK    3  A    between atoms: C_8  and  C_31
REMARK    4  A    between atoms: C_10  and  C_11
REMARK    5  A    between atoms: C_16  and  O_17
REMARK    6  A    between atoms: O_19  and  O_20
REMARK    7  A    between atoms: C_22  and  C_23
REMARK    8  A    between atoms: C_28  and  O_29
REMARK    9  A    between atoms: C_31  and  C_32
REMARK                            x       y       z     vdW  Elec       q    Type
REMARK                         _______ _______ _______ _____ _____    ______ ____
ROOT
ATOM      1  O   UNL     1      33.155 -21.532 -20.338  0.00  0.00    -0.270 OA
ATOM      2  N   UNL     1      33.901 -22.262 -18.249  0.00  0.00    -0.232 N 
ATOM      3  N   UNL     1      36.096 -21.719 -18.317  0.00  0.00    -0.220 NA
ATOM      4  N   UNL     1      34.147 -23.356 -15.726  0.00  0.00    -0.406 NA
ATOM      5  C   UNL     1      35.477 -21.274 -19.602  0.00  0.00    +0.282 C 
ATOM      6  C   UNL     1      35.113 -22.244 -17.665  0.00  0.00    +0.162 C 
ATOM      7  C   UNL     1      34.010 -21.687 -19.480  0.00  0.00    +0.281 C 
ATOM      8  C   UNL     1      35.194 -22.848 -16.304  0.00  0.00    +0.144 C 
ATOM      9  C   UNL     1      32.808 -22.798 -17.642  0.00  0.00    +0.159 C 
ATOM     10  C   UNL     1      32.940 -23.322 -16.407  0.00  0.00    +0.129 C 
ENDROOT
BRANCH  10  11
ATOM     11  C   UNL     1      31.765 -23.920 -15.735  0.00  0.00    +0.027 C 
ATOM     12  C   UNL     1      31.910 -24.542 -14.495  0.00  0.00    +0.005 C 
ATOM     13  C   UNL     1      30.511 -23.864 -16.343  0.00  0.00    +0.005 C 
ATOM     14  C   UNL     1      30.802 -25.105 -13.862  0.00  0.00    +0.037 C 
ATOM     15  C   UNL     1      29.402 -24.428 -15.710  0.00  0.00    +0.037 C 
ATOM     16  C   UNL     1      29.548 -25.048 -14.469  0.00  0.00    +0.134 C 
BRANCH  16  17
ATOM     17  O   UNL     1      28.468 -25.599 -13.853  0.00  0.00    -0.506 OA
ATOM     18  H   UNL     1      28.428 -26.525 -13.716  0.00  0.00    +0.292 HD
ENDBRANCH  16  17
ENDBRANCH  10  11
BRANCH   5  19
ATOM     19  O   UNL     1      35.989 -21.874 -20.783  0.00  0.00    -0.196 OA
BRANCH  19  20
ATOM     20  O   UNL     1      37.423 -21.980 -20.567  0.00  0.00    -0.247 OA
ATOM     21  H   UNL     1      37.654 -21.567 -19.721  0.00  0.00    +0.253 HD
ENDBRANCH  19  20
ENDBRANCH   5  19
BRANCH   5  22
ATOM     22  C   UNL     1      35.603 -19.759 -19.700  0.00  0.00    +0.090 C 
BRANCH  22  23
ATOM     23  C   UNL     1      35.424 -19.275 -21.115  0.00  0.00    -0.017 C 
ATOM     24  C   UNL     1      36.495 -18.697 -21.781  0.00  0.00    -0.001 C 
ATOM     25  C   UNL     1      34.188 -19.414 -21.732  0.00  0.00    -0.001 C 
ATOM     26  C   UNL     1      36.328 -18.248 -23.090  0.00  0.00    +0.036 C 
ATOM     27  C   UNL     1      34.021 -18.965 -23.042  0.00  0.00    +0.036 C 
ATOM     28  C   UNL     1      35.091 -18.382 -23.721  0.00  0.00    +0.134 C 
BRANCH  28  29
ATOM     29  O   UNL     1      34.929 -17.945 -25.000  0.00  0.00    -0.506 OA
ATOM     30  H   UNL     1      35.404 -18.351 -25.697  0.00  0.00    +0.292 HD
ENDBRANCH  28  29
ENDBRANCH  22  23
ENDBRANCH   5  22
BRANCH   8  31
ATOM     31  C   UNL     1      36.529 -22.851 -15.623  0.00  0.00    +0.088 C 
BRANCH  31  32
ATOM     32  C   UNL     1      36.620 -23.968 -14.625  0.00  0.00    -0.015 C 
ATOM     33  C   UNL     1      36.315 -23.725 -13.290  0.00  0.00    -0.004 C 
ATOM     34  C   UNL     1      37.010 -25.235 -15.044  0.00  0.00    -0.004 C 
ATOM     35  C   UNL     1      36.400 -24.763 -12.362  0.00  0.00    -0.000 C 
ATOM     36  C   UNL     1      37.097 -26.273 -14.115  0.00  0.00    -0.000 C 
ATOM     37  C   UNL     1      36.791 -26.037 -12.775  0.00  0.00    -0.000 C 
ENDBRANCH  31  32
ENDBRANCH   8  31
TORSDOF 9
ENDMDL
