MODEL 1
REMARK VINA RESULT:      -7.4      0.000      0.000
REMARK  Name = 11507040
REMARK  6 active torsions:
REMARK  status: ('A' for Active; 'I' for Inactive)
REMARK    1  A    between atoms: C_5  and  O_10
REMARK    2  A    between atoms: C_6  and  O_12
REMARK    3  A    between atoms: C_8  and  C_14
REMARK    4  A    between atoms: C_9  and  C_17
REMARK    5  A    between atoms: C_14  and  O_15
REMARK    6  A    between atoms: C_17  and  C_18
REMARK                            x       y       z     vdW  Elec       q    Type
REMARK                         _______ _______ _______ _____ _____    ______ ____
ROOT
ATOM      1  S   UNL     1      34.573 -19.141 -22.913  0.00  0.00    -0.069 S 
ATOM      2  O   UNL     1      35.037 -16.742 -24.152  0.00  0.00    -0.340 OA
ATOM      3  N   UNL     1      35.601 -18.111 -20.734  0.00  0.00    -0.264 NA
ATOM      4  C   UNL     1      35.573 -17.010 -21.732  0.00  0.00    +0.170 C 
ATOM      5  C   UNL     1      34.404 -16.077 -21.398  0.00  0.00    +0.165 C 
ATOM      6  C   UNL     1      34.056 -15.172 -22.578  0.00  0.00    +0.169 C 
ATOM      7  C   UNL     1      35.511 -17.614 -23.137  0.00  0.00    +0.192 C 
ATOM      8  C   UNL     1      33.851 -16.012 -23.840  0.00  0.00    +0.175 C 
ATOM      9  C   UNL     1      35.075 -19.177 -21.242  0.00  0.00    +0.081 C 
ENDROOT
BRANCH   5  10
ATOM     10  O   UNL     1      34.781 -15.270 -20.281  0.00  0.00    -0.380 OA
ATOM     11  H   UNL     1      33.984 -14.915 -19.855  0.00  0.00    +0.211 HD
ENDBRANCH   5  10
BRANCH   6  12
ATOM     12  O   UNL     1      32.864 -14.464 -22.250  0.00  0.00    -0.379 OA
ATOM     13  H   UNL     1      32.101 -15.057 -22.337  0.00  0.00    +0.211 HD
ENDBRANCH   6  12
BRANCH   8  14
ATOM     14  C   UNL     1      33.528 -15.152 -25.060  0.00  0.00    +0.169 C 
BRANCH  14  15
ATOM     15  O   UNL     1      33.841 -15.897 -26.224  0.00  0.00    -0.379 OA
ATOM     16  H   UNL     1      33.076 -16.437 -26.477  0.00  0.00    +0.211 HD
ENDBRANCH  14  15
ENDBRANCH   8  14
BRANCH   9  17
ATOM     17  C   UNL     1      34.907 -20.449 -20.484  0.00  0.00    +0.052 C 
BRANCH  17  18
ATOM     18  C   UNL     1      33.450 -20.658 -20.081  0.00  0.00    +0.007 C 
ATOM     19  C   UNL     1      33.268 -21.828 -19.124  0.00  0.00    +0.000 C 
ENDBRANCH  17  18
ENDBRANCH   9  17
TORSDOF 6
ENDMDL
MODEL 2
REMARK VINA RESULT:      -7.2      7.897     10.807
REMARK  Name = 11507040
REMARK  6 active torsions:
REMARK  status: ('A' for Active; 'I' for Inactive)
REMARK    1  A    between atoms: C_5  and  O_10
REMARK    2  A    between atoms: C_6  and  O_12
REMARK    3  A    between atoms: C_8  and  C_14
REMARK    4  A    between atoms: C_9  and  C_17
REMARK    5  A    between atoms: C_14  and  O_15
REMARK    6  A    between atoms: C_17  and  C_18
REMARK                            x       y       z     vdW  Elec       q    Type
REMARK                         _______ _______ _______ _____ _____    ______ ____
ROOT
ATOM      1  S   UNL     1      36.728 -22.295 -16.182  0.00  0.00    -0.069 S 
ATOM      2  O   UNL     1      37.454 -23.887 -14.073  0.00  0.00    -0.340 OA
ATOM      3  N   UNL     1      34.722 -23.927 -16.604  0.00  0.00    -0.264 NA
ATOM      4  C   UNL     1      35.393 -24.416 -15.372  0.00  0.00    +0.170 C 
ATOM      5  C   UNL     1      34.555 -23.998 -14.160  0.00  0.00    +0.165 C 
ATOM      6  C   UNL     1      35.357 -24.096 -12.864  0.00  0.00    +0.169 C 
ATOM      7  C   UNL     1      36.832 -23.895 -15.349  0.00  0.00    +0.192 C 
ATOM      8  C   UNL     1      36.679 -23.339 -13.007  0.00  0.00    +0.175 C 
ATOM      9  C   UNL     1      35.305 -22.853 -17.025  0.00  0.00    +0.081 C 
ENDROOT
BRANCH   5  10
ATOM     10  O   UNL     1      33.421 -24.865 -14.078  0.00  0.00    -0.380 OA
ATOM     11  H   UNL     1      33.721 -25.786 -14.032  0.00  0.00    +0.211 HD
ENDBRANCH   5  10
BRANCH   6  12
ATOM     12  O   UNL     1      34.570 -23.534 -11.818  0.00  0.00    -0.379 OA
ATOM     13  H   UNL     1      34.462 -22.582 -11.970  0.00  0.00    +0.211 HD
ENDBRANCH   6  12
BRANCH   8  14
ATOM     14  C   UNL     1      37.535 -23.430 -11.746  0.00  0.00    +0.169 C 
BRANCH  14  15
ATOM     15  O   UNL     1      37.190 -22.350 -10.897  0.00  0.00    -0.379 OA
ATOM     16  H   UNL     1      37.995 -21.875 -10.634  0.00  0.00    +0.211 HD
ENDBRANCH  14  15
ENDBRANCH   8  14
BRANCH   9  17
ATOM     17  C   UNL     1      34.846 -22.083 -18.215  0.00  0.00    +0.052 C 
BRANCH  17  18
ATOM     18  C   UNL     1      36.031 -21.586 -19.037  0.00  0.00    +0.007 C 
ATOM     19  C   UNL     1      35.604 -20.750 -20.237  0.00  0.00    +0.000 C 
ENDBRANCH  17  18
ENDBRANCH   9  17
TORSDOF 6
ENDMDL
MODEL 3
REMARK VINA RESULT:      -7.1      3.915      6.028
REMARK  Name = 11507040
REMARK  6 active torsions:
REMARK  status: ('A' for Active; 'I' for Inactive)
REMARK    1  A    between atoms: C_5  and  O_10
REMARK    2  A    between atoms: C_6  and  O_12
REMARK    3  A    between atoms: C_8  and  C_14
REMARK    4  A    between atoms: C_9  and  C_17
REMARK    5  A    between atoms: C_14  and  O_15
REMARK    6  A    between atoms: C_17  and  C_18
REMARK                            x       y       z     vdW  Elec       q    Type
REMARK                         _______ _______ _______ _____ _____    ______ ____
ROOT
ATOM      1  S   UNL     1      32.745 -14.103 -21.726  0.00  0.00    -0.069 S 
ATOM      2  O   UNL     1      34.648 -15.348 -23.254  0.00  0.00    -0.340 OA
ATOM      3  N   UNL     1      32.923 -12.048 -23.343  0.00  0.00    -0.264 NA
ATOM      4  C   UNL     1      33.812 -13.094 -23.913  0.00  0.00    +0.170 C 
ATOM      5  C   UNL     1      33.104 -13.737 -25.110  0.00  0.00    +0.165 C 
ATOM      6  C   UNL     1      33.750 -15.066 -25.494  0.00  0.00    +0.169 C 
ATOM      7  C   UNL     1      34.193 -14.081 -22.807  0.00  0.00    +0.192 C 
ATOM      8  C   UNL     1      33.857 -15.972 -24.265  0.00  0.00    +0.175 C 
ATOM      9  C   UNL     1      32.330 -12.504 -22.288  0.00  0.00    +0.081 C 
ENDROOT
BRANCH   5  10
ATOM     10  O   UNL     1      33.187 -12.837 -26.217  0.00  0.00    -0.380 OA
ATOM     11  H   UNL     1      33.392 -11.946 -25.893  0.00  0.00    +0.211 HD
ENDBRANCH   5  10
BRANCH   6  12
ATOM     12  O   UNL     1      32.938 -15.676 -26.493  0.00  0.00    -0.379 OA
ATOM     13  H   UNL     1      32.607 -14.996 -27.101  0.00  0.00    +0.211 HD
ENDBRANCH   6  12
BRANCH   8  14
ATOM     14  C   UNL     1      34.525 -17.307 -24.588  0.00  0.00    +0.169 C 
BRANCH  14  15
ATOM     15  O   UNL     1      35.054 -17.232 -25.900  0.00  0.00    -0.379 OA
ATOM     16  H   UNL     1      34.438 -17.650 -26.522  0.00  0.00    +0.211 HD
ENDBRANCH  14  15
ENDBRANCH   8  14
BRANCH   9  17
ATOM     17  C   UNL     1      31.334 -11.720 -21.505  0.00  0.00    +0.052 C 
BRANCH  17  18
ATOM     18  C   UNL     1      31.652 -11.762 -20.014  0.00  0.00    +0.007 C 
ATOM     19  C   UNL     1      31.197 -10.508 -19.281  0.00  0.00    +0.000 C 
ENDBRANCH  17  18
ENDBRANCH   9  17
TORSDOF 6
ENDMDL
MODEL 4
REMARK VINA RESULT:      -7.1      2.767      5.646
REMARK  Name = 11507040
REMARK  6 active torsions:
REMARK  status: ('A' for Active; 'I' for Inactive)
REMARK    1  A    between atoms: C_5  and  O_10
REMARK    2  A    between atoms: C_6  and  O_12
REMARK    3  A    between atoms: C_8  and  C_14
REMARK    4  A    between atoms: C_9  and  C_17
REMARK    5  A    between atoms: C_14  and  O_15
REMARK    6  A    between atoms: C_17  and  C_18
REMARK                            x       y       z     vdW  Elec       q    Type
REMARK                         _______ _______ _______ _____ _____    ______ ____
ROOT
ATOM      1  S   UNL     1      33.087 -15.497 -20.857  0.00  0.00    -0.069 S 
ATOM      2  O   UNL     1      35.118 -17.329 -20.693  0.00  0.00    -0.340 OA
ATOM      3  N   UNL     1      34.230 -14.561 -23.021  0.00  0.00    -0.264 NA
ATOM      4  C   UNL     1      35.035 -15.742 -22.613  0.00  0.00    +0.170 C 
ATOM      5  C   UNL     1      34.682 -16.915 -23.532  0.00  0.00    +0.165 C 
ATOM      6  C   UNL     1      35.143 -18.246 -22.942  0.00  0.00    +0.169 C 
ATOM      7  C   UNL     1      34.797 -16.017 -21.126  0.00  0.00    +0.192 C 
ATOM      8  C   UNL     1      34.627 -18.392 -21.509  0.00  0.00    +0.175 C 
ATOM      9  C   UNL     1      33.225 -14.417 -22.220  0.00  0.00    +0.081 C 
ENDROOT
BRANCH   5  10
ATOM     10  O   UNL     1      35.328 -16.709 -24.790  0.00  0.00    -0.380 OA
ATOM     11  H   UNL     1      36.241 -17.033 -24.742  0.00  0.00    +0.211 HD
ENDBRANCH   5  10
BRANCH   6  12
ATOM     12  O   UNL     1      34.631 -19.291 -23.766  0.00  0.00    -0.379 OA
ATOM     13  H   UNL     1      33.936 -19.769 -23.287  0.00  0.00    +0.211 HD
ENDBRANCH   6  12
BRANCH   8  14
ATOM     14  C   UNL     1      35.085 -19.696 -20.860  0.00  0.00    +0.169 C 
BRANCH  14  15
ATOM     15  O   UNL     1      36.329 -19.462 -20.225  0.00  0.00    -0.379 OA
ATOM     16  H   UNL     1      36.759 -20.311 -20.033  0.00  0.00    +0.211 HD
ENDBRANCH  14  15
ENDBRANCH   8  14
BRANCH   9  17
ATOM     17  C   UNL     1      32.194 -13.353 -22.382  0.00  0.00    +0.052 C 
BRANCH  17  18
ATOM     18  C   UNL     1      31.939 -12.633 -21.062  0.00  0.00    +0.007 C 
ATOM     19  C   UNL     1      31.029 -11.422 -21.220  0.00  0.00    +0.000 C 
ENDBRANCH  17  18
ENDBRANCH   9  17
TORSDOF 6
ENDMDL
MODEL 5
REMARK VINA RESULT:      -7.1     10.589     12.228
REMARK  Name = 11507040
REMARK  6 active torsions:
REMARK  status: ('A' for Active; 'I' for Inactive)
REMARK    1  A    between atoms: C_5  and  O_10
REMARK    2  A    between atoms: C_6  and  O_12
REMARK    3  A    between atoms: C_8  and  C_14
REMARK    4  A    between atoms: C_9  and  C_17
REMARK    5  A    between atoms: C_14  and  O_15
REMARK    6  A    between atoms: C_17  and  C_18
REMARK                            x       y       z     vdW  Elec       q    Type
REMARK                         _______ _______ _______ _____ _____    ______ ____
ROOT
ATOM      1  S   UNL     1      35.486 -24.500 -15.008  0.00  0.00    -0.069 S 
ATOM      2  O   UNL     1      37.630 -25.859 -13.976  0.00  0.00    -0.340 OA
ATOM      3  N   UNL     1      34.517 -24.369 -12.577  0.00  0.00    -0.264 NA
ATOM      4  C   UNL     1      35.850 -25.013 -12.450  0.00  0.00    +0.170 C 
ATOM      5  C   UNL     1      36.843 -23.979 -11.909  0.00  0.00    +0.165 C 
ATOM      6  C   UNL     1      38.287 -24.423 -12.131  0.00  0.00    +0.169 C 
ATOM      7  C   UNL     1      36.243 -25.613 -13.802  0.00  0.00    +0.192 C 
ATOM      8  C   UNL     1      38.503 -24.795 -13.599  0.00  0.00    +0.175 C 
ATOM      9  C   UNL     1      34.300 -24.047 -13.810  0.00  0.00    +0.081 C 
ENDROOT
BRANCH   5  10
ATOM     10  O   UNL     1      36.608 -23.822 -10.508  0.00  0.00    -0.380 OA
ATOM     11  H   UNL     1      37.126 -24.479 -10.018  0.00  0.00    +0.211 HD
ENDBRANCH   5  10
BRANCH   6  12
ATOM     12  O   UNL     1      39.139 -23.342 -11.760  0.00  0.00    -0.379 OA
ATOM     13  H   UNL     1      39.726 -23.124 -12.500  0.00  0.00    +0.211 HD
ENDBRANCH   6  12
BRANCH   8  14
ATOM     14  C   UNL     1      39.927 -25.275 -13.870  0.00  0.00    +0.169 C 
BRANCH  14  15
ATOM     15  O   UNL     1      39.856 -26.508 -14.563  0.00  0.00    -0.379 OA
ATOM     16  H   UNL     1      40.528 -26.526 -15.262  0.00  0.00    +0.211 HD
ENDBRANCH  14  15
ENDBRANCH   8  14
BRANCH   9  17
ATOM     17  C   UNL     1      33.072 -23.339 -14.269  0.00  0.00    +0.052 C 
BRANCH  17  18
ATOM     18  C   UNL     1      32.916 -23.439 -15.783  0.00  0.00    +0.007 C 
ATOM     19  C   UNL     1      31.490 -23.166 -16.245  0.00  0.00    +0.000 C 
ENDBRANCH  17  18
ENDBRANCH   9  17
TORSDOF 6
ENDMDL
MODEL 6
REMARK VINA RESULT:      -7.1      3.382      5.337
REMARK  Name = 11507040
REMARK  6 active torsions:
REMARK  status: ('A' for Active; 'I' for Inactive)
REMARK    1  A    between atoms: C_5  and  O_10
REMARK    2  A    between atoms: C_6  and  O_12
REMARK    3  A    between atoms: C_8  and  C_14
REMARK    4  A    between atoms: C_9  and  C_17
REMARK    5  A    between atoms: C_14  and  O_15
REMARK    6  A    between atoms: C_17  and  C_18
REMARK                            x       y       z     vdW  Elec       q    Type
REMARK                         _______ _______ _______ _____ _____    ______ ____
ROOT
ATOM      1  S   UNL     1      34.178 -15.259 -23.617  0.00  0.00    -0.069 S 
ATOM      2  O   UNL     1      32.903 -12.847 -23.867  0.00  0.00    -0.340 OA
ATOM      3  N   UNL     1      33.464 -15.788 -26.082  0.00  0.00    -0.264 NA
ATOM      4  C   UNL     1      33.009 -14.398 -25.815  0.00  0.00    +0.170 C 
ATOM      5  C   UNL     1      33.975 -13.427 -26.501  0.00  0.00    +0.165 C 
ATOM      6  C   UNL     1      33.827 -12.010 -25.953  0.00  0.00    +0.169 C 
ATOM      7  C   UNL     1      32.887 -14.197 -24.303  0.00  0.00    +0.192 C 
ATOM      8  C   UNL     1      33.927 -12.025 -24.426  0.00  0.00    +0.175 C 
ATOM      9  C   UNL     1      34.092 -16.250 -25.051  0.00  0.00    +0.081 C 
ENDROOT
BRANCH   5  10
ATOM     10  O   UNL     1      33.688 -13.423 -27.901  0.00  0.00    -0.380 OA
ATOM     11  H   UNL     1      32.759 -13.181 -28.039  0.00  0.00    +0.211 HD
ENDBRANCH   5  10
BRANCH   6  12
ATOM     12  O   UNL     1      34.866 -11.212 -26.513  0.00  0.00    -0.379 OA
ATOM     13  H   UNL     1      35.415 -11.759 -27.098  0.00  0.00    +0.211 HD
ENDBRANCH   6  12
BRANCH   8  14
ATOM     14  C   UNL     1      33.756 -10.633 -23.822  0.00  0.00    +0.169 C 
BRANCH  14  15
ATOM     15  O   UNL     1      35.001  -9.961 -23.898  0.00  0.00    -0.379 OA
ATOM     16  H   UNL     1      35.074  -9.511 -24.755  0.00  0.00    +0.211 HD
ENDBRANCH  14  15
ENDBRANCH   8  14
BRANCH   9  17
ATOM     17  C   UNL     1      34.718 -17.602 -25.010  0.00  0.00    +0.052 C 
BRANCH  17  18
ATOM     18  C   UNL     1      35.275 -17.906 -23.623  0.00  0.00    +0.007 C 
ATOM     19  C   UNL     1      34.894 -19.295 -23.129  0.00  0.00    +0.000 C 
ENDBRANCH  17  18
ENDBRANCH   9  17
TORSDOF 6
ENDMDL
MODEL 7
REMARK VINA RESULT:      -7.0      7.667     10.804
REMARK  Name = 11507040
REMARK  6 active torsions:
REMARK  status: ('A' for Active; 'I' for Inactive)
REMARK    1  A    between atoms: C_5  and  O_10
REMARK    2  A    between atoms: C_6  and  O_12
REMARK    3  A    between atoms: C_8  and  C_14
REMARK    4  A    between atoms: C_9  and  C_17
REMARK    5  A    between atoms: C_14  and  O_15
REMARK    6  A    between atoms: C_17  and  C_18
REMARK                            x       y       z     vdW  Elec       q    Type
REMARK                         _______ _______ _______ _____ _____    ______ ____
ROOT
ATOM      1  S   UNL     1      33.957 -23.639 -15.656  0.00  0.00    -0.069 S 
ATOM      2  O   UNL     1      35.447 -23.457 -13.363  0.00  0.00    -0.340 OA
ATOM      3  N   UNL     1      35.922 -22.451 -16.917  0.00  0.00    -0.264 NA
ATOM      4  C   UNL     1      36.396 -22.652 -15.523  0.00  0.00    +0.170 C 
ATOM      5  C   UNL     1      37.371 -23.833 -15.503  0.00  0.00    +0.165 C 
ATOM      6  C   UNL     1      37.583 -24.359 -14.086  0.00  0.00    +0.169 C 
ATOM      7  C   UNL     1      35.182 -22.825 -14.606  0.00  0.00    +0.192 C 
ATOM      8  C   UNL     1      36.234 -24.646 -13.424  0.00  0.00    +0.175 C 
ATOM      9  C   UNL     1      34.743 -22.961 -17.058  0.00  0.00    +0.081 C 
ENDROOT
BRANCH   5  10
ATOM     10  O   UNL     1      38.622 -23.391 -16.034  0.00  0.00    -0.380 OA
ATOM     11  H   UNL     1      39.048 -24.122 -16.509  0.00  0.00    +0.211 HD
ENDBRANCH   5  10
BRANCH   6  12
ATOM     12  O   UNL     1      38.360 -25.551 -14.173  0.00  0.00    -0.379 OA
ATOM     13  H   UNL     1      39.254 -25.333 -14.478  0.00  0.00    +0.211 HD
ENDBRANCH   6  12
BRANCH   8  14
ATOM     14  C   UNL     1      36.389 -25.148 -11.991  0.00  0.00    +0.169 C 
BRANCH  14  15
ATOM     15  O   UNL     1      36.813 -26.499 -12.038  0.00  0.00    -0.379 OA
ATOM     16  H   UNL     1      37.231 -26.677 -12.896  0.00  0.00    +0.211 HD
ENDBRANCH  14  15
ENDBRANCH   8  14
BRANCH   9  17
ATOM     17  C   UNL     1      34.003 -22.970 -18.352  0.00  0.00    +0.052 C 
BRANCH  17  18
ATOM     18  C   UNL     1      34.515 -21.875 -19.283  0.00  0.00    +0.007 C 
ATOM     19  C   UNL     1      33.394 -21.004 -19.836  0.00  0.00    +0.000 C 
ENDBRANCH  17  18
ENDBRANCH   9  17
TORSDOF 6
ENDMDL
MODEL 8
REMARK VINA RESULT:      -7.0      1.632      2.140
REMARK  Name = 11507040
REMARK  6 active torsions:
REMARK  status: ('A' for Active; 'I' for Inactive)
REMARK    1  A    between atoms: C_5  and  O_10
REMARK    2  A    between atoms: C_6  and  O_12
REMARK    3  A    between atoms: C_8  and  C_14
REMARK    4  A    between atoms: C_9  and  C_17
REMARK    5  A    between atoms: C_14  and  O_15
REMARK    6  A    between atoms: C_17  and  C_18
REMARK                            x       y       z     vdW  Elec       q    Type
REMARK                         _______ _______ _______ _____ _____    ______ ____
ROOT
ATOM      1  S   UNL     1      34.116 -18.293 -24.744  0.00  0.00    -0.069 S 
ATOM      2  O   UNL     1      34.354 -15.872 -26.003  0.00  0.00    -0.340 OA
ATOM      3  N   UNL     1      35.377 -17.250 -22.698  0.00  0.00    -0.264 NA
ATOM      4  C   UNL     1      35.194 -16.143 -23.672  0.00  0.00    +0.170 C 
ATOM      5  C   UNL     1      34.050 -15.247 -23.185  0.00  0.00    +0.165 C 
ATOM      6  C   UNL     1      33.532 -14.344 -24.301  0.00  0.00    +0.169 C 
ATOM      7  C   UNL     1      34.975 -16.737 -25.065  0.00  0.00    +0.192 C 
ATOM      8  C   UNL     1      33.195 -15.180 -25.539  0.00  0.00    +0.175 C 
ATOM      9  C   UNL     1      34.823 -18.327 -23.149  0.00  0.00    +0.081 C 
ENDROOT
BRANCH   5  10
ATOM     10  O   UNL     1      34.539 -14.438 -22.113  0.00  0.00    -0.380 OA
ATOM     11  H   UNL     1      35.338 -13.970 -22.401  0.00  0.00    +0.211 HD
ENDBRANCH   5  10
BRANCH   6  12
ATOM     12  O   UNL     1      32.370 -13.674 -23.820  0.00  0.00    -0.379 OA
ATOM     13  H   UNL     1      31.849 -14.283 -23.273  0.00  0.00    +0.211 HD
ENDBRANCH   6  12
BRANCH   8  14
ATOM     14  C   UNL     1      32.699 -14.319 -26.699  0.00  0.00    +0.169 C 
BRANCH  14  15
ATOM     15  O   UNL     1      33.805 -14.017 -27.531  0.00  0.00    -0.379 OA
ATOM     16  H   UNL     1      33.538 -13.368 -28.201  0.00  0.00    +0.211 HD
ENDBRANCH  14  15
ENDBRANCH   8  14
BRANCH   9  17
ATOM     17  C   UNL     1      34.786 -19.610 -22.391  0.00  0.00    +0.052 C 
BRANCH  17  18
ATOM     18  C   UNL     1      35.421 -19.450 -21.013  0.00  0.00    +0.007 C 
ATOM     19  C   UNL     1      35.329 -20.717 -20.173  0.00  0.00    +0.000 C 
ENDBRANCH  17  18
ENDBRANCH   9  17
TORSDOF 6
ENDMDL
MODEL 9
REMARK VINA RESULT:      -6.8     10.868     12.025
REMARK  Name = 11507040
REMARK  6 active torsions:
REMARK  status: ('A' for Active; 'I' for Inactive)
REMARK    1  A    between atoms: C_5  and  O_10
REMARK    2  A    between atoms: C_6  and  O_12
REMARK    3  A    between atoms: C_8  and  C_14
REMARK    4  A    between atoms: C_9  and  C_17
REMARK    5  A    between atoms: C_14  and  O_15
REMARK    6  A    between atoms: C_17  and  C_18
REMARK                            x       y       z     vdW  Elec       q    Type
REMARK                         _______ _______ _______ _____ _____    ______ ____
ROOT
ATOM      1  S   UNL     1      36.050 -23.529 -12.920  0.00  0.00    -0.069 S 
ATOM      2  O   UNL     1      38.354 -23.904 -14.353  0.00  0.00    -0.340 OA
ATOM      3  N   UNL     1      34.736 -24.561 -14.938  0.00  0.00    -0.264 NA
ATOM      4  C   UNL     1      36.175 -24.667 -15.292  0.00  0.00    +0.170 C 
ATOM      5  C   UNL     1      36.625 -26.117 -15.085  0.00  0.00    +0.165 C 
ATOM      6  C   UNL     1      38.146 -26.228 -15.029  0.00  0.00    +0.169 C 
ATOM      7  C   UNL     1      36.965 -23.643 -14.473  0.00  0.00    +0.192 C 
ATOM      8  C   UNL     1      38.708 -25.241 -14.003  0.00  0.00    +0.175 C 
ATOM      9  C   UNL     1      34.610 -24.052 -13.756  0.00  0.00    +0.081 C 
ENDROOT
BRANCH   5  10
ATOM     10  O   UNL     1      36.135 -26.899 -16.176  0.00  0.00    -0.380 OA
ATOM     11  H   UNL     1      36.270 -27.840 -15.985  0.00  0.00    +0.211 HD
ENDBRANCH   5  10
BRANCH   6  12
ATOM     12  O   UNL     1      38.475 -27.566 -14.667  0.00  0.00    -0.379 OA
ATOM     13  H   UNL     1      38.830 -28.033 -15.440  0.00  0.00    +0.211 HD
ENDBRANCH   6  12
BRANCH   8  14
ATOM     14  C   UNL     1      40.232 -25.291 -13.929  0.00  0.00    +0.169 C 
BRANCH  14  15
ATOM     15  O   UNL     1      40.713 -25.922 -15.103  0.00  0.00    -0.379 OA
ATOM     16  H   UNL     1      40.868 -26.863 -14.924  0.00  0.00    +0.211 HD
ENDBRANCH  14  15
ENDBRANCH   8  14
BRANCH   9  17
ATOM     17  C   UNL     1      33.295 -23.856 -13.084  0.00  0.00    +0.052 C 
BRANCH  17  18
ATOM     18  C   UNL     1      32.153 -23.881 -14.095  0.00  0.00    +0.007 C 
ATOM     19  C   UNL     1      31.181 -25.027 -13.855  0.00  0.00    +0.000 C 
ENDBRANCH  17  18
ENDBRANCH   9  17
TORSDOF 6
ENDMDL
