MODEL 1
REMARK VINA RESULT:     -10.3      0.000      0.000
REMARK  Name = 2913
REMARK  1 active torsions:
REMARK  status: ('A' for Active; 'I' for Inactive)
REMARK    1  A    between atoms: C_2  and  C_7
REMARK                            x       y       z     vdW  Elec       q    Type
REMARK                         _______ _______ _______ _____ _____    ______ ____
ROOT
ATOM      1  C   UNL     1      34.892 -23.599 -16.044  0.00  0.00    -0.037 C 
ATOM      2  C   UNL     1      35.993 -24.414 -15.482  0.00  0.00    -0.007 C 
ATOM      3  C   UNL     1      35.017 -22.860 -17.321  0.00  0.00    +0.062 C 
ATOM      4  C   UNL     1      37.282 -23.876 -15.309  0.00  0.00    -0.001 C 
ATOM      5  C   UNL     1      36.093 -21.981 -17.552  0.00  0.00    -0.015 C 
ATOM      6  C   UNL     1      35.754 -25.759 -15.144  0.00  0.00    -0.001 C 
ATOM      7  C   UNL     1      34.062 -23.064 -18.334  0.00  0.00    -0.018 C 
ATOM      8  C   UNL     1      37.633 -22.476 -15.599  0.00  0.00    -0.000 C 
ATOM      9  C   UNL     1      37.128 -21.671 -16.550  0.00  0.00    -0.004 C 
ATOM     10  C   UNL     1      38.292 -24.691 -14.763  0.00  0.00    -0.000 C 
ATOM     11  C   UNL     1      36.162 -21.297 -18.778  0.00  0.00    -0.004 C 
ATOM     12  C   UNL     1      36.771 -26.556 -14.619  0.00  0.00    -0.000 C 
ATOM     13  C   UNL     1      34.157 -22.389 -19.551  0.00  0.00    -0.004 C 
ATOM     14  C   UNL     1      38.039 -26.020 -14.425  0.00  0.00    -0.000 C 
ATOM     15  C   UNL     1      35.204 -21.503 -19.771  0.00  0.00    -0.001 C 
ENDROOT
BRANCH   1  17
ATOM     16  N   UNL     1      31.173 -24.147 -14.261  0.00  0.00    +0.386 N 
ATOM     17  C   UNL     1      33.765 -23.465 -15.332  0.00  0.00    +0.015 C 
ATOM     18  C   UNL     1      33.626 -23.962 -13.919  0.00  0.00    -0.019 C 
ATOM     19  C   UNL     1      32.516 -22.838 -15.888  0.00  0.00    -0.019 C 
ATOM     20  C   UNL     1      32.378 -24.843 -13.782  0.00  0.00    -0.077 C 
ATOM     21  C   UNL     1      31.312 -23.762 -15.676  0.00  0.00    -0.077 C 
ATOM     22  C   UNL     1      29.989 -24.987 -14.074  0.00  0.00    -0.101 C 
ATOM     23  H   UNL     1      31.059 -23.295 -13.712  0.00  0.00    -0.080 HD
ENDBRANCH   1  17
TORSDOF 1
ENDMDL
MODEL 2
REMARK VINA RESULT:     -10.3      9.947     13.563
REMARK  Name = 2913
REMARK  1 active torsions:
REMARK  status: ('A' for Active; 'I' for Inactive)
REMARK    1  A    between atoms: C_2  and  C_7
REMARK                            x       y       z     vdW  Elec       q    Type
REMARK                         _______ _______ _______ _____ _____    ______ ____
ROOT
ATOM      1  C   UNL     1      33.181 -13.182 -23.244  0.00  0.00    -0.037 C 
ATOM      2  C   UNL     1      33.246 -13.293 -24.719  0.00  0.00    -0.007 C 
ATOM      3  C   UNL     1      32.550 -12.032 -22.556  0.00  0.00    +0.062 C 
ATOM      4  C   UNL     1      33.761 -12.246 -25.506  0.00  0.00    -0.001 C 
ATOM      5  C   UNL     1      32.912 -10.707 -22.870  0.00  0.00    -0.015 C 
ATOM      6  C   UNL     1      32.755 -14.453 -25.346  0.00  0.00    -0.001 C 
ATOM      7  C   UNL     1      31.548 -12.265 -21.597  0.00  0.00    -0.018 C 
ATOM      8  C   UNL     1      34.328 -11.005 -24.952  0.00  0.00    -0.000 C 
ATOM      9  C   UNL     1      33.969 -10.353 -23.834  0.00  0.00    -0.004 C 
ATOM     10  C   UNL     1      33.808 -12.406 -26.904  0.00  0.00    -0.000 C 
ATOM     11  C   UNL     1      32.289  -9.651 -22.183  0.00  0.00    -0.004 C 
ATOM     12  C   UNL     1      32.795 -14.587 -26.734  0.00  0.00    -0.000 C 
ATOM     13  C   UNL     1      30.928 -11.203 -20.938  0.00  0.00    -0.004 C 
ATOM     14  C   UNL     1      33.325 -13.564 -27.512  0.00  0.00    -0.000 C 
ATOM     15  C   UNL     1      31.302  -9.897 -21.229  0.00  0.00    -0.001 C 
ENDROOT
BRANCH   1  17
ATOM     16  N   UNL     1      34.286 -16.728 -21.370  0.00  0.00    +0.386 N 
ATOM     17  C   UNL     1      33.782 -14.121 -22.502  0.00  0.00    +0.015 C 
ATOM     18  C   UNL     1      34.904 -14.980 -23.021  0.00  0.00    -0.019 C 
ATOM     19  C   UNL     1      33.371 -14.437 -21.091  0.00  0.00    -0.019 C 
ATOM     20  C   UNL     1      34.597 -16.463 -22.784  0.00  0.00    -0.077 C 
ATOM     21  C   UNL     1      33.122 -15.941 -20.927  0.00  0.00    -0.077 C 
ATOM     22  C   UNL     1      34.046 -18.156 -21.158  0.00  0.00    -0.101 C 
ATOM     23  H   UNL     1      35.090 -16.446 -20.809  0.00  0.00    -0.080 HD
ENDBRANCH   1  17
TORSDOF 1
ENDMDL
MODEL 3
REMARK VINA RESULT:     -10.2     13.903     17.115
REMARK  Name = 2913
REMARK  1 active torsions:
REMARK  status: ('A' for Active; 'I' for Inactive)
REMARK    1  A    between atoms: C_2  and  C_7
REMARK                            x       y       z     vdW  Elec       q    Type
REMARK                         _______ _______ _______ _____ _____    ______ ____
ROOT
ATOM      1  C   UNL     1      32.302  -8.909 -22.368  0.00  0.00    -0.037 C 
ATOM      2  C   UNL     1      33.304  -9.386 -23.349  0.00  0.00    -0.007 C 
ATOM      3  C   UNL     1      32.013  -9.630 -21.107  0.00  0.00    +0.062 C 
ATOM      4  C   UNL     1      33.270 -10.703 -23.842  0.00  0.00    -0.001 C 
ATOM      5  C   UNL     1      31.697 -11.003 -21.109  0.00  0.00    -0.015 C 
ATOM      6  C   UNL     1      34.326  -8.515 -23.771  0.00  0.00    -0.001 C 
ATOM      7  C   UNL     1      32.088  -8.940 -19.883  0.00  0.00    -0.018 C 
ATOM      8  C   UNL     1      32.229 -11.685 -23.492  0.00  0.00    -0.000 C 
ATOM      9  C   UNL     1      31.561 -11.811 -22.333  0.00  0.00    -0.004 C 
ATOM     10  C   UNL     1      34.240 -11.104 -24.779  0.00  0.00    -0.000 C 
ATOM     11  C   UNL     1      31.423 -11.639 -19.885  0.00  0.00    -0.004 C 
ATOM     12  C   UNL     1      35.289  -8.935 -24.689  0.00  0.00    -0.000 C 
ATOM     13  C   UNL     1      31.830  -9.593 -18.678  0.00  0.00    -0.004 C 
ATOM     14  C   UNL     1      35.243 -10.228 -25.195  0.00  0.00    -0.000 C 
ATOM     15  C   UNL     1      31.494 -10.941 -18.680  0.00  0.00    -0.001 C 
ENDROOT
BRANCH   1  17
ATOM     16  N   UNL     1      30.966  -5.225 -23.764  0.00  0.00    +0.386 N 
ATOM     17  C   UNL     1      31.577  -7.824 -22.667  0.00  0.00    +0.015 C 
ATOM     18  C   UNL     1      30.784  -7.695 -23.940  0.00  0.00    -0.019 C 
ATOM     19  C   UNL     1      31.511  -6.613 -21.779  0.00  0.00    -0.019 C 
ATOM     20  C   UNL     1      31.131  -6.384 -24.656  0.00  0.00    -0.077 C 
ATOM     21  C   UNL     1      31.830  -5.344 -22.577  0.00  0.00    -0.077 C 
ATOM     22  C   UNL     1      31.254  -3.983 -24.482  0.00  0.00    -0.101 C 
ATOM     23  H   UNL     1      29.997  -5.202 -23.448  0.00  0.00    -0.080 HD
ENDBRANCH   1  17
TORSDOF 1
ENDMDL
MODEL 4
REMARK VINA RESULT:     -10.1      1.830      4.863
REMARK  Name = 2913
REMARK  1 active torsions:
REMARK  status: ('A' for Active; 'I' for Inactive)
REMARK    1  A    between atoms: C_2  and  C_7
REMARK                            x       y       z     vdW  Elec       q    Type
REMARK                         _______ _______ _______ _____ _____    ______ ____
ROOT
ATOM      1  C   UNL     1      34.342 -23.476 -15.375  0.00  0.00    -0.037 C 
ATOM      2  C   UNL     1      32.887 -23.219 -15.282  0.00  0.00    -0.007 C 
ATOM      3  C   UNL     1      35.228 -22.728 -16.297  0.00  0.00    +0.062 C 
ATOM      4  C   UNL     1      32.073 -23.219 -16.430  0.00  0.00    -0.001 C 
ATOM      5  C   UNL     1      34.926 -22.619 -17.668  0.00  0.00    -0.015 C 
ATOM      6  C   UNL     1      32.314 -22.940 -14.027  0.00  0.00    -0.001 C 
ATOM      7  C   UNL     1      36.373 -22.087 -15.788  0.00  0.00    -0.018 C 
ATOM      8  C   UNL     1      32.563 -23.529 -17.783  0.00  0.00    -0.000 C 
ATOM      9  C   UNL     1      33.773 -23.276 -18.309  0.00  0.00    -0.004 C 
ATOM     10  C   UNL     1      30.694 -22.978 -16.285  0.00  0.00    -0.000 C 
ATOM     11  C   UNL     1      35.803 -21.904 -18.503  0.00  0.00    -0.004 C 
ATOM     12  C   UNL     1      30.947 -22.688 -13.905  0.00  0.00    -0.000 C 
ATOM     13  C   UNL     1      37.222 -21.368 -16.629  0.00  0.00    -0.004 C 
ATOM     14  C   UNL     1      30.137 -22.710 -15.034  0.00  0.00    -0.000 C 
ATOM     15  C   UNL     1      36.939 -21.280 -17.987  0.00  0.00    -0.001 C 
ENDROOT
BRANCH   1  17
ATOM     16  N   UNL     1      36.821 -25.918 -13.094  0.00  0.00    +0.386 N 
ATOM     17  C   UNL     1      34.866 -24.474 -14.651  0.00  0.00    +0.015 C 
ATOM     18  C   UNL     1      34.753 -24.544 -13.152  0.00  0.00    -0.019 C 
ATOM     19  C   UNL     1      35.650 -25.603 -15.260  0.00  0.00    -0.019 C 
ATOM     20  C   UNL     1      36.135 -24.749 -12.519  0.00  0.00    -0.077 C 
ATOM     21  C   UNL     1      36.998 -25.766 -14.548  0.00  0.00    -0.077 C 
ATOM     22  C   UNL     1      38.114 -26.123 -12.441  0.00  0.00    -0.101 C 
ATOM     23  H   UNL     1      36.239 -26.739 -12.930  0.00  0.00    -0.080 HD
ENDBRANCH   1  17
TORSDOF 1
ENDMDL
MODEL 5
REMARK VINA RESULT:     -10.0     14.007     17.516
REMARK  Name = 2913
REMARK  1 active torsions:
REMARK  status: ('A' for Active; 'I' for Inactive)
REMARK    1  A    between atoms: C_2  and  C_7
REMARK                            x       y       z     vdW  Elec       q    Type
REMARK                         _______ _______ _______ _____ _____    ______ ____
ROOT
ATOM      1  C   UNL     1      32.618  -8.878 -22.632  0.00  0.00    -0.037 C 
ATOM      2  C   UNL     1      32.108  -7.567 -23.092  0.00  0.00    -0.007 C 
ATOM      3  C   UNL     1      32.064  -9.583 -21.453  0.00  0.00    +0.062 C 
ATOM      4  C   UNL     1      31.998  -6.478 -22.207  0.00  0.00    -0.001 C 
ATOM      5  C   UNL     1      31.943  -8.935 -20.208  0.00  0.00    -0.015 C 
ATOM      6  C   UNL     1      31.697  -7.416 -24.429  0.00  0.00    -0.001 C 
ATOM      7  C   UNL     1      31.619 -10.911 -21.587  0.00  0.00    -0.018 C 
ATOM      8  C   UNL     1      32.427  -6.518 -20.799  0.00  0.00    -0.000 C 
ATOM      9  C   UNL     1      32.405  -7.559 -19.952  0.00  0.00    -0.004 C 
ATOM     10  C   UNL     1      31.514  -5.250 -22.697  0.00  0.00    -0.000 C 
ATOM     11  C   UNL     1      31.417  -9.650 -19.118  0.00  0.00    -0.004 C 
ATOM     12  C   UNL     1      31.205  -6.195 -24.893  0.00  0.00    -0.000 C 
ATOM     13  C   UNL     1      31.085 -11.598 -20.498  0.00  0.00    -0.004 C 
ATOM     14  C   UNL     1      31.118  -5.112 -24.027  0.00  0.00    -0.000 C 
ATOM     15  C   UNL     1      30.988 -10.969 -19.263  0.00  0.00    -0.001 C 
ENDROOT
BRANCH   1  17
ATOM     16  N   UNL     1      35.281 -10.367 -25.462  0.00  0.00    +0.386 N 
ATOM     17  C   UNL     1      33.671  -9.414 -23.263  0.00  0.00    +0.015 C 
ATOM     18  C   UNL     1      34.816  -8.591 -23.789  0.00  0.00    -0.019 C 
ATOM     19  C   UNL     1      33.797 -10.887 -23.541  0.00  0.00    -0.019 C 
ATOM     20  C   UNL     1      35.081  -8.922 -25.263  0.00  0.00    -0.077 C 
ATOM     21  C   UNL     1      34.099 -11.130 -25.024  0.00  0.00    -0.077 C 
ATOM     22  C   UNL     1      35.581 -10.652 -26.865  0.00  0.00    -0.101 C 
ATOM     23  H   UNL     1      36.074 -10.659 -24.892  0.00  0.00    -0.080 HD
ENDBRANCH   1  17
TORSDOF 1
ENDMDL
MODEL 6
REMARK VINA RESULT:      -9.6     10.295     13.963
REMARK  Name = 2913
REMARK  1 active torsions:
REMARK  status: ('A' for Active; 'I' for Inactive)
REMARK    1  A    between atoms: C_2  and  C_7
REMARK                            x       y       z     vdW  Elec       q    Type
REMARK                         _______ _______ _______ _____ _____    ______ ____
ROOT
ATOM      1  C   UNL     1      33.415 -12.792 -23.226  0.00  0.00    -0.037 C 
ATOM      2  C   UNL     1      34.006 -11.959 -24.297  0.00  0.00    -0.007 C 
ATOM      3  C   UNL     1      33.801 -14.205 -23.007  0.00  0.00    +0.062 C 
ATOM      4  C   UNL     1      34.027 -12.400 -25.634  0.00  0.00    -0.001 C 
ATOM      5  C   UNL     1      33.778 -15.138 -24.062  0.00  0.00    -0.015 C 
ATOM      6  C   UNL     1      34.586 -10.720 -23.968  0.00  0.00    -0.001 C 
ATOM      7  C   UNL     1      34.231 -14.615 -21.731  0.00  0.00    -0.018 C 
ATOM      8  C   UNL     1      33.423 -13.662 -26.091  0.00  0.00    -0.000 C 
ATOM      9  C   UNL     1      33.316 -14.823 -25.425  0.00  0.00    -0.004 C 
ATOM     10  C   UNL     1      34.594 -11.566 -26.616  0.00  0.00    -0.000 C 
ATOM     11  C   UNL     1      34.147 -16.470 -23.800  0.00  0.00    -0.004 C 
ATOM     12  C   UNL     1      35.158  -9.914 -24.953  0.00  0.00    -0.000 C 
ATOM     13  C   UNL     1      34.609 -15.936 -21.495  0.00  0.00    -0.004 C 
ATOM     14  C   UNL     1      35.158 -10.336 -26.277  0.00  0.00    -0.000 C 
ATOM     15  C   UNL     1      34.563 -16.864 -22.529  0.00  0.00    -0.001 C 
ENDROOT
BRANCH   1  17
ATOM     16  N   UNL     1      31.215 -10.767 -20.333  0.00  0.00    +0.386 N 
ATOM     17  C   UNL     1      32.439 -12.270 -22.472  0.00  0.00    +0.015 C 
ATOM     18  C   UNL     1      31.840 -10.914 -22.732  0.00  0.00    -0.019 C 
ATOM     19  C   UNL     1      31.869 -12.971 -21.269  0.00  0.00    -0.019 C 
ATOM     20  C   UNL     1      31.861 -10.066 -21.455  0.00  0.00    -0.077 C 
ATOM     21  C   UNL     1      31.890 -12.044 -20.048  0.00  0.00    -0.077 C 
ATOM     22  C   UNL     1      31.202  -9.919 -19.141  0.00  0.00    -0.101 C 
ATOM     23  H   UNL     1      30.252 -10.971 -20.599  0.00  0.00    -0.080 HD
ENDBRANCH   1  17
TORSDOF 1
ENDMDL
MODEL 7
REMARK VINA RESULT:      -8.3     15.530     18.433
REMARK  Name = 2913
REMARK  1 active torsions:
REMARK  status: ('A' for Active; 'I' for Inactive)
REMARK    1  A    between atoms: C_2  and  C_7
REMARK                            x       y       z     vdW  Elec       q    Type
REMARK                         _______ _______ _______ _____ _____    ______ ____
ROOT
ATOM      1  C   UNL     1      33.496  -7.567 -23.603  0.00  0.00    -0.037 C 
ATOM      2  C   UNL     1      32.879  -7.154 -22.322  0.00  0.00    -0.007 C 
ATOM      3  C   UNL     1      33.684  -6.633 -24.737  0.00  0.00    +0.062 C 
ATOM      4  C   UNL     1      31.630  -6.505 -22.292  0.00  0.00    -0.001 C 
ATOM      5  C   UNL     1      32.611  -5.868 -25.236  0.00  0.00    -0.015 C 
ATOM      6  C   UNL     1      33.567  -7.387 -21.117  0.00  0.00    -0.001 C 
ATOM      7  C   UNL     1      34.963  -6.482 -25.304  0.00  0.00    -0.018 C 
ATOM      8  C   UNL     1      30.814  -6.240 -23.488  0.00  0.00    -0.000 C 
ATOM      9  C   UNL     1      31.229  -5.971 -24.737  0.00  0.00    -0.004 C 
ATOM     10  C   UNL     1      31.084  -6.140 -21.047  0.00  0.00    -0.000 C 
ATOM     11  C   UNL     1      32.841  -5.002 -26.319  0.00  0.00    -0.004 C 
ATOM     12  C   UNL     1      33.016  -7.005 -19.893  0.00  0.00    -0.000 C 
ATOM     13  C   UNL     1      35.174  -5.605 -26.367  0.00  0.00    -0.004 C 
ATOM     14  C   UNL     1      31.773  -6.385 -19.859  0.00  0.00    -0.000 C 
ATOM     15  C   UNL     1      34.112  -4.868 -26.877  0.00  0.00    -0.001 C 
ENDROOT
BRANCH   1  17
ATOM     16  N   UNL     1      34.065 -11.416 -25.077  0.00  0.00    +0.386 N 
ATOM     17  C   UNL     1      33.831  -8.853 -23.769  0.00  0.00    +0.015 C 
ATOM     18  C   UNL     1      35.137  -9.287 -24.377  0.00  0.00    -0.019 C 
ATOM     19  C   UNL     1      32.919  -9.990 -23.398  0.00  0.00    -0.019 C 
ATOM     20  C   UNL     1      34.892 -10.281 -25.520  0.00  0.00    -0.077 C 
ATOM     21  C   UNL     1      32.758 -10.956 -24.578  0.00  0.00    -0.077 C 
ATOM     22  C   UNL     1      33.887 -12.374 -26.168  0.00  0.00    -0.101 C 
ATOM     23  H   UNL     1      34.550 -11.881 -24.310  0.00  0.00    -0.080 HD
ENDBRANCH   1  17
TORSDOF 1
ENDMDL
MODEL 8
REMARK VINA RESULT:      -8.2     13.993     16.910
REMARK  Name = 2913
REMARK  1 active torsions:
REMARK  status: ('A' for Active; 'I' for Inactive)
REMARK    1  A    between atoms: C_2  and  C_7
REMARK                            x       y       z     vdW  Elec       q    Type
REMARK                         _______ _______ _______ _____ _____    ______ ____
ROOT
ATOM      1  C   UNL     1      32.254  -8.645 -23.421  0.00  0.00    -0.037 C 
ATOM      2  C   UNL     1      33.146  -9.649 -24.046  0.00  0.00    -0.007 C 
ATOM      3  C   UNL     1      32.058  -7.289 -23.986  0.00  0.00    +0.062 C 
ATOM      4  C   UNL     1      34.481  -9.339 -24.363  0.00  0.00    -0.001 C 
ATOM      5  C   UNL     1      33.156  -6.462 -24.292  0.00  0.00    -0.015 C 
ATOM      6  C   UNL     1      32.639 -10.925 -24.355  0.00  0.00    -0.001 C 
ATOM      7  C   UNL     1      30.754  -6.833 -24.252  0.00  0.00    -0.018 C 
ATOM      8  C   UNL     1      35.120  -8.048 -24.056  0.00  0.00    -0.000 C 
ATOM      9  C   UNL     1      34.558  -6.828 -24.024  0.00  0.00    -0.004 C 
ATOM     10  C   UNL     1      35.289 -10.332 -24.949  0.00  0.00    -0.000 C 
ATOM     11  C   UNL     1      32.916  -5.181 -24.819  0.00  0.00    -0.004 C 
ATOM     12  C   UNL     1      33.450 -11.891 -24.949  0.00  0.00    -0.000 C 
ATOM     13  C   UNL     1      30.537  -5.566 -24.791  0.00  0.00    -0.004 C 
ATOM     14  C   UNL     1      34.776 -11.595 -25.242  0.00  0.00    -0.000 C 
ATOM     15  C   UNL     1      31.618  -4.738 -25.071  0.00  0.00    -0.001 C 
ENDROOT
BRANCH   1  17
ATOM     16  N   UNL     1      31.273 -10.215 -19.695  0.00  0.00    +0.386 N 
ATOM     17  C   UNL     1      31.659  -8.948 -22.260  0.00  0.00    +0.015 C 
ATOM     18  C   UNL     1      31.921  -8.193 -20.985  0.00  0.00    -0.019 C 
ATOM     19  C   UNL     1      30.699 -10.096 -22.108  0.00  0.00    -0.019 C 
ATOM     20  C   UNL     1      32.291  -9.162 -19.855  0.00  0.00    -0.077 C 
ATOM     21  C   UNL     1      31.116 -10.992 -20.936  0.00  0.00    -0.077 C 
ATOM     22  C   UNL     1      31.622 -11.096 -18.581  0.00  0.00    -0.101 C 
ATOM     23  H   UNL     1      30.381  -9.765 -19.489  0.00  0.00    -0.080 HD
ENDBRANCH   1  17
TORSDOF 1
ENDMDL
MODEL 9
REMARK VINA RESULT:      -7.8      1.893      5.754
REMARK  Name = 2913
REMARK  1 active torsions:
REMARK  status: ('A' for Active; 'I' for Inactive)
REMARK    1  A    between atoms: C_2  and  C_7
REMARK                            x       y       z     vdW  Elec       q    Type
REMARK                         _______ _______ _______ _____ _____    ______ ____
ROOT
ATOM      1  C   UNL     1      34.307 -23.762 -15.439  0.00  0.00    -0.037 C 
ATOM      2  C   UNL     1      32.883 -23.832 -15.040  0.00  0.00    -0.007 C 
ATOM      3  C   UNL     1      35.347 -24.634 -14.847  0.00  0.00    +0.062 C 
ATOM      4  C   UNL     1      32.501 -23.756 -13.687  0.00  0.00    -0.001 C 
ATOM      5  C   UNL     1      35.505 -24.734 -13.451  0.00  0.00    -0.015 C 
ATOM      6  C   UNL     1      31.896 -24.011 -16.028  0.00  0.00    -0.001 C 
ATOM      7  C   UNL     1      36.169 -25.402 -15.693  0.00  0.00    -0.018 C 
ATOM      8  C   UNL     1      33.447 -23.539 -12.579  0.00  0.00    -0.000 C 
ATOM      9  C   UNL     1      34.721 -23.953 -12.479  0.00  0.00    -0.004 C 
ATOM     10  C   UNL     1      31.134 -23.820 -13.362  0.00  0.00    -0.000 C 
ATOM     11  C   UNL     1      36.513 -25.571 -12.940  0.00  0.00    -0.004 C 
ATOM     12  C   UNL     1      30.547 -24.088 -15.685  0.00  0.00    -0.000 C 
ATOM     13  C   UNL     1      37.152 -26.239 -15.166  0.00  0.00    -0.004 C 
ATOM     14  C   UNL     1      30.166 -23.989 -14.352  0.00  0.00    -0.000 C 
ATOM     15  C   UNL     1      37.326 -26.321 -13.790  0.00  0.00    -0.001 C 
ENDROOT
BRANCH   1  17
ATOM     16  N   UNL     1      36.009 -21.664 -18.603  0.00  0.00    +0.386 N 
ATOM     17  C   UNL     1      34.682 -22.821 -16.316  0.00  0.00    +0.015 C 
ATOM     18  C   UNL     1      33.919 -22.531 -17.581  0.00  0.00    -0.019 C 
ATOM     19  C   UNL     1      35.922 -21.988 -16.143  0.00  0.00    -0.019 C 
ATOM     20  C   UNL     1      34.858 -22.562 -18.792  0.00  0.00    -0.077 C 
ATOM     21  C   UNL     1      36.784 -22.041 -17.409  0.00  0.00    -0.077 C 
ATOM     22  C   UNL     1      36.863 -21.672 -19.791  0.00  0.00    -0.101 C 
ATOM     23  H   UNL     1      35.654 -20.718 -18.463  0.00  0.00    -0.080 HD
ENDBRANCH   1  17
TORSDOF 1
ENDMDL
