MODEL 1
REMARK VINA RESULT:      -9.6      0.000      0.000
REMARK  Name = 445707
REMARK  15 active torsions:
REMARK  status: ('A' for Active; 'I' for Inactive)
REMARK    1  A    between atoms: CA_1  and  N_3
REMARK    2  A    between atoms: CA_1  and  C_19
REMARK    3  A    between atoms: CA_1  and  CB_26
REMARK    4  A    between atoms: C_4  and  C_6
REMARK    5  A    between atoms: C_6  and  C_7
REMARK    6  A    between atoms: C_7  and  CA_8
REMARK    7  A    between atoms: CA_8  and  N_9
REMARK    8  A    between atoms: CA_8  and  C_14
REMARK    9  A    between atoms: C_14  and  O_15
REMARK   10  A    between atoms: N_18  and  CA_21
REMARK   11  A    between atoms: CA_21  and  C_23
REMARK   12  A    between atoms: C_23  and  O_24
REMARK   13  A    between atoms: CB_26  and  SG_27
REMARK   14  A    between atoms: SG_27  and  C_28
REMARK   15  A    between atoms: C_28  and  C_29
REMARK                            x       y       z     vdW  Elec       q    Type
REMARK                         _______ _______ _______ _____ _____    ______ ____
ROOT
ATOM      1  CA  UNL     1      35.456 -23.682 -15.915  0.00  0.00    +0.159 C 
ENDROOT
BRANCH   1   3
ATOM      2  O   UNL     1      32.762 -23.543 -16.939  0.00  0.00    -0.275 OA
ATOM      3  N   UNL     1      34.237 -23.581 -15.146  0.00  0.00    -0.298 N 
ATOM      4  C   UNL     1      32.982 -23.519 -15.731  0.00  0.00    +0.223 C 
ATOM      5  H   UNL     1      34.302 -23.554 -14.164  0.00  0.00    +0.150 HD
BRANCH   4   6
ATOM      6  C   UNL     1      31.884 -23.407 -14.687  0.00  0.00    +0.083 C 
BRANCH   6   7
ATOM      7  C   UNL     1      30.640 -22.693 -15.222  0.00  0.00    -0.001 C 
BRANCH   7   8
ATOM      8  CA  UNL     1      29.468 -23.647 -15.471  0.00  0.00    +0.036 C 
BRANCH   8   9
ATOM      9  N   UNL     1      29.981 -24.947 -15.914  0.00  0.00    +0.389 N 
ATOM     10  H1  UNL     1      30.481 -24.834 -16.796  0.00  0.00    -0.088 HD
ATOM     11  H2  UNL     1      29.202 -25.593 -16.045  0.00  0.00    -0.088 HD
ATOM     12  H3  UNL     1      30.616 -25.320 -15.208  0.00  0.00    -0.088 HD
ENDBRANCH   8   9
BRANCH   8  14
ATOM     13  OXT UNL     1      28.373 -21.955 -16.842  0.00  0.00    -0.253 OA
ATOM     14  C   UNL     1      28.565 -23.136 -16.580  0.00  0.00    +0.293 C 
BRANCH  14  15
ATOM     15  O   UNL     1      27.955 -24.146 -17.253  0.00  0.00    -0.482 OA
ATOM     16  H   UNL     1      28.006 -24.185 -18.187  0.00  0.00    +0.295 HD
ENDBRANCH  14  15
ENDBRANCH   8  14
ENDBRANCH   7   8
ENDBRANCH   6   7
ENDBRANCH   4   6
ENDBRANCH   1   3
BRANCH   1  19
ATOM     17  O   UNL     1      35.703 -26.049 -15.441  0.00  0.00    -0.273 OA
ATOM     18  N   UNL     1      37.523 -24.650 -15.108  0.00  0.00    -0.294 N 
ATOM     19  C   ACE A   1      36.215 -24.932 -15.477  0.00  0.00    +0.242 C 
ATOM     20  H   UNL     1      37.842 -23.721 -15.173  0.00  0.00    +0.150 HD
BRANCH  18  21
ATOM     21  CA  UNL     1      38.434 -25.665 -14.632  0.00  0.00    +0.200 C 
BRANCH  21  23
ATOM     22  OXT UNL     1      40.611 -24.725 -14.220  0.00  0.00    -0.248 OA
ATOM     23  C   UNL     1      39.873 -25.363 -14.960  0.00  0.00    +0.334 C 
BRANCH  23  24
ATOM     24  O   UNL     1      40.273 -25.865 -16.152  0.00  0.00    -0.479 OA
ATOM     25  H   UNL     1      39.669 -26.345 -16.684  0.00  0.00    +0.295 HD
ENDBRANCH  23  24
ENDBRANCH  21  23
ENDBRANCH  18  21
ENDBRANCH   1  19
BRANCH   1  26
ATOM     26  CB  UNL     1      36.297 -22.405 -15.845  0.00  0.00    +0.087 C 
BRANCH  26  27
ATOM     27  SG  UNL     1      36.744 -21.731 -17.480  0.00  0.00    -0.133 S 
BRANCH  27  28
ATOM     28  C   UNL     1      35.334 -22.366 -18.412  0.00  0.00    +0.084 C 
BRANCH  28  29
ATOM     29  C   UNL     1      34.824 -21.370 -19.418  0.00  0.00    -0.011 C 
ATOM     30  C   UNL     1      35.724 -20.651 -20.203  0.00  0.00    -0.003 C 
ATOM     31  C   UNL     1      33.451 -21.168 -19.566  0.00  0.00    -0.003 C 
ATOM     32  C   UNL     1      35.252 -19.727 -21.137  0.00  0.00    -0.000 C 
ATOM     33  C   UNL     1      32.979 -20.245 -20.498  0.00  0.00    -0.000 C 
ATOM     34  C   UNL     1      33.879 -19.525 -21.284  0.00  0.00    -0.000 C 
ENDBRANCH  28  29
ENDBRANCH  27  28
ENDBRANCH  26  27
ENDBRANCH   1  26
TORSDOF 15
ENDMDL
MODEL 2
REMARK VINA RESULT:      -9.3      1.304      1.519
REMARK  Name = 445707
REMARK  15 active torsions:
REMARK  status: ('A' for Active; 'I' for Inactive)
REMARK    1  A    between atoms: CA_1  and  N_3
REMARK    2  A    between atoms: CA_1  and  C_19
REMARK    3  A    between atoms: CA_1  and  CB_26
REMARK    4  A    between atoms: C_4  and  C_6
REMARK    5  A    between atoms: C_6  and  C_7
REMARK    6  A    between atoms: C_7  and  CA_8
REMARK    7  A    between atoms: CA_8  and  N_9
REMARK    8  A    between atoms: CA_8  and  C_14
REMARK    9  A    between atoms: C_14  and  O_15
REMARK   10  A    between atoms: N_18  and  CA_21
REMARK   11  A    between atoms: CA_21  and  C_23
REMARK   12  A    between atoms: C_23  and  O_24
REMARK   13  A    between atoms: CB_26  and  SG_27
REMARK   14  A    between atoms: SG_27  and  C_28
REMARK   15  A    between atoms: C_28  and  C_29
REMARK                            x       y       z     vdW  Elec       q    Type
REMARK                         _______ _______ _______ _____ _____    ______ ____
ROOT
ATOM      1  CA  UNL     1      35.373 -23.483 -15.893  0.00  0.00    +0.159 C 
ENDROOT
BRANCH   1   3
ATOM      2  O   UNL     1      32.782 -23.552 -17.162  0.00  0.00    -0.275 OA
ATOM      3  N   UNL     1      34.085 -23.371 -15.247  0.00  0.00    -0.298 N 
ATOM      4  C   UNL     1      32.888 -23.415 -15.946  0.00  0.00    +0.223 C 
ATOM      5  H   UNL     1      34.057 -23.258 -14.270  0.00  0.00    +0.150 HD
BRANCH   4   6
ATOM      6  C   UNL     1      31.694 -23.263 -15.018  0.00  0.00    +0.083 C 
BRANCH   6   7
ATOM      7  C   UNL     1      30.515 -22.561 -15.694  0.00  0.00    -0.001 C 
BRANCH   7   8
ATOM      8  CA  UNL     1      29.210 -23.358 -15.591  0.00  0.00    +0.036 C 
BRANCH   8   9
ATOM      9  N   UNL     1      29.490 -24.783 -15.787  0.00  0.00    +0.389 N 
ATOM     10  H1  UNL     1      28.658 -25.246 -16.152  0.00  0.00    -0.088 HD
ATOM     11  H2  UNL     1      29.751 -25.204 -14.895  0.00  0.00    -0.088 HD
ATOM     12  H3  UNL     1      30.258 -24.890 -16.450  0.00  0.00    -0.088 HD
ENDBRANCH   8   9
BRANCH   8  14
ATOM     13  OXT UNL     1      27.812 -21.817 -16.861  0.00  0.00    -0.253 OA
ATOM     14  C   UNL     1      28.229 -22.954 -16.677  0.00  0.00    +0.293 C 
BRANCH  14  15
ATOM     15  O   UNL     1      27.830 -24.012 -17.428  0.00  0.00    -0.482 OA
ATOM     16  H   UNL     1      28.400 -24.365 -18.082  0.00  0.00    +0.295 HD
ENDBRANCH  14  15
ENDBRANCH   8  14
ENDBRANCH   7   8
ENDBRANCH   6   7
ENDBRANCH   4   6
ENDBRANCH   1   3
BRANCH   1  19
ATOM     17  O   UNL     1      35.888 -25.811 -15.445  0.00  0.00    -0.273 OA
ATOM     18  N   UNL     1      37.158 -24.170 -14.408  0.00  0.00    -0.294 N 
ATOM     19  C   ACE A   1      36.151 -24.627 -15.248  0.00  0.00    +0.242 C 
ATOM     20  H   UNL     1      37.291 -23.198 -14.316  0.00  0.00    +0.150 HD
BRANCH  18  21
ATOM     21  CA  UNL     1      38.015 -25.061 -13.663  0.00  0.00    +0.200 C 
BRANCH  21  23
ATOM     22  OXT UNL     1      37.759 -24.539 -11.328  0.00  0.00    -0.248 OA
ATOM     23  C   UNL     1      37.531 -25.304 -12.257  0.00  0.00    +0.334 C 
BRANCH  23  24
ATOM     24  O   UNL     1      36.821 -26.447 -12.119  0.00  0.00    -0.479 OA
ATOM     25  H   UNL     1      37.176 -27.163 -11.629  0.00  0.00    +0.295 HD
ENDBRANCH  23  24
ENDBRANCH  21  23
ENDBRANCH  18  21
ENDBRANCH   1  19
BRANCH   1  26
ATOM     26  CB  UNL     1      36.137 -22.157 -15.902  0.00  0.00    +0.087 C 
BRANCH  26  27
ATOM     27  SG  UNL     1      36.742 -21.671 -17.552  0.00  0.00    -0.133 S 
BRANCH  27  28
ATOM     28  C   UNL     1      35.364 -22.311 -18.528  0.00  0.00    +0.084 C 
BRANCH  28  29
ATOM     29  C   UNL     1      34.835 -21.291 -19.499  0.00  0.00    -0.011 C 
ATOM     30  C   UNL     1      35.720 -20.525 -20.256  0.00  0.00    -0.003 C 
ATOM     31  C   UNL     1      33.458 -21.114 -19.643  0.00  0.00    -0.003 C 
ATOM     32  C   UNL     1      35.229 -19.579 -21.158  0.00  0.00    -0.000 C 
ATOM     33  C   UNL     1      32.968 -20.168 -20.543  0.00  0.00    -0.000 C 
ATOM     34  C   UNL     1      33.852 -19.402 -21.300  0.00  0.00    -0.000 C 
ENDBRANCH  28  29
ENDBRANCH  27  28
ENDBRANCH  26  27
ENDBRANCH   1  26
TORSDOF 15
ENDMDL
MODEL 3
REMARK VINA RESULT:      -9.2      1.462      7.317
REMARK  Name = 445707
REMARK  15 active torsions:
REMARK  status: ('A' for Active; 'I' for Inactive)
REMARK    1  A    between atoms: CA_1  and  N_3
REMARK    2  A    between atoms: CA_1  and  C_19
REMARK    3  A    between atoms: CA_1  and  CB_26
REMARK    4  A    between atoms: C_4  and  C_6
REMARK    5  A    between atoms: C_6  and  C_7
REMARK    6  A    between atoms: C_7  and  CA_8
REMARK    7  A    between atoms: CA_8  and  N_9
REMARK    8  A    between atoms: CA_8  and  C_14
REMARK    9  A    between atoms: C_14  and  O_15
REMARK   10  A    between atoms: N_18  and  CA_21
REMARK   11  A    between atoms: CA_21  and  C_23
REMARK   12  A    between atoms: C_23  and  O_24
REMARK   13  A    between atoms: CB_26  and  SG_27
REMARK   14  A    between atoms: SG_27  and  C_28
REMARK   15  A    between atoms: C_28  and  C_29
REMARK                            x       y       z     vdW  Elec       q    Type
REMARK                         _______ _______ _______ _____ _____    ______ ____
ROOT
ATOM      1  CA  UNL     1      33.230 -23.118 -16.156  0.00  0.00    +0.159 C 
ENDROOT
BRANCH   1   3
ATOM      2  O   UNL     1      35.872 -22.369 -15.267  0.00  0.00    -0.275 OA
ATOM      3  N   UNL     1      34.233 -23.985 -15.582  0.00  0.00    -0.298 N 
ATOM      4  C   UNL     1      35.481 -23.530 -15.184  0.00  0.00    +0.223 C 
ATOM      5  H   UNL     1      34.021 -24.940 -15.470  0.00  0.00    +0.150 HD
BRANCH   4   6
ATOM      6  C   UNL     1      36.334 -24.658 -14.626  0.00  0.00    +0.083 C 
BRANCH   6   7
ATOM      7  C   UNL     1      37.832 -24.364 -14.735  0.00  0.00    -0.001 C 
BRANCH   7   8
ATOM      8  CA  UNL     1      38.696 -25.622 -14.598  0.00  0.00    +0.036 C 
BRANCH   8   9
ATOM      9  N   UNL     1      38.695 -26.066 -13.201  0.00  0.00    +0.389 N 
ATOM     10  H1  UNL     1      39.410 -25.557 -12.681  0.00  0.00    -0.088 HD
ATOM     11  H2  UNL     1      38.895 -27.066 -13.162  0.00  0.00    -0.088 HD
ATOM     12  H3  UNL     1      37.780 -25.887 -12.788  0.00  0.00    -0.088 HD
ENDBRANCH   8   9
BRANCH   8  14
ATOM     13  OXT UNL     1      40.896 -24.605 -14.340  0.00  0.00    -0.253 OA
ATOM     14  C   UNL     1      40.143 -25.341 -14.964  0.00  0.00    +0.293 C 
BRANCH  14  15
ATOM     15  O   UNL     1      40.519 -25.985 -16.099  0.00  0.00    -0.482 OA
ATOM     16  H   UNL     1      39.935 -26.030 -16.829  0.00  0.00    +0.295 HD
ENDBRANCH  14  15
ENDBRANCH   8  14
ENDBRANCH   7   8
ENDBRANCH   6   7
ENDBRANCH   4   6
ENDBRANCH   1   3
BRANCH   1  19
ATOM     17  O   UNL     1      31.813 -23.442 -14.213  0.00  0.00    -0.273 OA
ATOM     18  N   UNL     1      30.840 -23.469 -16.319  0.00  0.00    -0.294 N 
ATOM     19  C   ACE A   1      31.905 -23.351 -15.435  0.00  0.00    +0.242 C 
ATOM     20  H   UNL     1      31.016 -23.380 -17.284  0.00  0.00    +0.150 HD
BRANCH  18  21
ATOM     21  CA  UNL     1      29.487 -23.719 -15.880  0.00  0.00    +0.200 C 
BRANCH  21  23
ATOM     22  OXT UNL     1      28.272 -21.880 -16.845  0.00  0.00    -0.248 OA
ATOM     23  C   UNL     1      28.453 -23.089 -16.776  0.00  0.00    +0.334 C 
BRANCH  23  24
ATOM     24  O   UNL     1      27.742 -23.987 -17.497  0.00  0.00    -0.479 OA
ATOM     25  H   UNL     1      27.061 -24.482 -17.088  0.00  0.00    +0.295 HD
ENDBRANCH  23  24
ENDBRANCH  21  23
ENDBRANCH  18  21
ENDBRANCH   1  19
BRANCH   1  26
ATOM     26  CB  UNL     1      33.130 -23.268 -17.676  0.00  0.00    +0.087 C 
BRANCH  26  27
ATOM     27  SG  UNL     1      34.500 -22.476 -18.582  0.00  0.00    -0.133 S 
BRANCH  27  28
ATOM     28  C   UNL     1      33.512 -21.435 -19.679  0.00  0.00    +0.084 C 
BRANCH  28  29
ATOM     29  C   UNL     1      34.337 -20.368 -20.343  0.00  0.00    -0.011 C 
ATOM     30  C   UNL     1      35.726 -20.384 -20.222  0.00  0.00    -0.003 C 
ATOM     31  C   UNL     1      33.713 -19.362 -21.083  0.00  0.00    -0.003 C 
ATOM     32  C   UNL     1      36.493 -19.394 -20.839  0.00  0.00    -0.000 C 
ATOM     33  C   UNL     1      34.478 -18.372 -21.699  0.00  0.00    -0.000 C 
ATOM     34  C   UNL     1      35.867 -18.389 -21.578  0.00  0.00    -0.000 C 
ENDBRANCH  28  29
ENDBRANCH  27  28
ENDBRANCH  26  27
ENDBRANCH   1  26
TORSDOF 15
ENDMDL
MODEL 4
REMARK VINA RESULT:      -9.1      1.840      7.036
REMARK  Name = 445707
REMARK  15 active torsions:
REMARK  status: ('A' for Active; 'I' for Inactive)
REMARK    1  A    between atoms: CA_1  and  N_3
REMARK    2  A    between atoms: CA_1  and  C_19
REMARK    3  A    between atoms: CA_1  and  CB_26
REMARK    4  A    between atoms: C_4  and  C_6
REMARK    5  A    between atoms: C_6  and  C_7
REMARK    6  A    between atoms: C_7  and  CA_8
REMARK    7  A    between atoms: CA_8  and  N_9
REMARK    8  A    between atoms: CA_8  and  C_14
REMARK    9  A    between atoms: C_14  and  O_15
REMARK   10  A    between atoms: N_18  and  CA_21
REMARK   11  A    between atoms: CA_21  and  C_23
REMARK   12  A    between atoms: C_23  and  O_24
REMARK   13  A    between atoms: CB_26  and  SG_27
REMARK   14  A    between atoms: SG_27  and  C_28
REMARK   15  A    between atoms: C_28  and  C_29
REMARK                            x       y       z     vdW  Elec       q    Type
REMARK                         _______ _______ _______ _____ _____    ______ ____
ROOT
ATOM      1  CA  UNL     1      34.112 -23.881 -14.732  0.00  0.00    +0.159 C 
ENDROOT
BRANCH   1   3
ATOM      2  O   UNL     1      36.425 -23.228 -13.136  0.00  0.00    -0.275 OA
ATOM      3  N   UNL     1      35.040 -24.808 -14.126  0.00  0.00    -0.298 N 
ATOM      4  C   UNL     1      36.129 -24.396 -13.372  0.00  0.00    +0.223 C 
ATOM      5  H   UNL     1      34.893 -25.772 -14.254  0.00  0.00    +0.150 HD
BRANCH   4   6
ATOM      6  C   UNL     1      36.937 -25.579 -12.867  0.00  0.00    +0.083 C 
BRANCH   6   7
ATOM      7  C   UNL     1      37.871 -26.147 -13.938  0.00  0.00    -0.001 C 
BRANCH   7   8
ATOM      8  CA  UNL     1      39.026 -25.200 -14.282  0.00  0.00    +0.036 C 
BRANCH   8   9
ATOM      9  N   UNL     1      38.639 -24.347 -15.409  0.00  0.00    +0.389 N 
ATOM     10  H1  UNL     1      38.382 -23.422 -15.063  0.00  0.00    -0.088 HD
ATOM     11  H2  UNL     1      37.843 -24.762 -15.893  0.00  0.00    -0.088 HD
ATOM     12  H3  UNL     1      39.423 -24.262 -16.056  0.00  0.00    -0.088 HD
ENDBRANCH   8   9
BRANCH   8  14
ATOM     13  OXT UNL     1      41.038 -26.540 -13.970  0.00  0.00    -0.253 OA
ATOM     14  C   UNL     1      40.259 -25.970 -14.723  0.00  0.00    +0.293 C 
BRANCH  14  15
ATOM     15  O   UNL     1      40.429 -25.940 -16.070  0.00  0.00    -0.482 OA
ATOM     16  H   UNL     1      41.042 -25.344 -16.452  0.00  0.00    +0.295 HD
ENDBRANCH  14  15
ENDBRANCH   8  14
ENDBRANCH   7   8
ENDBRANCH   6   7
ENDBRANCH   4   6
ENDBRANCH   1   3
BRANCH   1  19
ATOM     17  O   UNL     1      32.557 -24.767 -13.093  0.00  0.00    -0.273 OA
ATOM     18  N   UNL     1      31.758 -23.314 -14.716  0.00  0.00    -0.294 N 
ATOM     19  C   ACE A   1      32.746 -24.046 -14.071  0.00  0.00    +0.242 C 
ATOM     20  H   UNL     1      32.010 -22.764 -15.494  0.00  0.00    +0.150 HD
BRANCH  18  21
ATOM     21  CA  UNL     1      30.377 -23.327 -14.294  0.00  0.00    +0.200 C 
BRANCH  21  23
ATOM     22  OXT UNL     1      28.878 -24.298 -15.905  0.00  0.00    -0.248 OA
ATOM     23  C   UNL     1      29.583 -24.446 -14.915  0.00  0.00    +0.334 C 
BRANCH  23  24
ATOM     24  O   UNL     1      29.723 -25.629 -14.274  0.00  0.00    -0.479 OA
ATOM     25  H   UNL     1      28.985 -26.198 -14.175  0.00  0.00    +0.295 HD
ENDBRANCH  23  24
ENDBRANCH  21  23
ENDBRANCH  18  21
ENDBRANCH   1  19
BRANCH   1  26
ATOM     26  CB  UNL     1      34.069 -24.012 -16.256  0.00  0.00    +0.087 C 
BRANCH  26  27
ATOM     27  SG  UNL     1      34.888 -22.639 -17.134  0.00  0.00    -0.133 S 
BRANCH  27  28
ATOM     28  C   UNL     1      33.886 -22.662 -18.636  0.00  0.00    +0.084 C 
BRANCH  28  29
ATOM     29  C   UNL     1      34.165 -21.481 -19.523  0.00  0.00    -0.011 C 
ATOM     30  C   UNL     1      35.479 -21.155 -19.857  0.00  0.00    -0.003 C 
ATOM     31  C   UNL     1      33.109 -20.711 -20.013  0.00  0.00    -0.003 C 
ATOM     32  C   UNL     1      35.739 -20.058 -20.680  0.00  0.00    -0.000 C 
ATOM     33  C   UNL     1      33.369 -19.614 -20.835  0.00  0.00    -0.000 C 
ATOM     34  C   UNL     1      34.683 -19.289 -21.169  0.00  0.00    -0.000 C 
ENDBRANCH  28  29
ENDBRANCH  27  28
ENDBRANCH  26  27
ENDBRANCH   1  26
TORSDOF 15
ENDMDL
MODEL 5
REMARK VINA RESULT:      -9.0      8.550     11.808
REMARK  Name = 445707
REMARK  15 active torsions:
REMARK  status: ('A' for Active; 'I' for Inactive)
REMARK    1  A    between atoms: CA_1  and  N_3
REMARK    2  A    between atoms: CA_1  and  C_19
REMARK    3  A    between atoms: CA_1  and  CB_26
REMARK    4  A    between atoms: C_4  and  C_6
REMARK    5  A    between atoms: C_6  and  C_7
REMARK    6  A    between atoms: C_7  and  CA_8
REMARK    7  A    between atoms: CA_8  and  N_9
REMARK    8  A    between atoms: CA_8  and  C_14
REMARK    9  A    between atoms: C_14  and  O_15
REMARK   10  A    between atoms: N_18  and  CA_21
REMARK   11  A    between atoms: CA_21  and  C_23
REMARK   12  A    between atoms: C_23  and  O_24
REMARK   13  A    between atoms: CB_26  and  SG_27
REMARK   14  A    between atoms: SG_27  and  C_28
REMARK   15  A    between atoms: C_28  and  C_29
REMARK                            x       y       z     vdW  Elec       q    Type
REMARK                         _______ _______ _______ _____ _____    ______ ____
ROOT
ATOM      1  CA  UNL     1      34.441 -16.178 -23.490  0.00  0.00    +0.159 C 
ENDROOT
BRANCH   1   3
ATOM      2  O   UNL     1      34.943 -15.464 -20.739  0.00  0.00    -0.275 OA
ATOM      3  N   UNL     1      33.662 -15.280 -22.668  0.00  0.00    -0.298 N 
ATOM      4  C   UNL     1      33.984 -14.998 -21.349  0.00  0.00    +0.223 C 
ATOM      5  H   UNL     1      32.869 -14.851 -23.062  0.00  0.00    +0.150 HD
BRANCH   4   6
ATOM      6  C   UNL     1      32.990 -14.033 -20.726  0.00  0.00    +0.083 C 
BRANCH   6   7
ATOM      7  C   UNL     1      32.013 -13.458 -21.753  0.00  0.00    -0.001 C 
BRANCH   7   8
ATOM      8  CA  UNL     1      31.972 -11.926 -21.742  0.00  0.00    +0.036 C 
BRANCH   8   9
ATOM      9  N   UNL     1      30.580 -11.473 -21.826  0.00  0.00    +0.389 N 
ATOM     10  H1  UNL     1      30.105 -11.971 -22.579  0.00  0.00    -0.088 HD
ATOM     11  H2  UNL     1      30.560 -10.471 -22.015  0.00  0.00    -0.088 HD
ATOM     12  H3  UNL     1      30.108 -11.662 -20.942  0.00  0.00    -0.088 HD
ENDBRANCH   8   9
BRANCH   8  14
ATOM     13  OXT UNL     1      32.594 -10.188 -23.334  0.00  0.00    -0.253 OA
ATOM     14  C   UNL     1      32.691 -11.346 -22.947  0.00  0.00    +0.293 C 
BRANCH  14  15
ATOM     15  O   UNL     1      33.453 -12.272 -23.585  0.00  0.00    -0.482 OA
ATOM     16  H   UNL     1      34.378 -12.296 -23.443  0.00  0.00    +0.295 HD
ENDBRANCH  14  15
ENDBRANCH   8  14
ENDBRANCH   7   8
ENDBRANCH   6   7
ENDBRANCH   4   6
ENDBRANCH   1   3
BRANCH   1  19
ATOM     17  O   UNL     1      34.658 -16.510 -25.884  0.00  0.00    -0.273 OA
ATOM     18  N   UNL     1      33.195 -14.884 -25.113  0.00  0.00    -0.294 N 
ATOM     19  C   ACE A   1      34.125 -15.903 -24.958  0.00  0.00    +0.242 C 
ATOM     20  H   UNL     1      32.823 -14.458 -24.306  0.00  0.00    +0.150 HD
BRANCH  18  21
ATOM     21  CA  UNL     1      32.752 -14.423 -26.408  0.00  0.00    +0.200 C 
BRANCH  21  23
ATOM     22  OXT UNL     1      33.582 -12.165 -26.339  0.00  0.00    -0.248 OA
ATOM     23  C   UNL     1      33.543 -13.245 -26.915  0.00  0.00    +0.334 C 
BRANCH  23  24
ATOM     24  O   UNL     1      34.207 -13.496 -28.067  0.00  0.00    -0.479 OA
ATOM     25  H   UNL     1      34.396 -12.796 -28.660  0.00  0.00    +0.295 HD
ENDBRANCH  23  24
ENDBRANCH  21  23
ENDBRANCH  18  21
ENDBRANCH   1  19
BRANCH   1  26
ATOM     26  CB  UNL     1      34.253 -17.643 -23.092  0.00  0.00    +0.087 C 
BRANCH  26  27
ATOM     27  SG  UNL     1      35.807 -18.598 -23.055  0.00  0.00    -0.133 S 
BRANCH  27  28
ATOM     28  C   UNL     1      36.046 -18.628 -21.265  0.00  0.00    +0.084 C 
BRANCH  28  29
ATOM     29  C   UNL     1      35.346 -19.791 -20.618  0.00  0.00    -0.011 C 
ATOM     30  C   UNL     1      36.091 -20.808 -20.021  0.00  0.00    -0.003 C 
ATOM     31  C   UNL     1      33.952 -19.852 -20.613  0.00  0.00    -0.003 C 
ATOM     32  C   UNL     1      35.442 -21.888 -19.421  0.00  0.00    -0.000 C 
ATOM     33  C   UNL     1      33.304 -20.932 -20.014  0.00  0.00    -0.000 C 
ATOM     34  C   UNL     1      34.048 -21.949 -19.417  0.00  0.00    -0.000 C 
ENDBRANCH  28  29
ENDBRANCH  27  28
ENDBRANCH  26  27
ENDBRANCH   1  26
TORSDOF 15
ENDMDL
MODEL 6
REMARK VINA RESULT:      -9.0      2.698      6.206
REMARK  Name = 445707
REMARK  15 active torsions:
REMARK  status: ('A' for Active; 'I' for Inactive)
REMARK    1  A    between atoms: CA_1  and  N_3
REMARK    2  A    between atoms: CA_1  and  C_19
REMARK    3  A    between atoms: CA_1  and  CB_26
REMARK    4  A    between atoms: C_4  and  C_6
REMARK    5  A    between atoms: C_6  and  C_7
REMARK    6  A    between atoms: C_7  and  CA_8
REMARK    7  A    between atoms: CA_8  and  N_9
REMARK    8  A    between atoms: CA_8  and  C_14
REMARK    9  A    between atoms: C_14  and  O_15
REMARK   10  A    between atoms: N_18  and  CA_21
REMARK   11  A    between atoms: CA_21  and  C_23
REMARK   12  A    between atoms: C_23  and  O_24
REMARK   13  A    between atoms: CB_26  and  SG_27
REMARK   14  A    between atoms: SG_27  and  C_28
REMARK   15  A    between atoms: C_28  and  C_29
REMARK                            x       y       z     vdW  Elec       q    Type
REMARK                         _______ _______ _______ _____ _____    ______ ____
ROOT
ATOM      1  CA  UNL     1      34.025 -23.255 -15.889  0.00  0.00    +0.159 C 
ENDROOT
BRANCH   1   3
ATOM      2  O   UNL     1      36.679 -22.138 -15.694  0.00  0.00    -0.275 OA
ATOM      3  N   UNL     1      35.212 -23.914 -15.395  0.00  0.00    -0.298 N 
ATOM      4  C   UNL     1      36.450 -23.292 -15.341  0.00  0.00    +0.223 C 
ATOM      5  H   UNL     1      35.139 -24.846 -15.085  0.00  0.00    +0.150 HD
BRANCH   4   6
ATOM      6  C   UNL     1      37.519 -24.221 -14.790  0.00  0.00    +0.083 C 
BRANCH   6   7
ATOM      7  C   UNL     1      37.105 -24.864 -13.464  0.00  0.00    -0.001 C 
BRANCH   7   8
ATOM      8  CA  UNL     1      36.988 -23.848 -12.322  0.00  0.00    +0.036 C 
BRANCH   8   9
ATOM      9  N   UNL     1      38.284 -23.713 -11.652  0.00  0.00    +0.389 N 
ATOM     10  H1  UNL     1      38.669 -22.787 -11.840  0.00  0.00    -0.088 HD
ATOM     11  H2  UNL     1      38.925 -24.425 -12.005  0.00  0.00    -0.088 HD
ATOM     12  H3  UNL     1      38.162 -23.834 -10.647  0.00  0.00    -0.088 HD
ENDBRANCH   8   9
BRANCH   8  14
ATOM     13  OXT UNL     1      36.137 -24.163 -10.060  0.00  0.00    -0.253 OA
ATOM     14  C   UNL     1      36.000 -24.315 -11.267  0.00  0.00    +0.293 C 
BRANCH  14  15
ATOM     15  O   UNL     1      34.934 -24.957 -11.811  0.00  0.00    -0.482 OA
ATOM     16  H   UNL     1      35.064 -25.599 -12.479  0.00  0.00    +0.295 HD
ENDBRANCH  14  15
ENDBRANCH   8  14
ENDBRANCH   7   8
ENDBRANCH   6   7
ENDBRANCH   4   6
ENDBRANCH   1   3
BRANCH   1  19
ATOM     17  O   UNL     1      33.135 -23.642 -13.665  0.00  0.00    -0.273 OA
ATOM     18  N   UNL     1      31.654 -23.213 -15.398  0.00  0.00    -0.294 N 
ATOM     19  C   ACE A   1      32.917 -23.388 -14.847  0.00  0.00    +0.242 C 
ATOM     20  H   UNL     1      31.583 -23.012 -16.360  0.00  0.00    +0.150 HD
BRANCH  18  21
ATOM     21  CA  UNL     1      30.443 -23.317 -14.619  0.00  0.00    +0.200 C 
BRANCH  21  23
ATOM     22  OXT UNL     1      29.808 -25.630 -14.812  0.00  0.00    -0.248 OA
ATOM     23  C   UNL     1      30.194 -24.710 -14.102  0.00  0.00    +0.334 C 
BRANCH  23  24
ATOM     24  O   UNL     1      30.438 -24.847 -12.778  0.00  0.00    -0.479 OA
ATOM     25  H   UNL     1      31.213 -25.285 -12.487  0.00  0.00    +0.295 HD
ENDBRANCH  23  24
ENDBRANCH  21  23
ENDBRANCH  18  21
ENDBRANCH   1  19
BRANCH   1  26
ATOM     26  CB  UNL     1      33.617 -23.752 -17.277  0.00  0.00    +0.087 C 
BRANCH  26  27
ATOM     27  SG  UNL     1      33.329 -22.413 -18.481  0.00  0.00    -0.133 S 
BRANCH  27  28
ATOM     28  C   UNL     1      35.045 -22.137 -18.972  0.00  0.00    +0.084 C 
BRANCH  28  29
ATOM     29  C   UNL     1      35.198 -20.920 -19.841  0.00  0.00    -0.011 C 
ATOM     30  C   UNL     1      36.467 -20.402 -20.099  0.00  0.00    -0.003 C 
ATOM     31  C   UNL     1      34.070 -20.310 -20.392  0.00  0.00    -0.003 C 
ATOM     32  C   UNL     1      36.609 -19.273 -20.906  0.00  0.00    -0.000 C 
ATOM     33  C   UNL     1      34.212 -19.181 -21.198  0.00  0.00    -0.000 C 
ATOM     34  C   UNL     1      35.481 -18.663 -21.456  0.00  0.00    -0.000 C 
ENDBRANCH  28  29
ENDBRANCH  27  28
ENDBRANCH  26  27
ENDBRANCH   1  26
TORSDOF 15
ENDMDL
MODEL 7
REMARK VINA RESULT:      -8.9      2.394      5.490
REMARK  Name = 445707
REMARK  15 active torsions:
REMARK  status: ('A' for Active; 'I' for Inactive)
REMARK    1  A    between atoms: CA_1  and  N_3
REMARK    2  A    between atoms: CA_1  and  C_19
REMARK    3  A    between atoms: CA_1  and  CB_26
REMARK    4  A    between atoms: C_4  and  C_6
REMARK    5  A    between atoms: C_6  and  C_7
REMARK    6  A    between atoms: C_7  and  CA_8
REMARK    7  A    between atoms: CA_8  and  N_9
REMARK    8  A    between atoms: CA_8  and  C_14
REMARK    9  A    between atoms: C_14  and  O_15
REMARK   10  A    between atoms: N_18  and  CA_21
REMARK   11  A    between atoms: CA_21  and  C_23
REMARK   12  A    between atoms: C_23  and  O_24
REMARK   13  A    between atoms: CB_26  and  SG_27
REMARK   14  A    between atoms: SG_27  and  C_28
REMARK   15  A    between atoms: C_28  and  C_29
REMARK                            x       y       z     vdW  Elec       q    Type
REMARK                         _______ _______ _______ _____ _____    ______ ____
ROOT
ATOM      1  CA  UNL     1      35.877 -23.623 -14.804  0.00  0.00    +0.159 C 
ENDROOT
BRANCH   1   3
ATOM      2  O   UNL     1      38.082 -22.216 -16.024  0.00  0.00    -0.275 OA
ATOM      3  N   UNL     1      35.874 -22.936 -16.076  0.00  0.00    -0.298 N 
ATOM      4  C   UNL     1      36.989 -22.284 -16.580  0.00  0.00    +0.223 C 
ATOM      5  H   UNL     1      35.045 -22.930 -16.605  0.00  0.00    +0.150 HD
BRANCH   4   6
ATOM      6  C   UNL     1      36.699 -21.643 -17.927  0.00  0.00    +0.083 C 
BRANCH   6   7
ATOM      7  C   UNL     1      35.315 -22.014 -18.463  0.00  0.00    -0.001 C 
BRANCH   7   8
ATOM      8  CA  UNL     1      35.020 -21.388 -19.831  0.00  0.00    +0.036 C 
BRANCH   8   9
ATOM      9  N   UNL     1      35.874 -20.213 -20.025  0.00  0.00    +0.389 N 
ATOM     10  H1  UNL     1      36.673 -20.264 -19.393  0.00  0.00    -0.088 HD
ATOM     11  H2  UNL     1      35.338 -19.367 -19.828  0.00  0.00    -0.088 HD
ATOM     12  H3  UNL     1      36.204 -20.189 -20.990  0.00  0.00    -0.088 HD
ENDBRANCH   8   9
BRANCH   8  14
ATOM     13  OXT UNL     1      32.686 -21.221 -19.149  0.00  0.00    -0.253 OA
ATOM     14  C   UNL     1      33.584 -20.902 -19.918  0.00  0.00    +0.293 C 
BRANCH  14  15
ATOM     15  O   UNL     1      33.385 -20.076 -20.977  0.00  0.00    -0.482 OA
ATOM     16  H   UNL     1      32.519 -19.933 -21.305  0.00  0.00    +0.295 HD
ENDBRANCH  14  15
ENDBRANCH   8  14
ENDBRANCH   7   8
ENDBRANCH   6   7
ENDBRANCH   4   6
ENDBRANCH   1   3
BRANCH   1  19
ATOM     17  O   UNL     1      36.251 -25.917 -15.503  0.00  0.00    -0.273 OA
ATOM     18  N   UNL     1      37.931 -24.817 -14.341  0.00  0.00    -0.294 N 
ATOM     19  C   ACE A   1      36.683 -24.912 -14.941  0.00  0.00    +0.242 C 
ATOM     20  H   UNL     1      38.187 -23.967 -13.915  0.00  0.00    +0.150 HD
BRANCH  18  21
ATOM     21  CA  UNL     1      38.868 -25.915 -14.314  0.00  0.00    +0.200 C 
BRANCH  21  23
ATOM     22  OXT UNL     1      40.649 -26.063 -15.925  0.00  0.00    -0.248 OA
ATOM     23  C   UNL     1      40.209 -25.558 -14.900  0.00  0.00    +0.334 C 
BRANCH  23  24
ATOM     24  O   UNL     1      40.881 -24.626 -14.185  0.00  0.00    -0.479 OA
ATOM     25  H   UNL     1      40.902 -24.679 -13.250  0.00  0.00    +0.295 HD
ENDBRANCH  23  24
ENDBRANCH  21  23
ENDBRANCH  18  21
ENDBRANCH   1  19
BRANCH   1  26
ATOM     26  CB  UNL     1      34.464 -23.843 -14.258  0.00  0.00    +0.087 C 
BRANCH  26  27
ATOM     27  SG  UNL     1      33.149 -23.543 -15.484  0.00  0.00    -0.133 S 
BRANCH  27  28
ATOM     28  C   UNL     1      31.770 -24.255 -14.559  0.00  0.00    +0.084 C 
BRANCH  28  29
ATOM     29  C   UNL     1      30.438 -23.878 -15.146  0.00  0.00    -0.011 C 
ATOM     30  C   UNL     1      29.743 -24.789 -15.940  0.00  0.00    -0.003 C 
ATOM     31  C   UNL     1      29.897 -22.617 -14.894  0.00  0.00    -0.003 C 
ATOM     32  C   UNL     1      28.506 -24.439 -16.485  0.00  0.00    -0.000 C 
ATOM     33  C   UNL     1      28.661 -22.267 -15.438  0.00  0.00    -0.000 C 
ATOM     34  C   UNL     1      27.966 -23.178 -16.233  0.00  0.00    -0.000 C 
ENDBRANCH  28  29
ENDBRANCH  27  28
ENDBRANCH  26  27
ENDBRANCH   1  26
TORSDOF 15
ENDMDL
MODEL 8
REMARK VINA RESULT:      -8.7      2.905      5.970
REMARK  Name = 445707
REMARK  15 active torsions:
REMARK  status: ('A' for Active; 'I' for Inactive)
REMARK    1  A    between atoms: CA_1  and  N_3
REMARK    2  A    between atoms: CA_1  and  C_19
REMARK    3  A    between atoms: CA_1  and  CB_26
REMARK    4  A    between atoms: C_4  and  C_6
REMARK    5  A    between atoms: C_6  and  C_7
REMARK    6  A    between atoms: C_7  and  CA_8
REMARK    7  A    between atoms: CA_8  and  N_9
REMARK    8  A    between atoms: CA_8  and  C_14
REMARK    9  A    between atoms: C_14  and  O_15
REMARK   10  A    between atoms: N_18  and  CA_21
REMARK   11  A    between atoms: CA_21  and  C_23
REMARK   12  A    between atoms: C_23  and  O_24
REMARK   13  A    between atoms: CB_26  and  SG_27
REMARK   14  A    between atoms: SG_27  and  C_28
REMARK   15  A    between atoms: C_28  and  C_29
REMARK                            x       y       z     vdW  Elec       q    Type
REMARK                         _______ _______ _______ _____ _____    ______ ____
ROOT
ATOM      1  CA  UNL     1      35.137 -23.115 -15.612  0.00  0.00    +0.159 C 
ENDROOT
BRANCH   1   3
ATOM      2  O   UNL     1      37.294 -21.380 -16.428  0.00  0.00    -0.275 OA
ATOM      3  N   UNL     1      35.463 -22.708 -16.960  0.00  0.00    -0.298 N 
ATOM      4  C   UNL     1      36.526 -21.866 -17.254  0.00  0.00    +0.223 C 
ATOM      5  H   UNL     1      34.908 -23.042 -17.700  0.00  0.00    +0.150 HD
BRANCH   4   6
ATOM      6  C   UNL     1      36.629 -21.598 -18.746  0.00  0.00    +0.083 C 
BRANCH   6   7
ATOM      7  C   UNL     1      35.263 -21.608 -19.436  0.00  0.00    -0.001 C 
BRANCH   7   8
ATOM      8  CA  UNL     1      35.158 -20.572 -20.561  0.00  0.00    +0.036 C 
BRANCH   8   9
ATOM      9  N   UNL     1      36.083 -19.467 -20.296  0.00  0.00    +0.389 N 
ATOM     10  H1  UNL     1      35.688 -18.856 -19.582  0.00  0.00    -0.088 HD
ATOM     11  H2  UNL     1      36.233 -18.936 -21.154  0.00  0.00    -0.088 HD
ATOM     12  H3  UNL     1      36.974 -19.841 -19.969  0.00  0.00    -0.088 HD
ENDBRANCH   8   9
BRANCH   8  14
ATOM     13  OXT UNL     1      32.732 -20.549 -20.323  0.00  0.00    -0.253 OA
ATOM     14  C   UNL     1      33.766 -19.968 -20.627  0.00  0.00    +0.293 C 
BRANCH  14  15
ATOM     15  O   UNL     1      33.782 -18.694 -21.094  0.00  0.00    -0.482 OA
ATOM     16  H   UNL     1      32.977 -18.242 -21.252  0.00  0.00    +0.295 HD
ENDBRANCH  14  15
ENDBRANCH   8  14
ENDBRANCH   7   8
ENDBRANCH   6   7
ENDBRANCH   4   6
ENDBRANCH   1   3
BRANCH   1  19
ATOM     17  O   UNL     1      36.048 -25.364 -15.610  0.00  0.00    -0.273 OA
ATOM     18  N   UNL     1      37.022 -23.766 -14.240  0.00  0.00    -0.294 N 
ATOM     19  C   ACE A   1      36.104 -24.215 -15.180  0.00  0.00    +0.242 C 
ATOM     20  H   UNL     1      36.986 -22.823 -13.958  0.00  0.00    +0.150 HD
BRANCH  18  21
ATOM     21  CA  UNL     1      38.025 -24.627 -13.658  0.00  0.00    +0.200 C 
BRANCH  21  23
ATOM     22  OXT UNL     1      37.747 -24.911 -11.285  0.00  0.00    -0.248 OA
ATOM     23  C   UNL     1      37.545 -25.333 -12.417  0.00  0.00    +0.334 C 
BRANCH  23  24
ATOM     24  O   UNL     1      36.871 -26.478 -12.672  0.00  0.00    -0.479 OA
ATOM     25  H   UNL     1      35.974 -26.443 -12.942  0.00  0.00    +0.295 HD
ENDBRANCH  23  24
ENDBRANCH  21  23
ENDBRANCH  18  21
ENDBRANCH   1  19
BRANCH   1  26
ATOM     26  CB  UNL     1      33.665 -23.507 -15.463  0.00  0.00    +0.087 C 
BRANCH  26  27
ATOM     27  SG  UNL     1      33.254 -24.203 -13.829  0.00  0.00    -0.133 S 
BRANCH  27  28
ATOM     28  C   UNL     1      31.824 -23.162 -13.460  0.00  0.00    +0.084 C 
BRANCH  28  29
ATOM     29  C   UNL     1      30.655 -23.466 -14.356  0.00  0.00    -0.011 C 
ATOM     30  C   UNL     1      30.127 -22.468 -15.174  0.00  0.00    -0.003 C 
ATOM     31  C   UNL     1      30.101 -24.746 -14.370  0.00  0.00    -0.003 C 
ATOM     32  C   UNL     1      29.042 -22.749 -16.006  0.00  0.00    -0.000 C 
ATOM     33  C   UNL     1      29.016 -25.027 -15.201  0.00  0.00    -0.000 C 
ATOM     34  C   UNL     1      28.488 -24.030 -16.019  0.00  0.00    -0.000 C 
ENDBRANCH  28  29
ENDBRANCH  27  28
ENDBRANCH  26  27
ENDBRANCH   1  26
TORSDOF 15
ENDMDL
MODEL 9
REMARK VINA RESULT:      -8.7      8.294     11.922
REMARK  Name = 445707
REMARK  15 active torsions:
REMARK  status: ('A' for Active; 'I' for Inactive)
REMARK    1  A    between atoms: CA_1  and  N_3
REMARK    2  A    between atoms: CA_1  and  C_19
REMARK    3  A    between atoms: CA_1  and  CB_26
REMARK    4  A    between atoms: C_4  and  C_6
REMARK    5  A    between atoms: C_6  and  C_7
REMARK    6  A    between atoms: C_7  and  CA_8
REMARK    7  A    between atoms: CA_8  and  N_9
REMARK    8  A    between atoms: CA_8  and  C_14
REMARK    9  A    between atoms: C_14  and  O_15
REMARK   10  A    between atoms: N_18  and  CA_21
REMARK   11  A    between atoms: CA_21  and  C_23
REMARK   12  A    between atoms: C_23  and  O_24
REMARK   13  A    between atoms: CB_26  and  SG_27
REMARK   14  A    between atoms: SG_27  and  C_28
REMARK   15  A    between atoms: C_28  and  C_29
REMARK                            x       y       z     vdW  Elec       q    Type
REMARK                         _______ _______ _______ _____ _____    ______ ____
ROOT
ATOM      1  CA  UNL     1      34.208 -16.350 -22.994  0.00  0.00    +0.159 C 
ENDROOT
BRANCH   1   3
ATOM      2  O   UNL     1      33.829 -17.252 -25.709  0.00  0.00    -0.275 OA
ATOM      3  N   UNL     1      33.795 -15.553 -24.126  0.00  0.00    -0.298 N 
ATOM      4  C   UNL     1      33.640 -16.079 -25.400  0.00  0.00    +0.223 C 
ATOM      5  H   UNL     1      33.617 -14.595 -23.987  0.00  0.00    +0.150 HD
BRANCH   4   6
ATOM      6  C   UNL     1      33.209 -15.014 -26.395  0.00  0.00    +0.083 C 
BRANCH   6   7
ATOM      7  C   UNL     1      32.645 -13.768 -25.708  0.00  0.00    -0.001 C 
BRANCH   7   8
ATOM      8  CA  UNL     1      33.292 -12.471 -26.205  0.00  0.00    +0.036 C 
BRANCH   8   9
ATOM      9  N   UNL     1      34.197 -12.771 -27.318  0.00  0.00    +0.389 N 
ATOM     10  H1  UNL     1      35.159 -12.789 -26.979  0.00  0.00    -0.088 HD
ATOM     11  H2  UNL     1      34.103 -12.053 -28.036  0.00  0.00    -0.088 HD
ATOM     12  H3  UNL     1      33.959 -13.680 -27.714  0.00  0.00    -0.088 HD
ENDBRANCH   8   9
BRANCH   8  14
ATOM     13  OXT UNL     1      34.760 -10.778 -25.245  0.00  0.00    -0.253 OA
ATOM     14  C   UNL     1      34.136 -11.824 -25.121  0.00  0.00    +0.293 C 
BRANCH  14  15
ATOM     15  O   UNL     1      34.150 -12.555 -23.976  0.00  0.00    -0.482 OA
ATOM     16  H   UNL     1      34.864 -13.133 -23.797  0.00  0.00    +0.295 HD
ENDBRANCH  14  15
ENDBRANCH   8  14
ENDBRANCH   7   8
ENDBRANCH   6   7
ENDBRANCH   4   6
ENDBRANCH   1   3
BRANCH   1  19
ATOM     17  O   UNL     1      34.607 -15.741 -20.679  0.00  0.00    -0.273 OA
ATOM     18  N   UNL     1      32.957 -14.616 -21.859  0.00  0.00    -0.294 N 
ATOM     19  C   ACE A   1      33.973 -15.551 -21.715  0.00  0.00    +0.242 C 
ATOM     20  H   UNL     1      32.507 -14.538 -22.732  0.00  0.00    +0.150 HD
BRANCH  18  21
ATOM     21  CA  UNL     1      32.531 -13.756 -20.780  0.00  0.00    +0.200 C 
BRANCH  21  23
ATOM     22  OXT UNL     1      31.435 -11.630 -20.512  0.00  0.00    -0.248 OA
ATOM     23  C   UNL     1      31.808 -12.524 -21.261  0.00  0.00    +0.334 C 
BRANCH  23  24
ATOM     24  O   UNL     1      31.610 -12.501 -22.600  0.00  0.00    -0.479 OA
ATOM     25  H   UNL     1      31.105 -11.814 -22.986  0.00  0.00    +0.295 HD
ENDBRANCH  23  24
ENDBRANCH  21  23
ENDBRANCH  18  21
ENDBRANCH   1  19
BRANCH   1  26
ATOM     26  CB  UNL     1      35.642 -16.864 -23.135  0.00  0.00    +0.087 C 
BRANCH  26  27
ATOM     27  SG  UNL     1      35.778 -18.682 -23.091  0.00  0.00    -0.133 S 
BRANCH  27  28
ATOM     28  C   UNL     1      36.140 -18.868 -21.331  0.00  0.00    +0.084 C 
BRANCH  28  29
ATOM     29  C   UNL     1      35.221 -19.854 -20.664  0.00  0.00    -0.011 C 
ATOM     30  C   UNL     1      35.751 -20.925 -19.946  0.00  0.00    -0.003 C 
ATOM     31  C   UNL     1      33.838 -19.696 -20.762  0.00  0.00    -0.003 C 
ATOM     32  C   UNL     1      34.899 -21.841 -19.326  0.00  0.00    -0.000 C 
ATOM     33  C   UNL     1      32.986 -20.611 -20.144  0.00  0.00    -0.000 C 
ATOM     34  C   UNL     1      33.516 -21.682 -19.426  0.00  0.00    -0.000 C 
ENDBRANCH  28  29
ENDBRANCH  27  28
ENDBRANCH  26  27
ENDBRANCH   1  26
TORSDOF 15
ENDMDL
