MODEL 1
REMARK VINA RESULT:      -8.7      0.000      0.000
REMARK  Name = 3103
REMARK  4 active torsions:
REMARK  status: ('A' for Active; 'I' for Inactive)
REMARK    1  A    between atoms: C_1  and  C_2
REMARK    2  A    between atoms: C_1  and  C_8
REMARK    3  A    between atoms: C_1  and  O_14
REMARK    4  A    between atoms: O_14  and  C_16
REMARK                            x       y       z     vdW  Elec       q    Type
REMARK                         _______ _______ _______ _____ _____    ______ ____
ROOT
ATOM      1  C   UNL     1      33.358 -12.599 -23.218  0.00  0.00    +0.160 C 
ENDROOT
BRANCH   1   2
ATOM      2  C   UNL     1      33.441 -13.846 -22.363  0.00  0.00    +0.009 C 
ATOM      3  C   UNL     1      32.387 -14.159 -21.523  0.00  0.00    -0.002 C 
ATOM      4  C   UNL     1      34.569 -14.643 -22.440  0.00  0.00    -0.002 C 
ATOM      5  C   UNL     1      32.464 -15.307 -20.735  0.00  0.00    -0.000 C 
ATOM      6  C   UNL     1      34.646 -15.792 -21.653  0.00  0.00    -0.000 C 
ATOM      7  C   UNL     1      33.593 -16.124 -20.800  0.00  0.00    -0.000 C 
ENDBRANCH   1   2
BRANCH   1   8
ATOM      8  C   UNL     1      33.378 -12.900 -24.705  0.00  0.00    +0.009 C 
ATOM      9  C   UNL     1      32.879 -14.109 -25.153  0.00  0.00    -0.002 C 
ATOM     10  C   UNL     1      33.893 -11.957 -25.575  0.00  0.00    -0.002 C 
ATOM     11  C   UNL     1      32.897 -14.385 -26.519  0.00  0.00    -0.000 C 
ATOM     12  C   UNL     1      33.910 -12.234 -26.942  0.00  0.00    -0.000 C 
ATOM     13  C   UNL     1      33.412 -13.448 -27.415  0.00  0.00    -0.000 C 
ENDBRANCH   1   8
BRANCH   1  14
ATOM     14  O   UNL     1      32.222 -11.829 -22.851  0.00  0.00    -0.350 OA
BRANCH  14  16
ATOM     15  N   UNL     1      31.730  -7.838 -21.690  0.00  0.00    +0.386 N 
ATOM     16  C   UNL     1      32.595 -10.547 -22.365  0.00  0.00    +0.112 C 
ATOM     17  C   UNL     1      31.791 -10.240 -21.106  0.00  0.00    +0.007 C 
ATOM     18  C   UNL     1      32.332  -9.487 -23.431  0.00  0.00    +0.007 C 
ATOM     19  C   UNL     1      32.031  -8.808 -20.627  0.00  0.00    -0.075 C 
ATOM     20  C   UNL     1      32.556  -8.079 -22.881  0.00  0.00    -0.075 C 
ATOM     21  C   UNL     1      31.918  -6.472 -21.203  0.00  0.00    -0.101 C 
ATOM     22  H   UNL     1      30.752  -7.959 -21.957  0.00  0.00    -0.080 HD
ENDBRANCH  14  16
ENDBRANCH   1  14
TORSDOF 4
ENDMDL
MODEL 2
REMARK VINA RESULT:      -8.6      9.274     13.345
REMARK  Name = 3103
REMARK  4 active torsions:
REMARK  status: ('A' for Active; 'I' for Inactive)
REMARK    1  A    between atoms: C_1  and  C_2
REMARK    2  A    between atoms: C_1  and  C_8
REMARK    3  A    between atoms: C_1  and  O_14
REMARK    4  A    between atoms: O_14  and  C_16
REMARK                            x       y       z     vdW  Elec       q    Type
REMARK                         _______ _______ _______ _____ _____    ______ ____
ROOT
ATOM      1  C   UNL     1      34.595 -22.976 -16.319  0.00  0.00    +0.160 C 
ENDROOT
BRANCH   1   2
ATOM      2  C   UNL     1      33.243 -23.238 -15.690  0.00  0.00    +0.009 C 
ATOM      3  C   UNL     1      32.145 -23.435 -16.508  0.00  0.00    -0.002 C 
ATOM      4  C   UNL     1      33.136 -23.273 -14.311  0.00  0.00    -0.002 C 
ATOM      5  C   UNL     1      30.900 -23.677 -15.929  0.00  0.00    -0.000 C 
ATOM      6  C   UNL     1      31.890 -23.516 -13.731  0.00  0.00    -0.000 C 
ATOM      7  C   UNL     1      30.772 -23.717 -14.540  0.00  0.00    -0.000 C 
ENDBRANCH   1   2
BRANCH   1   8
ATOM      8  C   UNL     1      35.698 -23.830 -15.725  0.00  0.00    +0.009 C 
ATOM      9  C   UNL     1      35.432 -25.150 -15.411  0.00  0.00    -0.002 C 
ATOM     10  C   UNL     1      36.944 -23.269 -15.514  0.00  0.00    -0.002 C 
ATOM     11  C   UNL     1      36.447 -25.936 -14.866  0.00  0.00    -0.000 C 
ATOM     12  C   UNL     1      37.959 -24.055 -14.969  0.00  0.00    -0.000 C 
ATOM     13  C   UNL     1      37.711 -25.389 -14.644  0.00  0.00    -0.000 C 
ENDBRANCH   1   8
BRANCH   1  14
ATOM     14  O   UNL     1      34.515 -23.124 -17.729  0.00  0.00    -0.350 OA
BRANCH  14  16
ATOM     15  N   UNL     1      35.040 -20.488 -20.938  0.00  0.00    +0.386 N 
ATOM     16  C   UNL     1      34.661 -21.876 -18.394  0.00  0.00    +0.112 C 
ATOM     17  C   UNL     1      33.536 -21.720 -19.411  0.00  0.00    +0.007 C 
ATOM     18  C   UNL     1      36.017 -21.812 -19.093  0.00  0.00    +0.007 C 
ATOM     19  C   UNL     1      33.731 -20.472 -20.271  0.00  0.00    -0.075 C 
ATOM     20  C   UNL     1      36.135 -20.560 -19.961  0.00  0.00    -0.075 C 
ATOM     21  C   UNL     1      35.194 -19.311 -21.794  0.00  0.00    -0.101 C 
ATOM     22  H   UNL     1      35.085 -21.325 -21.521  0.00  0.00    -0.080 HD
ENDBRANCH  14  16
ENDBRANCH   1  14
TORSDOF 4
ENDMDL
MODEL 3
REMARK VINA RESULT:      -8.5      2.395      5.951
REMARK  Name = 3103
REMARK  4 active torsions:
REMARK  status: ('A' for Active; 'I' for Inactive)
REMARK    1  A    between atoms: C_1  and  C_2
REMARK    2  A    between atoms: C_1  and  C_8
REMARK    3  A    between atoms: C_1  and  O_14
REMARK    4  A    between atoms: O_14  and  C_16
REMARK                            x       y       z     vdW  Elec       q    Type
REMARK                         _______ _______ _______ _____ _____    ______ ____
ROOT
ATOM      1  C   UNL     1      32.466 -10.096 -23.163  0.00  0.00    +0.160 C 
ENDROOT
BRANCH   1   2
ATOM      2  C   UNL     1      32.065 -10.125 -21.702  0.00  0.00    +0.009 C 
ATOM      3  C   UNL     1      31.447 -11.254 -21.195  0.00  0.00    -0.002 C 
ATOM      4  C   UNL     1      32.325  -9.022 -20.909  0.00  0.00    -0.002 C 
ATOM      5  C   UNL     1      31.078 -11.281 -19.851  0.00  0.00    -0.000 C 
ATOM      6  C   UNL     1      31.957  -9.049 -19.564  0.00  0.00    -0.000 C 
ATOM      7  C   UNL     1      31.333 -10.178 -19.035  0.00  0.00    -0.000 C 
ENDBRANCH   1   2
BRANCH   1   8
ATOM      8  C   UNL     1      32.758  -8.695 -23.667  0.00  0.00    +0.009 C 
ATOM      9  C   UNL     1      34.072  -8.305 -23.846  0.00  0.00    -0.002 C 
ATOM     10  C   UNL     1      31.702  -7.844 -23.936  0.00  0.00    -0.002 C 
ATOM     11  C   UNL     1      34.339  -7.017 -24.310  0.00  0.00    -0.000 C 
ATOM     12  C   UNL     1      31.970  -6.556 -24.401  0.00  0.00    -0.000 C 
ATOM     13  C   UNL     1      33.289  -6.143 -24.588  0.00  0.00    -0.000 C 
ENDBRANCH   1   8
BRANCH   1  14
ATOM     14  O   UNL     1      33.559 -10.975 -23.387  0.00  0.00    -0.350 OA
BRANCH  14  16
ATOM     15  N   UNL     1      33.892 -14.805 -25.042  0.00  0.00    +0.386 N 
ATOM     16  C   UNL     1      33.124 -12.230 -23.894  0.00  0.00    +0.112 C 
ATOM     17  C   UNL     1      33.737 -13.344 -23.053  0.00  0.00    +0.007 C 
ATOM     18  C   UNL     1      33.543 -12.377 -25.354  0.00  0.00    +0.007 C 
ATOM     19  C   UNL     1      33.436 -14.720 -23.647  0.00  0.00    -0.075 C 
ATOM     20  C   UNL     1      33.246 -13.782 -25.877  0.00  0.00    -0.075 C 
ATOM     21  C   UNL     1      33.640 -16.141 -25.582  0.00  0.00    -0.101 C 
ATOM     22  H   UNL     1      34.897 -14.631 -25.054  0.00  0.00    -0.080 HD
ENDBRANCH  14  16
ENDBRANCH   1  14
TORSDOF 4
ENDMDL
MODEL 4
REMARK VINA RESULT:      -8.5      2.394      5.931
REMARK  Name = 3103
REMARK  4 active torsions:
REMARK  status: ('A' for Active; 'I' for Inactive)
REMARK    1  A    between atoms: C_1  and  C_2
REMARK    2  A    between atoms: C_1  and  C_8
REMARK    3  A    between atoms: C_1  and  O_14
REMARK    4  A    between atoms: O_14  and  C_16
REMARK                            x       y       z     vdW  Elec       q    Type
REMARK                         _______ _______ _______ _____ _____    ______ ____
ROOT
ATOM      1  C   UNL     1      32.463 -10.113 -23.159  0.00  0.00    +0.160 C 
ENDROOT
BRANCH   1   2
ATOM      2  C   UNL     1      32.076 -10.142 -21.695  0.00  0.00    +0.009 C 
ATOM      3  C   UNL     1      32.308  -9.023 -20.915  0.00  0.00    -0.002 C 
ATOM      4  C   UNL     1      31.501 -11.286 -21.172  0.00  0.00    -0.002 C 
ATOM      5  C   UNL     1      31.951  -9.049 -19.567  0.00  0.00    -0.000 C 
ATOM      6  C   UNL     1      31.144 -11.312 -19.823  0.00  0.00    -0.000 C 
ATOM      7  C   UNL     1      31.370 -10.194 -19.020  0.00  0.00    -0.000 C 
ENDBRANCH   1   2
BRANCH   1   8
ATOM      8  C   UNL     1      32.740  -8.712 -23.670  0.00  0.00    +0.009 C 
ATOM      9  C   UNL     1      31.676  -7.872 -23.941  0.00  0.00    -0.002 C 
ATOM     10  C   UNL     1      34.050  -8.309 -23.850  0.00  0.00    -0.002 C 
ATOM     11  C   UNL     1      31.931  -6.584 -24.410  0.00  0.00    -0.000 C 
ATOM     12  C   UNL     1      34.305  -7.020 -24.319  0.00  0.00    -0.000 C 
ATOM     13  C   UNL     1      33.245  -6.157 -24.599  0.00  0.00    -0.000 C 
ENDBRANCH   1   8
BRANCH   1  14
ATOM     14  O   UNL     1      33.559 -10.986 -23.392  0.00  0.00    -0.350 OA
BRANCH  14  16
ATOM     15  N   UNL     1      33.905 -14.819 -25.035  0.00  0.00    +0.386 N 
ATOM     16  C   UNL     1      33.128 -12.243 -23.895  0.00  0.00    +0.112 C 
ATOM     17  C   UNL     1      33.745 -13.353 -23.051  0.00  0.00    +0.007 C 
ATOM     18  C   UNL     1      33.549 -12.394 -25.355  0.00  0.00    +0.007 C 
ATOM     19  C   UNL     1      33.448 -14.732 -23.641  0.00  0.00    -0.075 C 
ATOM     20  C   UNL     1      33.257 -13.801 -25.873  0.00  0.00    -0.075 C 
ATOM     21  C   UNL     1      33.658 -16.158 -25.571  0.00  0.00    -0.101 C 
ATOM     22  H   UNL     1      34.910 -14.643 -25.047  0.00  0.00    -0.080 HD
ENDBRANCH  14  16
ENDBRANCH   1  14
TORSDOF 4
ENDMDL
MODEL 5
REMARK VINA RESULT:      -8.5     11.858     15.134
REMARK  Name = 3103
REMARK  4 active torsions:
REMARK  status: ('A' for Active; 'I' for Inactive)
REMARK    1  A    between atoms: C_1  and  C_2
REMARK    2  A    between atoms: C_1  and  C_8
REMARK    3  A    between atoms: C_1  and  O_14
REMARK    4  A    between atoms: O_14  and  C_16
REMARK                            x       y       z     vdW  Elec       q    Type
REMARK                         _______ _______ _______ _____ _____    ______ ____
ROOT
ATOM      1  C   UNL     1      34.501 -23.848 -15.308  0.00  0.00    +0.160 C 
ENDROOT
BRANCH   1   2
ATOM      2  C   UNL     1      35.017 -23.080 -16.507  0.00  0.00    +0.009 C 
ATOM      3  C   UNL     1      36.280 -22.516 -16.455  0.00  0.00    -0.002 C 
ATOM      4  C   UNL     1      34.214 -22.959 -17.627  0.00  0.00    -0.002 C 
ATOM      5  C   UNL     1      36.754 -21.809 -17.559  0.00  0.00    -0.000 C 
ATOM      6  C   UNL     1      34.689 -22.252 -18.732  0.00  0.00    -0.000 C 
ATOM      7  C   UNL     1      35.959 -21.676 -18.698  0.00  0.00    -0.000 C 
ENDBRANCH   1   2
BRANCH   1   8
ATOM      8  C   UNL     1      35.556 -24.738 -14.678  0.00  0.00    +0.009 C 
ATOM      9  C   UNL     1      36.054 -24.412 -13.430  0.00  0.00    -0.002 C 
ATOM     10  C   UNL     1      35.993 -25.853 -15.368  0.00  0.00    -0.002 C 
ATOM     11  C   UNL     1      37.023 -25.230 -12.852  0.00  0.00    -0.000 C 
ATOM     12  C   UNL     1      36.963 -26.672 -14.789  0.00  0.00    -0.000 C 
ATOM     13  C   UNL     1      37.478 -26.361 -13.531  0.00  0.00    -0.000 C 
ENDBRANCH   1   8
BRANCH   1  14
ATOM     14  O   UNL     1      33.934 -22.953 -14.362  0.00  0.00    -0.350 OA
BRANCH  14  16
ATOM     15  N   UNL     1      30.154 -24.633 -15.000  0.00  0.00    +0.386 N 
ATOM     16  C   UNL     1      32.575 -23.271 -14.092  0.00  0.00    +0.112 C 
ATOM     17  C   UNL     1      32.423 -24.788 -14.031  0.00  0.00    +0.007 C 
ATOM     18  C   UNL     1      31.676 -22.694 -15.183  0.00  0.00    +0.007 C 
ATOM     19  C   UNL     1      30.956 -25.196 -13.904  0.00  0.00    -0.075 C 
ATOM     20  C   UNL     1      30.232 -23.166 -15.019  0.00  0.00    -0.075 C 
ATOM     21  C   UNL     1      28.762 -25.071 -14.891  0.00  0.00    -0.101 C 
ATOM     22  H   UNL     1      30.538 -24.980 -15.879  0.00  0.00    -0.080 HD
ENDBRANCH  14  16
ENDBRANCH   1  14
TORSDOF 4
ENDMDL
MODEL 6
REMARK VINA RESULT:      -8.5     11.848     15.091
REMARK  Name = 3103
REMARK  4 active torsions:
REMARK  status: ('A' for Active; 'I' for Inactive)
REMARK    1  A    between atoms: C_1  and  C_2
REMARK    2  A    between atoms: C_1  and  C_8
REMARK    3  A    between atoms: C_1  and  O_14
REMARK    4  A    between atoms: O_14  and  C_16
REMARK                            x       y       z     vdW  Elec       q    Type
REMARK                         _______ _______ _______ _____ _____    ______ ____
ROOT
ATOM      1  C   UNL     1      34.528 -23.821 -15.354  0.00  0.00    +0.160 C 
ENDROOT
BRANCH   1   2
ATOM      2  C   UNL     1      35.066 -23.046 -16.539  0.00  0.00    +0.009 C 
ATOM      3  C   UNL     1      34.295 -22.943 -17.684  0.00  0.00    -0.002 C 
ATOM      4  C   UNL     1      36.316 -22.460 -16.451  0.00  0.00    -0.002 C 
ATOM      5  C   UNL     1      34.790 -22.229 -18.775  0.00  0.00    -0.000 C 
ATOM      6  C   UNL     1      36.811 -21.745 -17.542  0.00  0.00    -0.000 C 
ATOM      7  C   UNL     1      36.048 -21.631 -18.704  0.00  0.00    -0.000 C 
ENDBRANCH   1   2
BRANCH   1   8
ATOM      8  C   UNL     1      35.566 -24.728 -14.722  0.00  0.00    +0.009 C 
ATOM      9  C   UNL     1      35.972 -25.862 -15.401  0.00  0.00    -0.002 C 
ATOM     10  C   UNL     1      36.081 -24.399 -13.482  0.00  0.00    -0.002 C 
ATOM     11  C   UNL     1      36.927 -26.695 -14.819  0.00  0.00    -0.000 C 
ATOM     12  C   UNL     1      37.036 -25.232 -12.900  0.00  0.00    -0.000 C 
ATOM     13  C   UNL     1      37.459 -26.381 -13.569  0.00  0.00    -0.000 C 
ENDBRANCH   1   8
BRANCH   1  14
ATOM     14  O   UNL     1      33.958 -22.930 -14.406  0.00  0.00    -0.350 OA
BRANCH  14  16
ATOM     15  N   UNL     1      30.231 -24.740 -14.997  0.00  0.00    +0.386 N 
ATOM     16  C   UNL     1      32.591 -23.232 -14.162  0.00  0.00    +0.112 C 
ATOM     17  C   UNL     1      32.451 -24.729 -13.908  0.00  0.00    +0.007 C 
ATOM     18  C   UNL     1      31.742 -22.818 -15.362  0.00  0.00    +0.007 C 
ATOM     19  C   UNL     1      30.982 -25.140 -13.799  0.00  0.00    -0.075 C 
ATOM     20  C   UNL     1      30.296 -23.288 -15.207  0.00  0.00    -0.075 C 
ATOM     21  C   UNL     1      28.839 -25.182 -14.899  0.00  0.00    -0.101 C 
ATOM     22  H   UNL     1      30.662 -25.193 -15.803  0.00  0.00    -0.080 HD
ENDBRANCH  14  16
ENDBRANCH   1  14
TORSDOF 4
ENDMDL
MODEL 7
REMARK VINA RESULT:      -8.4      3.033      6.018
REMARK  Name = 3103
REMARK  4 active torsions:
REMARK  status: ('A' for Active; 'I' for Inactive)
REMARK    1  A    between atoms: C_1  and  C_2
REMARK    2  A    between atoms: C_1  and  C_8
REMARK    3  A    between atoms: C_1  and  O_14
REMARK    4  A    between atoms: O_14  and  C_16
REMARK                            x       y       z     vdW  Elec       q    Type
REMARK                         _______ _______ _______ _____ _____    ______ ____
ROOT
ATOM      1  C   UNL     1      32.851 -13.922 -22.982  0.00  0.00    +0.160 C 
ENDROOT
BRANCH   1   2
ATOM      2  C   UNL     1      32.245 -12.863 -22.085  0.00  0.00    +0.009 C 
ATOM      3  C   UNL     1      32.331 -13.012 -20.712  0.00  0.00    -0.002 C 
ATOM      4  C   UNL     1      31.618 -11.771 -22.659  0.00  0.00    -0.002 C 
ATOM      5  C   UNL     1      31.772 -12.036 -19.886  0.00  0.00    -0.000 C 
ATOM      6  C   UNL     1      31.060 -10.795 -21.833  0.00  0.00    -0.000 C 
ATOM      7  C   UNL     1      31.136 -10.928 -20.446  0.00  0.00    -0.000 C 
ENDBRANCH   1   2
BRANCH   1   8
ATOM      8  C   UNL     1      33.153 -13.411 -24.377  0.00  0.00    +0.009 C 
ATOM      9  C   UNL     1      32.781 -14.175 -25.468  0.00  0.00    -0.002 C 
ATOM     10  C   UNL     1      33.793 -12.194 -24.525  0.00  0.00    -0.002 C 
ATOM     11  C   UNL     1      33.059 -13.705 -26.751  0.00  0.00    -0.000 C 
ATOM     12  C   UNL     1      34.070 -11.724 -25.808  0.00  0.00    -0.000 C 
ATOM     13  C   UNL     1      33.703 -12.480 -26.922  0.00  0.00    -0.000 C 
ENDBRANCH   1   8
BRANCH   1  14
ATOM     14  O   UNL     1      34.001 -14.484 -22.365  0.00  0.00    -0.350 OA
BRANCH  14  16
ATOM     15  N   UNL     1      35.234 -18.404 -21.573  0.00  0.00    +0.386 N 
ATOM     16  C   UNL     1      33.985 -15.904 -22.426  0.00  0.00    +0.112 C 
ATOM     17  C   UNL     1      33.813 -16.459 -21.016  0.00  0.00    +0.007 C 
ATOM     18  C   UNL     1      35.285 -16.416 -23.041  0.00  0.00    +0.007 C 
ATOM     19  C   UNL     1      33.950 -17.981 -20.997  0.00  0.00    -0.075 C 
ATOM     20  C   UNL     1      35.375 -17.939 -22.960  0.00  0.00    -0.075 C 
ATOM     21  C   UNL     1      35.370 -19.860 -21.505  0.00  0.00    -0.101 C 
ATOM     22  H   UNL     1      35.980 -17.979 -21.022  0.00  0.00    -0.080 HD
ENDBRANCH  14  16
ENDBRANCH   1  14
TORSDOF 4
ENDMDL
MODEL 8
REMARK VINA RESULT:      -8.4      3.178      4.581
REMARK  Name = 3103
REMARK  4 active torsions:
REMARK  status: ('A' for Active; 'I' for Inactive)
REMARK    1  A    between atoms: C_1  and  C_2
REMARK    2  A    between atoms: C_1  and  C_8
REMARK    3  A    between atoms: C_1  and  O_14
REMARK    4  A    between atoms: O_14  and  C_16
REMARK                            x       y       z     vdW  Elec       q    Type
REMARK                         _______ _______ _______ _____ _____    ______ ____
ROOT
ATOM      1  C   UNL     1      32.622  -8.571 -22.555  0.00  0.00    +0.160 C 
ENDROOT
BRANCH   1   2
ATOM      2  C   UNL     1      32.089  -9.421 -21.422  0.00  0.00    +0.009 C 
ATOM      3  C   UNL     1      32.356  -9.049 -20.116  0.00  0.00    -0.002 C 
ATOM      4  C   UNL     1      31.347 -10.551 -21.717  0.00  0.00    -0.002 C 
ATOM      5  C   UNL     1      31.864  -9.833 -19.072  0.00  0.00    -0.000 C 
ATOM      6  C   UNL     1      30.854 -11.334 -20.673  0.00  0.00    -0.000 C 
ATOM      7  C   UNL     1      31.113 -10.975 -19.350  0.00  0.00    -0.000 C 
ENDBRANCH   1   2
BRANCH   1   8
ATOM      8  C   UNL     1      33.448  -9.364 -23.550  0.00  0.00    +0.009 C 
ATOM      9  C   UNL     1      33.018 -10.622 -23.931  0.00  0.00    -0.002 C 
ATOM     10  C   UNL     1      34.610  -8.809 -24.053  0.00  0.00    -0.002 C 
ATOM     11  C   UNL     1      33.777 -11.350 -24.845  0.00  0.00    -0.000 C 
ATOM     12  C   UNL     1      35.369  -9.538 -24.969  0.00  0.00    -0.000 C 
ATOM     13  C   UNL     1      34.953 -10.809 -25.365  0.00  0.00    -0.000 C 
ENDBRANCH   1   8
BRANCH   1  14
ATOM     14  O   UNL     1      31.557  -7.877 -23.189  0.00  0.00    -0.350 OA
BRANCH  14  16
ATOM     15  N   UNL     1      30.779  -3.838 -23.964  0.00  0.00    +0.386 N 
ATOM     16  C   UNL     1      31.803  -6.478 -23.240  0.00  0.00    +0.112 C 
ATOM     17  C   UNL     1      30.748  -5.758 -22.406  0.00  0.00    +0.007 C 
ATOM     18  C   UNL     1      31.756  -5.991 -24.686  0.00  0.00    +0.007 C 
ATOM     19  C   UNL     1      30.863  -4.241 -22.553  0.00  0.00    -0.075 C 
ATOM     20  C   UNL     1      31.841  -4.467 -24.762  0.00  0.00    -0.075 C 
ATOM     21  C   UNL     1      30.843  -2.381 -24.084  0.00  0.00    -0.101 C 
ATOM     22  H   UNL     1      29.882  -4.158 -24.328  0.00  0.00    -0.080 HD
ENDBRANCH  14  16
ENDBRANCH   1  14
TORSDOF 4
ENDMDL
MODEL 9
REMARK VINA RESULT:      -8.4      1.058      1.857
REMARK  Name = 3103
REMARK  4 active torsions:
REMARK  status: ('A' for Active; 'I' for Inactive)
REMARK    1  A    between atoms: C_1  and  C_2
REMARK    2  A    between atoms: C_1  and  C_8
REMARK    3  A    between atoms: C_1  and  O_14
REMARK    4  A    between atoms: O_14  and  C_16
REMARK                            x       y       z     vdW  Elec       q    Type
REMARK                         _______ _______ _______ _____ _____    ______ ____
ROOT
ATOM      1  C   UNL     1      33.099 -13.098 -22.955  0.00  0.00    +0.160 C 
ENDROOT
BRANCH   1   2
ATOM      2  C   UNL     1      33.759 -14.288 -22.291  0.00  0.00    +0.009 C 
ATOM      3  C   UNL     1      34.494 -15.170 -23.063  0.00  0.00    -0.002 C 
ATOM      4  C   UNL     1      33.611 -14.466 -20.927  0.00  0.00    -0.002 C 
ATOM      5  C   UNL     1      35.101 -16.266 -22.450  0.00  0.00    -0.000 C 
ATOM      6  C   UNL     1      34.219 -15.562 -20.314  0.00  0.00    -0.000 C 
ATOM      7  C   UNL     1      34.964 -16.462 -21.076  0.00  0.00    -0.000 C 
ENDBRANCH   1   2
BRANCH   1   8
ATOM      8  C   UNL     1      33.225 -13.121 -24.467  0.00  0.00    +0.009 C 
ATOM      9  C   UNL     1      32.691 -14.186 -25.170  0.00  0.00    -0.002 C 
ATOM     10  C   UNL     1      33.868 -12.077 -25.105  0.00  0.00    -0.002 C 
ATOM     11  C   UNL     1      32.806 -14.207 -26.559  0.00  0.00    -0.000 C 
ATOM     12  C   UNL     1      33.983 -12.098 -26.495  0.00  0.00    -0.000 C 
ATOM     13  C   UNL     1      33.452 -13.163 -27.222  0.00  0.00    -0.000 C 
ENDBRANCH   1   8
BRANCH   1  14
ATOM     14  O   UNL     1      31.745 -12.995 -22.540  0.00  0.00    -0.350 OA
BRANCH  14  16
ATOM     15  N   UNL     1      32.389  -9.319 -20.644  0.00  0.00    +0.386 N 
ATOM     16  C   UNL     1      31.441 -11.688 -22.069  0.00  0.00    +0.112 C 
ATOM     17  C   UNL     1      32.413 -10.695 -22.698  0.00  0.00    +0.007 C 
ATOM     18  C   UNL     1      31.552 -11.643 -20.547  0.00  0.00    +0.007 C 
ATOM     19  C   UNL     1      32.240  -9.297 -22.106  0.00  0.00    -0.075 C 
ATOM     20  C   UNL     1      31.405 -10.216 -20.022  0.00  0.00    -0.075 C 
ATOM     21  C   UNL     1      32.268  -7.968 -20.097  0.00  0.00    -0.101 C 
ATOM     22  H   UNL     1      33.320  -9.678 -20.429  0.00  0.00    -0.080 HD
ENDBRANCH  14  16
ENDBRANCH   1  14
TORSDOF 4
ENDMDL
