MODEL 1
REMARK VINA RESULT:      -8.6      0.000      0.000
REMARK  Name = 5311068
REMARK  2 active torsions:
REMARK  status: ('A' for Active; 'I' for Inactive)
REMARK    1  A    between atoms: C_1  and  C_3
REMARK    2  A    between atoms: C_1  and  C_13
REMARK                            x       y       z     vdW  Elec       q    Type
REMARK                         _______ _______ _______ _____ _____    ______ ____
ROOT
ATOM      1  C   UNL     1      35.121 -17.528 -21.707  0.00  0.00    +0.059 C 
ATOM      2  C   UNL     1      34.716 -16.188 -21.042  0.00  0.00    +0.011 C 
ENDROOT
BRANCH   1   3
ATOM      3  C   UNL     1      34.584 -18.764 -21.063  0.00  0.00    -0.021 C 
ATOM      4  C   UNL     1      35.440 -19.734 -20.542  0.00  0.00    -0.029 C 
ATOM      5  C   UNL     1      34.914 -20.879 -19.944  0.00  0.00    -0.026 C 
ATOM      6  C   UNL     1      33.202 -18.939 -20.985  0.00  0.00    -0.004 C 
ATOM      7  C   UNL     1      36.921 -19.546 -20.625  0.00  0.00    +0.030 C 
ATOM      8  C   UNL     1      33.532 -21.055 -19.867  0.00  0.00    -0.005 C 
ATOM      9  C   UNL     1      32.676 -20.085 -20.388  0.00  0.00    -0.001 C 
ATOM     10  C   UNL     1      35.810 -21.934 -19.380  0.00  0.00    +0.031 C 
ENDBRANCH   1   3
BRANCH   1  13
ATOM     11  N   UNL     1      34.481 -16.316 -23.788  0.00  0.00    -0.318 N 
ATOM     12  N   UNL     1      34.550 -17.883 -25.360  0.00  0.00    -0.315 N 
ATOM     13  C   UNL     1      34.838 -17.465 -23.217  0.00  0.00    +0.041 C 
ATOM     14  C   UNL     1      34.887 -18.421 -24.142  0.00  0.00    +0.069 C 
ATOM     15  C   UNL     1      34.312 -16.614 -25.111  0.00  0.00    +0.182 C 
ATOM     16  H   UNL     1      34.364 -15.442 -23.351  0.00  0.00    +0.148 HD
ATOM     17  H   UNL     1      34.500 -18.346 -26.227  0.00  0.00    +0.148 HD
ENDBRANCH   1  13
TORSDOF 2
ENDMDL
MODEL 2
REMARK VINA RESULT:      -8.5      2.397      5.166
REMARK  Name = 5311068
REMARK  2 active torsions:
REMARK  status: ('A' for Active; 'I' for Inactive)
REMARK    1  A    between atoms: C_1  and  C_3
REMARK    2  A    between atoms: C_1  and  C_13
REMARK                            x       y       z     vdW  Elec       q    Type
REMARK                         _______ _______ _______ _____ _____    ______ ____
ROOT
ATOM      1  C   UNL     1      35.378 -18.708 -21.124  0.00  0.00    +0.059 C 
ATOM      2  C   UNL     1      36.830 -19.232 -20.984  0.00  0.00    +0.011 C 
ENDROOT
BRANCH   1   3
ATOM      3  C   UNL     1      35.009 -18.161 -22.464  0.00  0.00    -0.021 C 
ATOM      4  C   UNL     1      34.657 -16.821 -22.621  0.00  0.00    -0.029 C 
ATOM      5  C   UNL     1      34.317 -16.334 -23.883  0.00  0.00    -0.026 C 
ATOM      6  C   UNL     1      35.022 -19.014 -23.568  0.00  0.00    -0.004 C 
ATOM      7  C   UNL     1      34.642 -15.908 -21.438  0.00  0.00    +0.030 C 
ATOM      8  C   UNL     1      34.330 -17.186 -24.988  0.00  0.00    -0.005 C 
ATOM      9  C   UNL     1      34.683 -18.526 -24.830  0.00  0.00    -0.001 C 
ATOM     10  C   UNL     1      33.934 -14.903 -24.079  0.00  0.00    +0.031 C 
ENDBRANCH   1   3
BRANCH   1  13
ATOM     11  N   UNL     1      34.833 -20.844 -19.964  0.00  0.00    -0.318 N 
ATOM     12  N   UNL     1      32.620 -20.975 -20.099  0.00  0.00    -0.315 N 
ATOM     13  C   UNL     1      34.391 -19.771 -20.615  0.00  0.00    +0.041 C 
ATOM     14  C   UNL     1      33.063 -19.828 -20.709  0.00  0.00    +0.069 C 
ATOM     15  C   UNL     1      33.712 -21.565 -19.662  0.00  0.00    +0.182 C 
ATOM     16  H   UNL     1      35.767 -21.070 -19.747  0.00  0.00    +0.148 HD
ATOM     17  H   UNL     1      31.691 -21.287 -20.009  0.00  0.00    +0.148 HD
ENDBRANCH   1  13
TORSDOF 2
ENDMDL
MODEL 3
REMARK VINA RESULT:      -8.5      1.352      3.048
REMARK  Name = 5311068
REMARK  2 active torsions:
REMARK  status: ('A' for Active; 'I' for Inactive)
REMARK    1  A    between atoms: C_1  and  C_3
REMARK    2  A    between atoms: C_1  and  C_13
REMARK                            x       y       z     vdW  Elec       q    Type
REMARK                         _______ _______ _______ _____ _____    ______ ____
ROOT
ATOM      1  C   UNL     1      34.498 -18.227 -22.326  0.00  0.00    +0.059 C 
ATOM      2  C   UNL     1      35.068 -18.305 -23.764  0.00  0.00    +0.011 C 
ENDROOT
BRANCH   1   3
ATOM      3  C   UNL     1      35.071 -19.195 -21.343  0.00  0.00    -0.021 C 
ATOM      4  C   UNL     1      34.255 -20.105 -20.671  0.00  0.00    -0.029 C 
ATOM      5  C   UNL     1      34.814 -21.001 -19.759  0.00  0.00    -0.026 C 
ATOM      6  C   UNL     1      36.445 -19.181 -21.104  0.00  0.00    -0.004 C 
ATOM      7  C   UNL     1      32.782 -20.120 -20.927  0.00  0.00    +0.030 C 
ATOM      8  C   UNL     1      36.189 -20.986 -19.520  0.00  0.00    -0.005 C 
ATOM      9  C   UNL     1      37.004 -20.076 -20.192  0.00  0.00    -0.001 C 
ATOM     10  C   UNL     1      33.963 -21.985 -19.025  0.00  0.00    +0.031 C 
ENDBRANCH   1   3
BRANCH   1  13
ATOM     11  N   UNL     1      34.504 -15.763 -22.698  0.00  0.00    -0.318 N 
ATOM     12  N   UNL     1      34.613 -14.915 -20.648  0.00  0.00    -0.315 N 
ATOM     13  C   UNL     1      34.537 -16.772 -21.829  0.00  0.00    +0.041 C 
ATOM     14  C   UNL     1      34.602 -16.286 -20.591  0.00  0.00    +0.069 C 
ATOM     15  C   UNL     1      34.554 -14.633 -21.931  0.00  0.00    +0.182 C 
ATOM     16  H   UNL     1      34.456 -15.820 -23.680  0.00  0.00    +0.148 HD
ATOM     17  H   UNL     1      34.656 -14.283 -19.895  0.00  0.00    +0.148 HD
ENDBRANCH   1  13
TORSDOF 2
ENDMDL
MODEL 4
REMARK VINA RESULT:      -7.7      9.017     12.115
REMARK  Name = 5311068
REMARK  2 active torsions:
REMARK  status: ('A' for Active; 'I' for Inactive)
REMARK    1  A    between atoms: C_1  and  C_3
REMARK    2  A    between atoms: C_1  and  C_13
REMARK                            x       y       z     vdW  Elec       q    Type
REMARK                         _______ _______ _______ _____ _____    ______ ____
ROOT
ATOM      1  C   UNL     1      32.029  -7.795 -21.463  0.00  0.00    +0.059 C 
ATOM      2  C   UNL     1      32.588  -7.414 -20.069  0.00  0.00    +0.011 C 
ENDROOT
BRANCH   1   3
ATOM      3  C   UNL     1      32.857  -7.378 -22.634  0.00  0.00    -0.021 C 
ATOM      4  C   UNL     1      32.361  -6.487 -23.586  0.00  0.00    -0.029 C 
ATOM      5  C   UNL     1      33.154  -6.113 -24.670  0.00  0.00    -0.026 C 
ATOM      6  C   UNL     1      34.147  -7.892 -22.766  0.00  0.00    -0.004 C 
ATOM      7  C   UNL     1      30.978  -5.936 -23.445  0.00  0.00    +0.030 C 
ATOM      8  C   UNL     1      34.444  -6.627 -24.802  0.00  0.00    -0.005 C 
ATOM      9  C   UNL     1      34.941  -7.517 -23.850  0.00  0.00    -0.001 C 
ATOM     10  C   UNL     1      32.646  -5.162 -25.705  0.00  0.00    +0.031 C 
ENDBRANCH   1   3
BRANCH   1  13
ATOM     11  N   UNL     1      31.674 -10.001 -20.363  0.00  0.00    -0.318 N 
ATOM     12  N   UNL     1      31.073 -11.338 -22.031  0.00  0.00    -0.315 N 
ATOM     13  C   UNL     1      31.662  -9.287 -21.487  0.00  0.00    +0.041 C 
ATOM     14  C   UNL     1      31.303 -10.070 -22.503  0.00  0.00    +0.069 C 
ATOM     15  C   UNL     1      31.306 -11.263 -20.739  0.00  0.00    +0.182 C 
ATOM     16  H   UNL     1      31.901  -9.688 -19.457  0.00  0.00    +0.148 HD
ATOM     17  H   UNL     1      30.794 -12.129 -22.547  0.00  0.00    +0.148 HD
ENDBRANCH   1  13
TORSDOF 2
ENDMDL
MODEL 5
REMARK VINA RESULT:      -7.6      0.787      2.100
REMARK  Name = 5311068
REMARK  2 active torsions:
REMARK  status: ('A' for Active; 'I' for Inactive)
REMARK    1  A    between atoms: C_1  and  C_3
REMARK    2  A    between atoms: C_1  and  C_13
REMARK                            x       y       z     vdW  Elec       q    Type
REMARK                         _______ _______ _______ _____ _____    ______ ____
ROOT
ATOM      1  C   UNL     1      35.565 -17.932 -21.662  0.00  0.00    +0.059 C 
ATOM      2  C   UNL     1      34.816 -16.759 -20.982  0.00  0.00    +0.011 C 
ENDROOT
BRANCH   1   3
ATOM      3  C   UNL     1      35.585 -19.220 -20.906  0.00  0.00    -0.021 C 
ATOM      4  C   UNL     1      34.399 -19.851 -20.530  0.00  0.00    -0.029 C 
ATOM      5  C   UNL     1      34.444 -21.054 -19.825  0.00  0.00    -0.026 C 
ATOM      6  C   UNL     1      36.814 -19.792 -20.580  0.00  0.00    -0.004 C 
ATOM      7  C   UNL     1      33.082 -19.237 -20.879  0.00  0.00    +0.030 C 
ATOM      8  C   UNL     1      35.674 -21.626 -19.498  0.00  0.00    -0.005 C 
ATOM      9  C   UNL     1      36.859 -20.995 -19.875  0.00  0.00    -0.001 C 
ATOM     10  C   UNL     1      33.189 -21.749 -19.408  0.00  0.00    +0.031 C 
ENDBRANCH   1   3
BRANCH   1  13
ATOM     11  N   UNL     1      34.650 -17.034 -23.798  0.00  0.00    -0.318 N 
ATOM     12  N   UNL     1      34.487 -18.824 -25.103  0.00  0.00    -0.315 N 
ATOM     13  C   UNL     1      35.075 -18.092 -23.111  0.00  0.00    +0.041 C 
ATOM     14  C   UNL     1      34.986 -19.179 -23.874  0.00  0.00    +0.069 C 
ATOM     15  C   UNL     1      34.295 -17.525 -25.023  0.00  0.00    +0.182 C 
ATOM     16  H   UNL     1      34.602 -16.099 -23.491  0.00  0.00    +0.148 HD
ATOM     17  H   UNL     1      34.312 -19.412 -25.873  0.00  0.00    +0.148 HD
ENDBRANCH   1  13
TORSDOF 2
ENDMDL
MODEL 6
REMARK VINA RESULT:      -7.5      1.375      2.338
REMARK  Name = 5311068
REMARK  2 active torsions:
REMARK  status: ('A' for Active; 'I' for Inactive)
REMARK    1  A    between atoms: C_1  and  C_3
REMARK    2  A    between atoms: C_1  and  C_13
REMARK                            x       y       z     vdW  Elec       q    Type
REMARK                         _______ _______ _______ _____ _____    ______ ____
ROOT
ATOM      1  C   UNL     1      34.493 -18.326 -22.447  0.00  0.00    +0.059 C 
ATOM      2  C   UNL     1      35.656 -18.518 -23.453  0.00  0.00    +0.011 C 
ENDROOT
BRANCH   1   3
ATOM      3  C   UNL     1      34.367 -19.373 -21.388  0.00  0.00    -0.021 C 
ATOM      4  C   UNL     1      35.493 -19.877 -20.737  0.00  0.00    -0.029 C 
ATOM      5  C   UNL     1      35.349 -20.853 -19.751  0.00  0.00    -0.026 C 
ATOM      6  C   UNL     1      33.098 -19.844 -21.052  0.00  0.00    -0.004 C 
ATOM      7  C   UNL     1      36.853 -19.372 -21.097  0.00  0.00    +0.030 C 
ATOM      8  C   UNL     1      34.080 -21.325 -19.416  0.00  0.00    -0.005 C 
ATOM      9  C   UNL     1      32.954 -20.820 -20.066  0.00  0.00    -0.001 C 
ATOM     10  C   UNL     1      36.539 -21.411 -19.040  0.00  0.00    +0.031 C 
ENDBRANCH   1   3
BRANCH   1  13
ATOM     11  N   UNL     1      34.443 -15.848 -22.693  0.00  0.00    -0.318 N 
ATOM     12  N   UNL     1      34.618 -15.101 -20.609  0.00  0.00    -0.315 N 
ATOM     13  C   UNL     1      34.527 -16.898 -21.879  0.00  0.00    +0.041 C 
ATOM     14  C   UNL     1      34.633 -16.474 -20.621  0.00  0.00    +0.069 C 
ATOM     15  C   UNL     1      34.503 -14.756 -21.873  0.00  0.00    +0.182 C 
ATOM     16  H   UNL     1      34.357 -15.856 -23.674  0.00  0.00    +0.148 HD
ATOM     17  H   UNL     1      34.679 -14.507 -19.827  0.00  0.00    +0.148 HD
ENDBRANCH   1  13
TORSDOF 2
ENDMDL
MODEL 7
REMARK VINA RESULT:      -7.5      8.422     11.264
REMARK  Name = 5311068
REMARK  2 active torsions:
REMARK  status: ('A' for Active; 'I' for Inactive)
REMARK    1  A    between atoms: C_1  and  C_3
REMARK    2  A    between atoms: C_1  and  C_13
REMARK                            x       y       z     vdW  Elec       q    Type
REMARK                         _______ _______ _______ _____ _____    ______ ____
ROOT
ATOM      1  C   UNL     1      31.880  -9.836 -22.887  0.00  0.00    +0.059 C 
ATOM      2  C   UNL     1      31.467 -11.082 -22.063  0.00  0.00    +0.011 C 
ENDROOT
BRANCH   1   3
ATOM      3  C   UNL     1      31.907  -8.541 -22.143  0.00  0.00    -0.021 C 
ATOM      4  C   UNL     1      31.425  -7.368 -22.723  0.00  0.00    -0.029 C 
ATOM      5  C   UNL     1      31.460  -6.172 -22.006  0.00  0.00    -0.026 C 
ATOM      6  C   UNL     1      32.421  -8.519 -20.846  0.00  0.00    -0.004 C 
ATOM      7  C   UNL     1      30.874  -7.392 -24.112  0.00  0.00    +0.030 C 
ATOM      8  C   UNL     1      31.975  -6.149 -20.710  0.00  0.00    -0.005 C 
ATOM      9  C   UNL     1      32.456  -7.323 -20.130  0.00  0.00    -0.001 C 
ATOM     10  C   UNL     1      30.952  -4.900 -22.605  0.00  0.00    +0.031 C 
ENDBRANCH   1   3
BRANCH   1  13
ATOM     11  N   UNL     1      34.066  -9.146 -23.863  0.00  0.00    -0.318 N 
ATOM     12  N   UNL     1      34.870 -11.018 -24.748  0.00  0.00    -0.315 N 
ATOM     13  C   UNL     1      33.187 -10.122 -23.644  0.00  0.00    +0.041 C 
ATOM     14  C   UNL     1      33.649 -11.257 -24.167  0.00  0.00    +0.069 C 
ATOM     15  C   UNL     1      35.091  -9.737 -24.547  0.00  0.00    +0.182 C 
ATOM     16  H   UNL     1      33.992  -8.202 -23.591  0.00  0.00    +0.148 HD
ATOM     17  H   UNL     1      35.450 -11.663 -25.211  0.00  0.00    +0.148 HD
ENDBRANCH   1  13
TORSDOF 2
ENDMDL
MODEL 8
REMARK VINA RESULT:      -7.4      2.398      5.309
REMARK  Name = 5311068
REMARK  2 active torsions:
REMARK  status: ('A' for Active; 'I' for Inactive)
REMARK    1  A    between atoms: C_1  and  C_3
REMARK    2  A    between atoms: C_1  and  C_13
REMARK                            x       y       z     vdW  Elec       q    Type
REMARK                         _______ _______ _______ _____ _____    ______ ____
ROOT
ATOM      1  C   UNL     1      35.483 -18.366 -22.651  0.00  0.00    +0.059 C 
ATOM      2  C   UNL     1      34.632 -19.107 -23.713  0.00  0.00    +0.011 C 
ENDROOT
BRANCH   1   3
ATOM      3  C   UNL     1      35.005 -17.005 -22.265  0.00  0.00    -0.021 C 
ATOM      4  C   UNL     1      34.697 -16.049 -23.233  0.00  0.00    -0.029 C 
ATOM      5  C   UNL     1      34.250 -14.785 -22.847  0.00  0.00    -0.026 C 
ATOM      6  C   UNL     1      34.864 -16.697 -20.911  0.00  0.00    -0.004 C 
ATOM      7  C   UNL     1      34.847 -16.379 -24.683  0.00  0.00    +0.030 C 
ATOM      8  C   UNL     1      34.111 -14.477 -21.493  0.00  0.00    -0.005 C 
ATOM      9  C   UNL     1      34.418 -15.434 -20.525  0.00  0.00    -0.001 C 
ATOM     10  C   UNL     1      33.915 -13.743 -23.864  0.00  0.00    +0.031 C 
ENDBRANCH   1   3
BRANCH   1  13
ATOM     11  N   UNL     1      34.762 -20.108 -21.022  0.00  0.00    -0.318 N 
ATOM     12  N   UNL     1      36.533 -20.375 -19.709  0.00  0.00    -0.315 N 
ATOM     13  C   UNL     1      35.721 -19.285 -21.442  0.00  0.00    +0.041 C 
ATOM     14  C   UNL     1      36.795 -19.428 -20.668  0.00  0.00    +0.069 C 
ATOM     15  C   UNL     1      35.300 -20.764 -19.951  0.00  0.00    +0.182 C 
ATOM     16  H   UNL     1      33.860 -20.219 -21.402  0.00  0.00    +0.148 HD
ATOM     17  H   UNL     1      37.136 -20.693 -18.999  0.00  0.00    +0.148 HD
ENDBRANCH   1  13
TORSDOF 2
ENDMDL
MODEL 9
REMARK VINA RESULT:      -7.3      9.536     11.571
REMARK  Name = 5311068
REMARK  2 active torsions:
REMARK  status: ('A' for Active; 'I' for Inactive)
REMARK    1  A    between atoms: C_1  and  C_3
REMARK    2  A    between atoms: C_1  and  C_13
REMARK                            x       y       z     vdW  Elec       q    Type
REMARK                         _______ _______ _______ _____ _____    ______ ____
ROOT
ATOM      1  C   UNL     1      32.818  -7.163 -21.669  0.00  0.00    +0.059 C 
ATOM      2  C   UNL     1      32.306  -7.286 -20.211  0.00  0.00    +0.011 C 
ENDROOT
BRANCH   1   3
ATOM      3  C   UNL     1      32.998  -8.449 -22.407  0.00  0.00    -0.021 C 
ATOM      4  C   UNL     1      34.016  -8.602 -23.347  0.00  0.00    -0.029 C 
ATOM      5  C   UNL     1      34.164  -9.814 -24.023  0.00  0.00    -0.026 C 
ATOM      6  C   UNL     1      32.128  -9.507 -22.142  0.00  0.00    -0.004 C 
ATOM      7  C   UNL     1      34.948  -7.468 -23.632  0.00  0.00    +0.030 C 
ATOM      8  C   UNL     1      33.294 -10.872 -23.759  0.00  0.00    -0.005 C 
ATOM      9  C   UNL     1      32.276 -10.718 -22.818  0.00  0.00    -0.001 C 
ATOM     10  C   UNL     1      35.246 -10.003 -25.036  0.00  0.00    +0.031 C 
ENDBRANCH   1   3
BRANCH   1  13
ATOM     11  N   UNL     1      31.735  -4.935 -21.925  0.00  0.00    -0.318 N 
ATOM     12  N   UNL     1      30.704  -5.065 -23.888  0.00  0.00    -0.315 N 
ATOM     13  C   UNL     1      31.962  -6.143 -22.436  0.00  0.00    +0.041 C 
ATOM     14  C   UNL     1      31.353  -6.244 -23.616  0.00  0.00    +0.069 C 
ATOM     15  C   UNL     1      30.954  -4.299 -22.849  0.00  0.00    +0.182 C 
ATOM     16  H   UNL     1      32.058  -4.577 -21.066  0.00  0.00    +0.148 HD
ATOM     17  H   UNL     1      30.171  -4.843 -24.685  0.00  0.00    +0.148 HD
ENDBRANCH   1  13
TORSDOF 2
ENDMDL
