MODEL 1
REMARK VINA RESULT:      -8.7      0.000      0.000
REMARK  Name = 11963546
REMARK  7 active torsions:
REMARK  status: ('A' for Active; 'I' for Inactive)
REMARK    1  A    between atoms: N_1  and  C_31
REMARK    2  A    between atoms: C_2  and  C_25
REMARK    3  A    between atoms: C_9  and  C_15
REMARK    4  A    between atoms: C_16  and  C_23
REMARK    5  A    between atoms: C_31  and  C_32
REMARK    6  A    between atoms: C_32  and  C_33
REMARK    7  A    between atoms: C_33  and  O_34
REMARK                            x       y       z     vdW  Elec       q    Type
REMARK                         _______ _______ _______ _____ _____    ______ ____
ROOT
ATOM      1  N   UNL     1      32.761  -9.103 -22.530  0.00  0.00    -0.306 N 
ATOM      2  C   UNL     1      33.071  -7.714 -22.149  0.00  0.00    +0.096 C 
ATOM      3  C   UNL     1      34.565  -7.415 -22.316  0.00  0.00    +0.029 C 
ATOM      4  C   UNL     1      35.057  -7.762 -23.714  0.00  0.00    +0.030 C 
ATOM      5  C   UNL     1      33.517  -9.773 -23.492  0.00  0.00    +0.044 C 
ATOM      6  C   UNL     1      34.644  -9.162 -24.090  0.00  0.00    -0.009 C 
ATOM      7  C   UNL     1      33.202 -11.081 -23.917  0.00  0.00    +0.011 C 
ATOM      8  C   UNL     1      35.386  -9.828 -25.083  0.00  0.00    -0.003 C 
ATOM      9  C   UNL     1      33.953 -11.742 -24.895  0.00  0.00    -0.007 C 
ATOM     10  C   UNL     1      35.043 -11.114 -25.481  0.00  0.00    -0.004 C 
ENDROOT
BRANCH   9  15
ATOM     11  N   UNL     1      33.444 -15.434 -24.805  0.00  0.00    -0.337 NA
ATOM     12  N   UNL     1      32.688 -14.603 -26.937  0.00  0.00    -0.317 NA
ATOM     13  N   UNL     1      32.820 -12.297 -27.443  0.00  0.00    -0.335 N 
ATOM     14  N   UNL     1      32.561 -16.889 -26.422  0.00  0.00    -0.283 N 
ATOM     15  C   UNL     1      33.588 -13.083 -25.300  0.00  0.00    +0.138 C 
ATOM     16  C   UNL     1      33.770 -14.169 -24.469  0.00  0.00    +0.112 C 
ATOM     17  C   UNL     1      33.037 -13.363 -26.535  0.00  0.00    +0.178 C 
ATOM     18  C   UNL     1      32.915 -15.577 -26.035  0.00  0.00    +0.196 C 
ATOM     19  H   UNL     1      32.429 -12.476 -28.329  0.00  0.00    +0.144 HD
ATOM     20  H   UNL     1      33.061 -11.377 -27.189  0.00  0.00    +0.144 HD
ATOM     21  H   UNL     1      32.706 -17.640 -25.802  0.00  0.00    +0.156 HD
ATOM     22  H   UNL     1      32.171 -17.052 -27.311  0.00  0.00    +0.156 HD
BRANCH  16  23
ATOM     23  C   UNL     1      34.357 -14.003 -23.105  0.00  0.00    +0.056 C 
ATOM     24  C   UNL     1      34.621 -15.342 -22.423  0.00  0.00    +0.008 C 
ENDBRANCH  16  23
ENDBRANCH   9  15
BRANCH   2  25
ATOM     25  C   UNL     1      32.185  -6.685 -22.840  0.00  0.00    -0.004 C 
ATOM     26  C   UNL     1      31.750  -6.911 -24.143  0.00  0.00    -0.003 C 
ATOM     27  C   UNL     1      31.816  -5.526 -22.164  0.00  0.00    -0.003 C 
ATOM     28  C   UNL     1      30.940  -5.968 -24.775  0.00  0.00    -0.000 C 
ATOM     29  C   UNL     1      31.005  -4.583 -22.796  0.00  0.00    -0.000 C 
ATOM     30  C   UNL     1      30.566  -4.805 -24.101  0.00  0.00    -0.000 C 
ENDBRANCH   2  25
BRANCH   1  31
ATOM     31  C   UNL     1      31.590  -9.730 -21.925  0.00  0.00    +0.094 C 
BRANCH  31  32
ATOM     32  C   UNL     1      31.692  -9.721 -20.404  0.00  0.00    +0.053 C 
BRANCH  32  33
ATOM     33  C   UNL     1      31.561 -11.110 -19.792  0.00  0.00    +0.144 C 
BRANCH  33  34
ATOM     34  O   UNL     1      31.509 -12.069 -20.840  0.00  0.00    -0.351 OA
ATOM     35  C   UNL     1      32.209 -13.256 -20.494  0.00  0.00    +0.174 C 
ENDBRANCH  33  34
ENDBRANCH  32  33
ENDBRANCH  31  32
ENDBRANCH   1  31
TORSDOF 7
ENDMDL
MODEL 2
REMARK VINA RESULT:      -6.7      3.688      7.829
REMARK  Name = 11963546
REMARK  7 active torsions:
REMARK  status: ('A' for Active; 'I' for Inactive)
REMARK    1  A    between atoms: N_1  and  C_31
REMARK    2  A    between atoms: C_2  and  C_25
REMARK    3  A    between atoms: C_9  and  C_15
REMARK    4  A    between atoms: C_16  and  C_23
REMARK    5  A    between atoms: C_31  and  C_32
REMARK    6  A    between atoms: C_32  and  C_33
REMARK    7  A    between atoms: C_33  and  O_34
REMARK                            x       y       z     vdW  Elec       q    Type
REMARK                         _______ _______ _______ _____ _____    ______ ____
ROOT
ATOM      1  N   UNL     1      33.437  -7.339 -22.330  0.00  0.00    -0.306 N 
ATOM      2  C   UNL     1      33.023  -7.841 -21.009  0.00  0.00    +0.096 C 
ATOM      3  C   UNL     1      32.308  -6.752 -20.201  0.00  0.00    +0.029 C 
ATOM      4  C   UNL     1      31.155  -6.137 -20.981  0.00  0.00    +0.030 C 
ATOM      5  C   UNL     1      32.721  -6.331 -22.976  0.00  0.00    +0.044 C 
ATOM      6  C   UNL     1      31.609  -5.714 -22.356  0.00  0.00    -0.009 C 
ATOM      7  C   UNL     1      33.062  -5.877 -24.266  0.00  0.00    +0.011 C 
ATOM      8  C   UNL     1      30.868  -4.721 -23.022  0.00  0.00    -0.003 C 
ATOM      9  C   UNL     1      32.330  -4.878 -24.917  0.00  0.00    -0.007 C 
ATOM     10  C   UNL     1      31.231  -4.302 -24.296  0.00  0.00    -0.004 C 
ENDROOT
BRANCH   9  15
ATOM     11  N   UNL     1      32.339  -3.048 -28.165  0.00  0.00    -0.337 NA
ATOM     12  N   UNL     1      34.191  -4.590 -28.143  0.00  0.00    -0.317 NA
ATOM     13  N   UNL     1      34.581  -5.973 -26.265  0.00  0.00    -0.335 N 
ATOM     14  N   UNL     1      33.794  -3.211 -30.000  0.00  0.00    -0.283 N 
ATOM     15  C   UNL     1      32.718  -4.448 -26.244  0.00  0.00    +0.138 C 
ATOM     16  C   UNL     1      32.014  -3.479 -26.929  0.00  0.00    +0.112 C 
ATOM     17  C   UNL     1      33.809  -4.974 -26.908  0.00  0.00    +0.178 C 
ATOM     18  C   UNL     1      33.423  -3.637 -28.706  0.00  0.00    +0.196 C 
ATOM     19  H   UNL     1      35.362  -6.361 -26.723  0.00  0.00    +0.144 HD
ATOM     20  H   UNL     1      34.336  -6.281 -25.363  0.00  0.00    +0.144 HD
ATOM     21  H   UNL     1      33.267  -2.517 -30.459  0.00  0.00    +0.156 HD
ATOM     22  H   UNL     1      34.578  -3.608 -30.443  0.00  0.00    +0.156 HD
BRANCH  16  23
ATOM     23  C   UNL     1      30.812  -2.829 -26.324  0.00  0.00    +0.056 C 
ATOM     24  C   UNL     1      30.192  -1.786 -27.248  0.00  0.00    +0.008 C 
ENDBRANCH  16  23
ENDBRANCH   9  15
BRANCH   2  25
ATOM     25  C   UNL     1      32.227  -9.139 -21.076  0.00  0.00    -0.004 C 
ATOM     26  C   UNL     1      32.009  -9.877 -19.916  0.00  0.00    -0.003 C 
ATOM     27  C   UNL     1      31.723  -9.579 -22.296  0.00  0.00    -0.003 C 
ATOM     28  C   UNL     1      31.281 -11.065 -19.978  0.00  0.00    -0.000 C 
ATOM     29  C   UNL     1      30.995 -10.767 -22.358  0.00  0.00    -0.000 C 
ATOM     30  C   UNL     1      30.773 -11.510 -21.199  0.00  0.00    -0.000 C 
ENDBRANCH   2  25
BRANCH   1  31
ATOM     31  C   UNL     1      34.575  -7.984 -22.977  0.00  0.00    +0.094 C 
BRANCH  31  32
ATOM     32  C   UNL     1      34.110  -9.008 -24.005  0.00  0.00    +0.053 C 
BRANCH  32  33
ATOM     33  C   UNL     1      35.264  -9.674 -24.745  0.00  0.00    +0.144 C 
BRANCH  33  34
ATOM     34  O   UNL     1      34.766 -10.807 -25.444  0.00  0.00    -0.351 OA
ATOM     35  C   UNL     1      33.910 -11.590 -24.623  0.00  0.00    +0.174 C 
ENDBRANCH  33  34
ENDBRANCH  32  33
ENDBRANCH  31  32
ENDBRANCH   1  31
TORSDOF 7
ENDMDL
MODEL 3
REMARK VINA RESULT:      -6.6      3.626      7.693
REMARK  Name = 11963546
REMARK  7 active torsions:
REMARK  status: ('A' for Active; 'I' for Inactive)
REMARK    1  A    between atoms: N_1  and  C_31
REMARK    2  A    between atoms: C_2  and  C_25
REMARK    3  A    between atoms: C_9  and  C_15
REMARK    4  A    between atoms: C_16  and  C_23
REMARK    5  A    between atoms: C_31  and  C_32
REMARK    6  A    between atoms: C_32  and  C_33
REMARK    7  A    between atoms: C_33  and  O_34
REMARK                            x       y       z     vdW  Elec       q    Type
REMARK                         _______ _______ _______ _____ _____    ______ ____
ROOT
ATOM      1  N   UNL     1      33.316  -7.287 -22.309  0.00  0.00    -0.306 N 
ATOM      2  C   UNL     1      33.092  -7.881 -20.980  0.00  0.00    +0.096 C 
ATOM      3  C   UNL     1      32.520  -6.849 -20.001  0.00  0.00    +0.029 C 
ATOM      4  C   UNL     1      31.275  -6.174 -20.557  0.00  0.00    +0.030 C 
ATOM      5  C   UNL     1      32.529  -6.231 -22.769  0.00  0.00    +0.044 C 
ATOM      6  C   UNL     1      31.529  -5.656 -21.951  0.00  0.00    -0.009 C 
ATOM      7  C   UNL     1      32.684  -5.687 -24.061  0.00  0.00    +0.011 C 
ATOM      8  C   UNL     1      30.714  -4.613 -22.429  0.00  0.00    -0.003 C 
ATOM      9  C   UNL     1      31.880  -4.640 -24.525  0.00  0.00    -0.007 C 
ATOM     10  C   UNL     1      30.893  -4.106 -23.710  0.00  0.00    -0.004 C 
ENDROOT
BRANCH   9  15
ATOM     11  N   UNL     1      33.314  -4.110 -27.925  0.00  0.00    -0.337 NA
ATOM     12  N   UNL     1      31.424  -2.640 -27.646  0.00  0.00    -0.317 NA
ATOM     13  N   UNL     1      30.195  -2.633 -25.626  0.00  0.00    -0.335 N 
ATOM     14  N   UNL     1      32.652  -2.658 -29.646  0.00  0.00    -0.283 N 
ATOM     15  C   UNL     1      32.076  -4.118 -25.860  0.00  0.00    +0.138 C 
ATOM     16  C   UNL     1      33.094  -4.568 -26.675  0.00  0.00    +0.112 C 
ATOM     17  C   UNL     1      31.263  -3.143 -26.405  0.00  0.00    +0.178 C 
ATOM     18  C   UNL     1      32.453  -3.161 -28.342  0.00  0.00    +0.196 C 
ATOM     19  H   UNL     1      29.605  -1.936 -25.997  0.00  0.00    +0.144 HD
ATOM     20  H   UNL     1      30.043  -2.973 -24.715  0.00  0.00    +0.144 HD
ATOM     21  H   UNL     1      33.390  -3.002 -30.200  0.00  0.00    +0.156 HD
ATOM     22  H   UNL     1      32.052  -1.963 -30.002  0.00  0.00    +0.156 HD
BRANCH  16  23
ATOM     23  C   UNL     1      34.045  -5.621 -26.207  0.00  0.00    +0.056 C 
ATOM     24  C   UNL     1      35.445  -5.435 -26.786  0.00  0.00    +0.008 C 
ENDBRANCH  16  23
ENDBRANCH   9  15
BRANCH   2  25
ATOM     25  C   UNL     1      32.276  -9.166 -21.021  0.00  0.00    -0.004 C 
ATOM     26  C   UNL     1      32.153  -9.944 -19.872  0.00  0.00    -0.003 C 
ATOM     27  C   UNL     1      31.658  -9.556 -22.205  0.00  0.00    -0.003 C 
ATOM     28  C   UNL     1      31.407 -11.121 -19.910  0.00  0.00    -0.000 C 
ATOM     29  C   UNL     1      30.910 -10.733 -22.242  0.00  0.00    -0.000 C 
ATOM     30  C   UNL     1      30.784 -11.515 -21.095  0.00  0.00    -0.000 C 
ENDBRANCH   2  25
BRANCH   1  31
ATOM     31  C   UNL     1      34.338  -7.888 -23.160  0.00  0.00    +0.094 C 
BRANCH  31  32
ATOM     32  C   UNL     1      33.717  -8.873 -24.144  0.00  0.00    +0.053 C 
BRANCH  32  33
ATOM     33  C   UNL     1      34.596 -10.090 -24.401  0.00  0.00    +0.144 C 
BRANCH  33  34
ATOM     34  O   UNL     1      33.790 -11.134 -24.930  0.00  0.00    -0.351 OA
ATOM     35  C   UNL     1      33.713 -12.236 -24.035  0.00  0.00    +0.174 C 
ENDBRANCH  33  34
ENDBRANCH  32  33
ENDBRANCH  31  32
ENDBRANCH   1  31
TORSDOF 7
ENDMDL
MODEL 4
REMARK VINA RESULT:      -6.4      2.770      5.352
REMARK  Name = 11963546
REMARK  7 active torsions:
REMARK  status: ('A' for Active; 'I' for Inactive)
REMARK    1  A    between atoms: N_1  and  C_31
REMARK    2  A    between atoms: C_2  and  C_25
REMARK    3  A    between atoms: C_9  and  C_15
REMARK    4  A    between atoms: C_16  and  C_23
REMARK    5  A    between atoms: C_31  and  C_32
REMARK    6  A    between atoms: C_32  and  C_33
REMARK    7  A    between atoms: C_33  and  O_34
REMARK                            x       y       z     vdW  Elec       q    Type
REMARK                         _______ _______ _______ _____ _____    ______ ____
ROOT
ATOM      1  N   UNL     1      32.007 -12.772 -23.164  0.00  0.00    -0.306 N 
ATOM      2  C   UNL     1      31.553 -11.483 -22.615  0.00  0.00    +0.096 C 
ATOM      3  C   UNL     1      31.147 -11.620 -21.142  0.00  0.00    +0.029 C 
ATOM      4  C   UNL     1      32.253 -12.252 -20.310  0.00  0.00    +0.030 C 
ATOM      5  C   UNL     1      32.607 -13.732 -22.348  0.00  0.00    +0.044 C 
ATOM      6  C   UNL     1      32.742 -13.525 -20.955  0.00  0.00    -0.009 C 
ATOM      7  C   UNL     1      33.105 -14.948 -22.861  0.00  0.00    +0.011 C 
ATOM      8  C   UNL     1      33.376 -14.480 -20.140  0.00  0.00    -0.003 C 
ATOM      9  C   UNL     1      33.721 -15.900 -22.042  0.00  0.00    -0.007 C 
ATOM     10  C   UNL     1      33.860 -15.664 -20.682  0.00  0.00    -0.004 C 
ENDROOT
BRANCH   9  15
ATOM     11  N   UNL     1      34.384 -19.532 -22.558  0.00  0.00    -0.337 NA
ATOM     12  N   UNL     1      35.480 -18.291 -24.309  0.00  0.00    -0.317 NA
ATOM     13  N   UNL     1      35.331 -15.932 -24.385  0.00  0.00    -0.335 N 
ATOM     14  N   UNL     1      35.619 -20.632 -24.224  0.00  0.00    -0.283 N 
ATOM     15  C   UNL     1      34.220 -17.131 -22.617  0.00  0.00    +0.138 C 
ATOM     16  C   UNL     1      33.941 -18.361 -22.057  0.00  0.00    +0.112 C 
ATOM     17  C   UNL     1      35.003 -17.158 -23.754  0.00  0.00    +0.178 C 
ATOM     18  C   UNL     1      35.137 -19.426 -23.670  0.00  0.00    +0.196 C 
ATOM     19  H   UNL     1      35.889 -15.931 -25.197  0.00  0.00    +0.144 HD
ATOM     20  H   UNL     1      35.004 -15.083 -24.012  0.00  0.00    +0.144 HD
ATOM     21  H   UNL     1      35.399 -21.492 -23.797  0.00  0.00    +0.156 HD
ATOM     22  H   UNL     1      36.174 -20.614 -25.036  0.00  0.00    +0.156 HD
BRANCH  16  23
ATOM     23  C   UNL     1      33.104 -18.471 -20.823  0.00  0.00    +0.056 C 
ATOM     24  C   UNL     1      32.771 -19.920 -20.479  0.00  0.00    +0.008 C 
ENDBRANCH  16  23
ENDBRANCH   9  15
BRANCH   2  25
ATOM     25  C   UNL     1      32.536 -10.344 -22.850  0.00  0.00    -0.004 C 
ATOM     26  C   UNL     1      32.367  -9.136 -22.179  0.00  0.00    -0.003 C 
ATOM     27  C   UNL     1      33.598 -10.518 -23.732  0.00  0.00    -0.003 C 
ATOM     28  C   UNL     1      33.268  -8.093 -22.395  0.00  0.00    -0.000 C 
ATOM     29  C   UNL     1      34.499  -9.475 -23.947  0.00  0.00    -0.000 C 
ATOM     30  C   UNL     1      34.334  -8.263 -23.278  0.00  0.00    -0.000 C 
ENDBRANCH   2  25
BRANCH   1  31
ATOM     31  C   UNL     1      31.881 -12.983 -24.602  0.00  0.00    +0.094 C 
BRANCH  31  32
ATOM     32  C   UNL     1      33.247 -13.200 -25.243  0.00  0.00    +0.053 C 
BRANCH  32  33
ATOM     33  C   UNL     1      33.157 -13.618 -26.706  0.00  0.00    +0.144 C 
BRANCH  33  34
ATOM     34  O   UNL     1      33.654 -14.943 -26.834  0.00  0.00    -0.351 OA
ATOM     35  C   UNL     1      32.664 -15.906 -26.498  0.00  0.00    +0.174 C 
ENDBRANCH  33  34
ENDBRANCH  32  33
ENDBRANCH  31  32
ENDBRANCH   1  31
TORSDOF 7
ENDMDL
MODEL 5
REMARK VINA RESULT:      -6.3      2.700      5.282
REMARK  Name = 11963546
REMARK  7 active torsions:
REMARK  status: ('A' for Active; 'I' for Inactive)
REMARK    1  A    between atoms: N_1  and  C_31
REMARK    2  A    between atoms: C_2  and  C_25
REMARK    3  A    between atoms: C_9  and  C_15
REMARK    4  A    between atoms: C_16  and  C_23
REMARK    5  A    between atoms: C_31  and  C_32
REMARK    6  A    between atoms: C_32  and  C_33
REMARK    7  A    between atoms: C_33  and  O_34
REMARK                            x       y       z     vdW  Elec       q    Type
REMARK                         _______ _______ _______ _____ _____    ______ ____
ROOT
ATOM      1  N   UNL     1      33.040 -11.796 -23.868  0.00  0.00    -0.306 N 
ATOM      2  C   UNL     1      32.269 -10.542 -23.824  0.00  0.00    +0.096 C 
ATOM      3  C   UNL     1      30.950 -10.729 -23.064  0.00  0.00    +0.029 C 
ATOM      4  C   UNL     1      31.175 -11.326 -21.683  0.00  0.00    +0.030 C 
ATOM      5  C   UNL     1      32.935 -12.744 -22.849  0.00  0.00    +0.044 C 
ATOM      6  C   UNL     1      32.037 -12.560 -21.771  0.00  0.00    -0.009 C 
ATOM      7  C   UNL     1      33.708 -13.923 -22.838  0.00  0.00    +0.011 C 
ATOM      8  C   UNL     1      31.956 -13.501 -20.729  0.00  0.00    -0.003 C 
ATOM      9  C   UNL     1      33.612 -14.863 -21.806  0.00  0.00    -0.007 C 
ATOM     10  C   UNL     1      32.738 -14.649 -20.749  0.00  0.00    -0.004 C 
ENDROOT
BRANCH   9  15
ATOM     11  N   UNL     1      35.454 -17.837 -23.093  0.00  0.00    -0.337 NA
ATOM     12  N   UNL     1      35.758 -17.714 -20.705  0.00  0.00    -0.317 NA
ATOM     13  N   UNL     1      34.761 -15.972 -19.454  0.00  0.00    -0.335 N 
ATOM     14  N   UNL     1      36.743 -19.437 -21.958  0.00  0.00    -0.283 N 
ATOM     15  C   UNL     1      34.429 -16.056 -21.838  0.00  0.00    +0.138 C 
ATOM     16  C   UNL     1      34.697 -16.723 -23.016  0.00  0.00    +0.112 C 
ATOM     17  C   UNL     1      34.992 -16.603 -20.702  0.00  0.00    +0.178 C 
ATOM     18  C   UNL     1      35.946 -18.272 -21.917  0.00  0.00    +0.196 C 
ATOM     19  H   UNL     1      35.154 -16.348 -18.633  0.00  0.00    +0.144 HD
ATOM     20  H   UNL     1      34.208 -15.160 -19.408  0.00  0.00    +0.144 HD
ATOM     21  H   UNL     1      36.913 -19.887 -22.817  0.00  0.00    +0.156 HD
ATOM     22  H   UNL     1      37.129 -19.799 -21.128  0.00  0.00    +0.156 HD
BRANCH  16  23
ATOM     23  C   UNL     1      34.148 -16.235 -24.318  0.00  0.00    +0.056 C 
ATOM     24  C   UNL     1      34.495 -17.165 -25.476  0.00  0.00    +0.008 C 
ENDBRANCH  16  23
ENDBRANCH   9  15
BRANCH   2  25
ATOM     25  C   UNL     1      33.075  -9.353 -23.316  0.00  0.00    -0.004 C 
ATOM     26  C   UNL     1      34.214  -8.945 -24.006  0.00  0.00    -0.003 C 
ATOM     27  C   UNL     1      32.668  -8.682 -22.167  0.00  0.00    -0.003 C 
ATOM     28  C   UNL     1      34.951  -7.857 -23.541  0.00  0.00    -0.000 C 
ATOM     29  C   UNL     1      33.406  -7.593 -21.703  0.00  0.00    -0.000 C 
ATOM     30  C   UNL     1      34.547  -7.180 -22.390  0.00  0.00    -0.000 C 
ENDBRANCH   2  25
BRANCH   1  31
ATOM     31  C   UNL     1      33.977 -11.982 -24.971  0.00  0.00    +0.094 C 
BRANCH  31  32
ATOM     32  C   UNL     1      33.237 -12.288 -26.268  0.00  0.00    +0.053 C 
BRANCH  32  33
ATOM     33  C   UNL     1      34.098 -13.031 -27.282  0.00  0.00    +0.144 C 
BRANCH  33  34
ATOM     34  O   UNL     1      33.608 -14.360 -27.412  0.00  0.00    -0.351 OA
ATOM     35  C   UNL     1      32.382 -14.533 -26.715  0.00  0.00    +0.174 C 
ENDBRANCH  33  34
ENDBRANCH  32  33
ENDBRANCH  31  32
ENDBRANCH   1  31
TORSDOF 7
ENDMDL
MODEL 6
REMARK VINA RESULT:      -6.0      2.132      7.516
REMARK  Name = 11963546
REMARK  7 active torsions:
REMARK  status: ('A' for Active; 'I' for Inactive)
REMARK    1  A    between atoms: N_1  and  C_31
REMARK    2  A    between atoms: C_2  and  C_25
REMARK    3  A    between atoms: C_9  and  C_15
REMARK    4  A    between atoms: C_16  and  C_23
REMARK    5  A    between atoms: C_31  and  C_32
REMARK    6  A    between atoms: C_32  and  C_33
REMARK    7  A    between atoms: C_33  and  O_34
REMARK                            x       y       z     vdW  Elec       q    Type
REMARK                         _______ _______ _______ _____ _____    ______ ____
ROOT
ATOM      1  N   UNL     1      32.092 -11.756 -23.526  0.00  0.00    -0.306 N 
ATOM      2  C   UNL     1      32.747 -13.038 -23.835  0.00  0.00    +0.096 C 
ATOM      3  C   UNL     1      33.815 -12.867 -24.922  0.00  0.00    +0.029 C 
ATOM      4  C   UNL     1      34.810 -11.772 -24.567  0.00  0.00    +0.030 C 
ATOM      5  C   UNL     1      32.770 -10.545 -23.671  0.00  0.00    +0.044 C 
ATOM      6  C   UNL     1      34.090 -10.505 -24.178  0.00  0.00    -0.009 C 
ATOM      7  C   UNL     1      32.185  -9.310 -23.324  0.00  0.00    +0.011 C 
ATOM      8  C   UNL     1      34.784  -9.287 -24.293  0.00  0.00    -0.003 C 
ATOM      9  C   UNL     1      32.875  -8.101 -23.454  0.00  0.00    -0.007 C 
ATOM     10  C   UNL     1      34.177  -8.090 -23.936  0.00  0.00    -0.004 C 
ENDROOT
BRANCH   9  15
ATOM     11  N   UNL     1      31.445  -4.666 -23.685  0.00  0.00    -0.337 NA
ATOM     12  N   UNL     1      31.170  -5.466 -21.429  0.00  0.00    -0.317 NA
ATOM     13  N   UNL     1      31.936  -7.618 -20.815  0.00  0.00    -0.335 N 
ATOM     14  N   UNL     1      30.414  -3.334 -22.051  0.00  0.00    -0.283 N 
ATOM     15  C   UNL     1      32.232  -6.859 -23.081  0.00  0.00    +0.138 C 
ATOM     16  C   UNL     1      32.039  -5.838 -23.989  0.00  0.00    +0.112 C 
ATOM     17  C   UNL     1      31.773  -6.614 -21.802  0.00  0.00    +0.178 C 
ATOM     18  C   UNL     1      31.040  -4.548 -22.406  0.00  0.00    +0.196 C 
ATOM     19  H   UNL     1      31.615  -7.461 -19.897  0.00  0.00    +0.144 HD
ATOM     20  H   UNL     1      32.371  -8.470 -21.046  0.00  0.00    +0.144 HD
ATOM     21  H   UNL     1      30.293  -2.627 -22.726  0.00  0.00    +0.156 HD
ATOM     22  H   UNL     1      30.098  -3.194 -21.129  0.00  0.00    +0.156 HD
BRANCH  16  23
ATOM     23  C   UNL     1      32.491  -5.975 -25.407  0.00  0.00    +0.056 C 
ATOM     24  C   UNL     1      32.685  -4.622 -26.085  0.00  0.00    +0.008 C 
ENDBRANCH  16  23
ENDBRANCH   9  15
BRANCH   2  25
ATOM     25  C   UNL     1      33.275 -13.761 -22.602  0.00  0.00    -0.004 C 
ATOM     26  C   UNL     1      32.577 -13.676 -21.400  0.00  0.00    -0.003 C 
ATOM     27  C   UNL     1      34.450 -14.501 -22.685  0.00  0.00    -0.003 C 
ATOM     28  C   UNL     1      33.061 -14.337 -20.272  0.00  0.00    -0.000 C 
ATOM     29  C   UNL     1      34.933 -15.164 -21.556  0.00  0.00    -0.000 C 
ATOM     30  C   UNL     1      34.238 -15.082 -20.350  0.00  0.00    -0.000 C 
ENDBRANCH   2  25
BRANCH   1  31
ATOM     31  C   UNL     1      30.735 -11.796 -22.990  0.00  0.00    +0.094 C 
BRANCH  31  32
ATOM     32  C   UNL     1      30.527 -10.701 -21.950  0.00  0.00    +0.053 C 
BRANCH  32  33
ATOM     33  C   UNL     1      30.623 -11.215 -20.519  0.00  0.00    +0.144 C 
BRANCH  33  34
ATOM     34  O   UNL     1      31.710 -10.568 -19.872  0.00  0.00    -0.351 OA
ATOM     35  C   UNL     1      31.567 -10.598 -18.458  0.00  0.00    +0.174 C 
ENDBRANCH  33  34
ENDBRANCH  32  33
ENDBRANCH  31  32
ENDBRANCH   1  31
TORSDOF 7
ENDMDL
MODEL 7
REMARK VINA RESULT:      -5.9      2.547      4.938
REMARK  Name = 11963546
REMARK  7 active torsions:
REMARK  status: ('A' for Active; 'I' for Inactive)
REMARK    1  A    between atoms: N_1  and  C_31
REMARK    2  A    between atoms: C_2  and  C_25
REMARK    3  A    between atoms: C_9  and  C_15
REMARK    4  A    between atoms: C_16  and  C_23
REMARK    5  A    between atoms: C_31  and  C_32
REMARK    6  A    between atoms: C_32  and  C_33
REMARK    7  A    between atoms: C_33  and  O_34
REMARK                            x       y       z     vdW  Elec       q    Type
REMARK                         _______ _______ _______ _____ _____    ______ ____
ROOT
ATOM      1  N   UNL     1      31.930 -11.582 -22.846  0.00  0.00    -0.306 N 
ATOM      2  C   UNL     1      31.235 -10.421 -22.265  0.00  0.00    +0.096 C 
ATOM      3  C   UNL     1      30.400 -10.829 -21.046  0.00  0.00    +0.029 C 
ATOM      4  C   UNL     1      31.231 -11.586 -20.021  0.00  0.00    +0.030 C 
ATOM      5  C   UNL     1      32.311 -12.666 -22.054  0.00  0.00    +0.044 C 
ATOM      6  C   UNL     1      31.988 -12.713 -20.678  0.00  0.00    -0.009 C 
ATOM      7  C   UNL     1      33.031 -13.760 -22.576  0.00  0.00    +0.011 C 
ATOM      8  C   UNL     1      32.402 -13.791 -19.874  0.00  0.00    -0.003 C 
ATOM      9  C   UNL     1      33.427 -14.837 -21.774  0.00  0.00    -0.007 C 
ATOM     10  C   UNL     1      33.115 -14.850 -20.422  0.00  0.00    -0.004 C 
ENDROOT
BRANCH   9  15
ATOM     11  N   UNL     1      34.859 -17.173 -24.302  0.00  0.00    -0.337 NA
ATOM     12  N   UNL     1      35.603 -17.853 -22.113  0.00  0.00    -0.317 NA
ATOM     13  N   UNL     1      34.935 -16.651 -20.189  0.00  0.00    -0.335 N 
ATOM     14  N   UNL     1      36.258 -19.038 -24.029  0.00  0.00    -0.283 N 
ATOM     15  C   UNL     1      34.168 -15.935 -22.356  0.00  0.00    +0.138 C 
ATOM     16  C   UNL     1      34.183 -16.163 -23.717  0.00  0.00    +0.112 C 
ATOM     17  C   UNL     1      34.903 -16.822 -21.595  0.00  0.00    +0.178 C 
ATOM     18  C   UNL     1      35.538 -17.968 -23.453  0.00  0.00    +0.196 C 
ATOM     19  H   UNL     1      35.454 -17.274 -19.629  0.00  0.00    +0.144 HD
ATOM     20  H   UNL     1      34.439 -15.911 -19.771  0.00  0.00    +0.144 HD
ATOM     21  H   UNL     1      36.246 -19.170 -25.005  0.00  0.00    +0.156 HD
ATOM     22  H   UNL     1      36.773 -19.651 -23.456  0.00  0.00    +0.156 HD
BRANCH  16  23
ATOM     23  C   UNL     1      33.427 -15.276 -24.653  0.00  0.00    +0.056 C 
ATOM     24  C   UNL     1      33.407 -15.823 -26.077  0.00  0.00    +0.008 C 
ENDBRANCH  16  23
ENDBRANCH   9  15
BRANCH   2  25
ATOM     25  C   UNL     1      32.158  -9.244 -21.977  0.00  0.00    -0.004 C 
ATOM     26  C   UNL     1      32.985  -8.752 -22.983  0.00  0.00    -0.003 C 
ATOM     27  C   UNL     1      32.169  -8.668 -20.710  0.00  0.00    -0.003 C 
ATOM     28  C   UNL     1      33.831  -7.675 -22.719  0.00  0.00    -0.000 C 
ATOM     29  C   UNL     1      33.015  -7.590 -20.447  0.00  0.00    -0.000 C 
ATOM     30  C   UNL     1      33.845  -7.093 -21.451  0.00  0.00    -0.000 C 
ENDBRANCH   2  25
BRANCH   1  31
ATOM     31  C   UNL     1      32.277 -11.529 -24.263  0.00  0.00    +0.094 C 
BRANCH  31  32
ATOM     32  C   UNL     1      33.789 -11.524 -24.454  0.00  0.00    +0.053 C 
BRANCH  32  33
ATOM     33  C   UNL     1      34.207 -11.820 -25.889  0.00  0.00    +0.144 C 
BRANCH  33  34
ATOM     34  O   UNL     1      35.163 -10.850 -26.297  0.00  0.00    -0.351 OA
ATOM     35  C   UNL     1      35.496  -9.968 -25.233  0.00  0.00    +0.174 C 
ENDBRANCH  33  34
ENDBRANCH  32  33
ENDBRANCH  31  32
ENDBRANCH   1  31
TORSDOF 7
ENDMDL
MODEL 8
REMARK VINA RESULT:      -5.9     12.771     17.044
REMARK  Name = 11963546
REMARK  7 active torsions:
REMARK  status: ('A' for Active; 'I' for Inactive)
REMARK    1  A    between atoms: N_1  and  C_31
REMARK    2  A    between atoms: C_2  and  C_25
REMARK    3  A    between atoms: C_9  and  C_15
REMARK    4  A    between atoms: C_16  and  C_23
REMARK    5  A    between atoms: C_31  and  C_32
REMARK    6  A    between atoms: C_32  and  C_33
REMARK    7  A    between atoms: C_33  and  O_34
REMARK                            x       y       z     vdW  Elec       q    Type
REMARK                         _______ _______ _______ _____ _____    ______ ____
ROOT
ATOM      1  N   UNL     1      36.124 -23.173 -14.876  0.00  0.00    -0.306 N 
ATOM      2  C   UNL     1      37.386 -23.260 -14.123  0.00  0.00    +0.096 C 
ATOM      3  C   UNL     1      37.161 -22.988 -12.631  0.00  0.00    +0.029 C 
ATOM      4  C   UNL     1      36.073 -23.881 -12.053  0.00  0.00    +0.030 C 
ATOM      5  C   UNL     1      34.902 -23.478 -14.275  0.00  0.00    +0.044 C 
ATOM      6  C   UNL     1      34.829 -23.822 -12.904  0.00  0.00    -0.009 C 
ATOM      7  C   UNL     1      33.688 -23.461 -14.991  0.00  0.00    +0.011 C 
ATOM      8  C   UNL     1      33.601 -24.160 -12.308  0.00  0.00    -0.003 C 
ATOM      9  C   UNL     1      32.467 -23.784 -14.388  0.00  0.00    -0.007 C 
ATOM     10  C   UNL     1      32.425 -24.138 -13.047  0.00  0.00    -0.004 C 
ENDROOT
BRANCH   9  15
ATOM     11  N   UNL     1      30.058 -23.043 -17.134  0.00  0.00    -0.337 NA
ATOM     12  N   UNL     1      28.939 -24.373 -15.464  0.00  0.00    -0.317 NA
ATOM     13  N   UNL     1      30.091 -25.084 -13.525  0.00  0.00    -0.335 N 
ATOM     14  N   UNL     1      27.808 -23.661 -17.393  0.00  0.00    -0.283 N 
ATOM     15  C   UNL     1      31.248 -23.756 -15.167  0.00  0.00    +0.138 C 
ATOM     16  C   UNL     1      31.172 -23.095 -16.375  0.00  0.00    +0.112 C 
ATOM     17  C   UNL     1      30.088 -24.384 -14.757  0.00  0.00    +0.178 C 
ATOM     18  C   UNL     1      28.994 -23.694 -16.626  0.00  0.00    +0.196 C 
ATOM     19  H   UNL     1      29.273 -25.537 -13.215  0.00  0.00    +0.144 HD
ATOM     20  H   UNL     1      30.908 -25.116 -12.978  0.00  0.00    +0.144 HD
ATOM     21  H   UNL     1      27.791 -23.179 -18.252  0.00  0.00    +0.156 HD
ATOM     22  H   UNL     1      27.000 -24.120 -17.070  0.00  0.00    +0.156 HD
BRANCH  16  23
ATOM     23  C   UNL     1      32.357 -22.374 -16.933  0.00  0.00    +0.056 C 
ATOM     24  C   UNL     1      32.974 -23.109 -18.120  0.00  0.00    +0.008 C 
ENDBRANCH  16  23
ENDBRANCH   9  15
BRANCH   2  25
ATOM     25  C   UNL     1      38.154 -24.551 -14.375  0.00  0.00    -0.004 C 
ATOM     26  C   UNL     1      37.459 -25.722 -14.666  0.00  0.00    -0.003 C 
ATOM     27  C   UNL     1      39.544 -24.553 -14.312  0.00  0.00    -0.003 C 
ATOM     28  C   UNL     1      38.162 -26.905 -14.896  0.00  0.00    -0.000 C 
ATOM     29  C   UNL     1      40.247 -25.736 -14.543  0.00  0.00    -0.000 C 
ATOM     30  C   UNL     1      39.556 -26.911 -14.836  0.00  0.00    -0.000 C 
ENDBRANCH   2  25
BRANCH   1  31
ATOM     31  C   UNL     1      36.198 -22.832 -16.293  0.00  0.00    +0.094 C 
BRANCH  31  32
ATOM     32  C   UNL     1      37.176 -21.687 -16.528  0.00  0.00    +0.053 C 
BRANCH  32  33
ATOM     33  C   UNL     1      37.052 -21.076 -17.918  0.00  0.00    +0.144 C 
BRANCH  33  34
ATOM     34  O   UNL     1      36.140 -21.855 -18.681  0.00  0.00    -0.351 OA
ATOM     35  C   UNL     1      35.783 -21.202 -19.892  0.00  0.00    +0.174 C 
ENDBRANCH  33  34
ENDBRANCH  32  33
ENDBRANCH  31  32
ENDBRANCH   1  31
TORSDOF 7
ENDMDL
MODEL 9
REMARK VINA RESULT:      -5.9     10.873     15.704
REMARK  Name = 11963546
REMARK  7 active torsions:
REMARK  status: ('A' for Active; 'I' for Inactive)
REMARK    1  A    between atoms: N_1  and  C_31
REMARK    2  A    between atoms: C_2  and  C_25
REMARK    3  A    between atoms: C_9  and  C_15
REMARK    4  A    between atoms: C_16  and  C_23
REMARK    5  A    between atoms: C_31  and  C_32
REMARK    6  A    between atoms: C_32  and  C_33
REMARK    7  A    between atoms: C_33  and  O_34
REMARK                            x       y       z     vdW  Elec       q    Type
REMARK                         _______ _______ _______ _____ _____    ______ ____
ROOT
ATOM      1  N   UNL     1      35.723 -24.660 -14.968  0.00  0.00    -0.306 N 
ATOM      2  C   UNL     1      36.639 -25.197 -13.947  0.00  0.00    +0.096 C 
ATOM      3  C   UNL     1      38.086 -25.208 -14.452  0.00  0.00    +0.029 C 
ATOM      4  C   UNL     1      38.516 -23.840 -14.963  0.00  0.00    +0.030 C 
ATOM      5  C   UNL     1      36.156 -23.720 -15.904  0.00  0.00    +0.044 C 
ATOM      6  C   UNL     1      37.505 -23.297 -15.941  0.00  0.00    -0.009 C 
ATOM      7  C   UNL     1      35.283 -23.146 -16.851  0.00  0.00    +0.011 C 
ATOM      8  C   UNL     1      37.933 -22.325 -16.864  0.00  0.00    -0.003 C 
ATOM      9  C   UNL     1      35.718 -22.191 -17.776  0.00  0.00    -0.007 C 
ATOM     10  C   UNL     1      37.043 -21.777 -17.780  0.00  0.00    -0.004 C 
ENDROOT
BRANCH   9  15
ATOM     11  N   UNL     1      34.355 -20.230 -20.639  0.00  0.00    -0.337 NA
ATOM     12  N   UNL     1      32.538 -21.394 -19.566  0.00  0.00    -0.317 NA
ATOM     13  N   UNL     1      32.937 -22.773 -17.686  0.00  0.00    -0.335 N 
ATOM     14  N   UNL     1      32.156 -20.023 -21.432  0.00  0.00    -0.283 N 
ATOM     15  C   UNL     1      34.783 -21.629 -18.726  0.00  0.00    +0.138 C 
ATOM     16  C   UNL     1      35.191 -20.777 -19.732  0.00  0.00    +0.112 C 
ATOM     17  C   UNL     1      33.430 -21.905 -18.692  0.00  0.00    +0.178 C 
ATOM     18  C   UNL     1      33.061 -20.576 -20.500  0.00  0.00    +0.196 C 
ATOM     19  H   UNL     1      31.975 -22.981 -17.645  0.00  0.00    +0.144 HD
ATOM     20  H   UNL     1      33.554 -23.167 -17.029  0.00  0.00    +0.144 HD
ATOM     21  H   UNL     1      32.484 -19.418 -22.137  0.00  0.00    +0.156 HD
ATOM     22  H   UNL     1      31.198 -20.242 -21.377  0.00  0.00    +0.156 HD
BRANCH  16  23
ATOM     23  C   UNL     1      36.629 -20.396 -19.880  0.00  0.00    +0.056 C 
ATOM     24  C   UNL     1      36.826 -19.259 -20.878  0.00  0.00    +0.008 C 
ENDBRANCH  16  23
ENDBRANCH   9  15
BRANCH   2  25
ATOM     25  C   UNL     1      36.496 -24.520 -12.590  0.00  0.00    -0.004 C 
ATOM     26  C   UNL     1      35.711 -25.109 -11.603  0.00  0.00    -0.003 C 
ATOM     27  C   UNL     1      37.152 -23.317 -12.344  0.00  0.00    -0.003 C 
ATOM     28  C   UNL     1      35.580 -24.489 -10.361  0.00  0.00    -0.000 C 
ATOM     29  C   UNL     1      37.021 -22.698 -11.101  0.00  0.00    -0.000 C 
ATOM     30  C   UNL     1      36.236 -23.284 -10.109  0.00  0.00    -0.000 C 
ENDBRANCH   2  25
BRANCH   1  31
ATOM     31  C   UNL     1      34.327 -25.085 -14.922  0.00  0.00    +0.094 C 
BRANCH  31  32
ATOM     32  C   UNL     1      33.461 -24.036 -14.235  0.00  0.00    +0.053 C 
BRANCH  32  33
ATOM     33  C   UNL     1      31.986 -24.416 -14.197  0.00  0.00    +0.144 C 
BRANCH  33  34
ATOM     34  O   UNL     1      31.335 -23.838 -15.321  0.00  0.00    -0.351 OA
ATOM     35  C   UNL     1      30.332 -22.913 -14.923  0.00  0.00    +0.174 C 
ENDBRANCH  33  34
ENDBRANCH  32  33
ENDBRANCH  31  32
ENDBRANCH   1  31
TORSDOF 7
ENDMDL
