MODEL 1
REMARK VINA RESULT:      -6.8      0.000      0.000
REMARK  Name = 22308
REMARK  9 active torsions:
REMARK  status: ('A' for Active; 'I' for Inactive)
REMARK    1  A    between atoms: C_1  and  C_2
REMARK    2  A    between atoms: C_1  and  C_8
REMARK    3  A    between atoms: C_1  and  C_14
REMARK    4  A    between atoms: C_1  and  C_21
REMARK    5  A    between atoms: C_14  and  C_15
REMARK    6  A    between atoms: C_15  and  N_17
REMARK    7  A    between atoms: C_21  and  C_22
REMARK    8  A    between atoms: C_21  and  O_24
REMARK    9  A    between atoms: O_24  and  C_26
REMARK                            x       y       z     vdW  Elec       q    Type
REMARK                         _______ _______ _______ _____ _____    ______ ____
ROOT
ATOM      1  C   UNL     1      34.908 -23.998 -14.486  0.00  0.00    +0.073 C 
ENDROOT
BRANCH   1   2
ATOM      2  C   UNL     1      35.615 -23.764 -13.114  0.00  0.00    -0.016 C 
ATOM      3  C   UNL     1      36.659 -22.892 -13.087  0.00  0.00    -0.004 C 
ATOM      4  C   UNL     1      35.138 -24.447 -12.038  0.00  0.00    -0.004 C 
ATOM      5  C   UNL     1      37.291 -22.682 -11.862  0.00  0.00    -0.000 C 
ATOM      6  C   UNL     1      35.770 -24.238 -10.811  0.00  0.00    -0.000 C 
ATOM      7  C   UNL     1      36.846 -23.355 -10.723  0.00  0.00    -0.000 C 
ENDBRANCH   1   2
BRANCH   1   8
ATOM      8  C   UNL     1      33.354 -24.008 -14.364  0.00  0.00    -0.016 C 
ATOM      9  C   UNL     1      32.739 -25.218 -14.254  0.00  0.00    -0.004 C 
ATOM     10  C   UNL     1      32.713 -22.806 -14.376  0.00  0.00    -0.004 C 
ATOM     11  C   UNL     1      31.349 -25.229 -14.145  0.00  0.00    -0.000 C 
ATOM     12  C   UNL     1      31.322 -22.816 -14.267  0.00  0.00    -0.000 C 
ATOM     13  C   UNL     1      30.640 -24.027 -14.151  0.00  0.00    -0.000 C 
ENDBRANCH   1   8
BRANCH   1  14
ATOM     14  C   UNL     1      35.509 -25.341 -15.083  0.00  0.00    -0.009 C 
BRANCH  14  15
ATOM     15  C   UNL     1      36.573 -26.110 -14.258  0.00  0.00    -0.058 C 
ATOM     16  C   UNL     1      36.859 -27.472 -14.900  0.00  0.00    -0.023 C 
BRANCH  15  17
ATOM     17  N   UNL     1      37.832 -25.367 -14.181  0.00  0.00    +0.385 N 
ATOM     18  C   UNL     1      38.602 -25.540 -15.412  0.00  0.00    -0.101 C 
ATOM     19  C   UNL     1      38.611 -25.802 -13.024  0.00  0.00    -0.101 C 
ATOM     20  H   UNL     1      37.619 -24.375 -14.072  0.00  0.00    -0.080 HD
ENDBRANCH  15  17
ENDBRANCH  14  15
ENDBRANCH   1  14
BRANCH   1  21
ATOM     21  C   UNL     1      35.285 -22.848 -15.534  0.00  0.00    +0.176 C 
BRANCH  21  22
ATOM     22  C   UNL     1      36.632 -22.128 -15.303  0.00  0.00    +0.044 C 
ATOM     23  C   UNL     1      37.558 -22.249 -16.510  0.00  0.00    +0.004 C 
ENDBRANCH  21  22
BRANCH  21  24
ATOM     24  O   UNL     1      35.256 -23.345 -16.877  0.00  0.00    -0.452 OA
BRANCH  24  26
ATOM     25  O   UNL     1      33.062 -22.998 -17.511  0.00  0.00    -0.250 OA
ATOM     26  C   UNL     1      34.264 -22.841 -17.665  0.00  0.00    +0.317 C 
ATOM     27  C   UNL     1      34.870 -22.044 -18.781  0.00  0.00    +0.121 C 
ENDBRANCH  24  26
ENDBRANCH  21  24
ENDBRANCH   1  21
TORSDOF 9
ENDMDL
MODEL 2
REMARK VINA RESULT:      -6.4      1.654      4.805
REMARK  Name = 22308
REMARK  9 active torsions:
REMARK  status: ('A' for Active; 'I' for Inactive)
REMARK    1  A    between atoms: C_1  and  C_2
REMARK    2  A    between atoms: C_1  and  C_8
REMARK    3  A    between atoms: C_1  and  C_14
REMARK    4  A    between atoms: C_1  and  C_21
REMARK    5  A    between atoms: C_14  and  C_15
REMARK    6  A    between atoms: C_15  and  N_17
REMARK    7  A    between atoms: C_21  and  C_22
REMARK    8  A    between atoms: C_21  and  O_24
REMARK    9  A    between atoms: O_24  and  C_26
REMARK                            x       y       z     vdW  Elec       q    Type
REMARK                         _______ _______ _______ _____ _____    ______ ____
ROOT
ATOM      1  C   UNL     1      34.950 -23.947 -14.618  0.00  0.00    +0.073 C 
ENDROOT
BRANCH   1   2
ATOM      2  C   UNL     1      33.397 -23.935 -14.458  0.00  0.00    -0.016 C 
ATOM      3  C   UNL     1      32.799 -25.091 -14.061  0.00  0.00    -0.004 C 
ATOM      4  C   UNL     1      32.748 -22.769 -14.725  0.00  0.00    -0.004 C 
ATOM      5  C   UNL     1      31.411 -25.081 -13.917  0.00  0.00    -0.000 C 
ATOM      6  C   UNL     1      31.360 -22.758 -14.582  0.00  0.00    -0.000 C 
ATOM      7  C   UNL     1      30.691 -23.914 -14.178  0.00  0.00    -0.000 C 
ENDBRANCH   1   2
BRANCH   1   8
ATOM      8  C   UNL     1      35.430 -23.121 -15.849  0.00  0.00    -0.016 C 
ATOM      9  C   UNL     1      36.622 -22.470 -15.745  0.00  0.00    -0.004 C 
ATOM     10  C   UNL     1      34.627 -23.103 -16.949  0.00  0.00    -0.004 C 
ATOM     11  C   UNL     1      37.053 -21.730 -16.845  0.00  0.00    -0.000 C 
ATOM     12  C   UNL     1      35.057 -22.363 -18.051  0.00  0.00    -0.000 C 
ATOM     13  C   UNL     1      36.271 -21.677 -17.999  0.00  0.00    -0.000 C 
ENDBRANCH   1   8
BRANCH   1  14
ATOM     14  C   UNL     1      35.390 -25.472 -14.664  0.00  0.00    -0.009 C 
BRANCH  14  15
ATOM     15  C   UNL     1      36.841 -25.838 -14.256  0.00  0.00    -0.058 C 
ATOM     16  C   UNL     1      36.849 -27.119 -13.415  0.00  0.00    -0.023 C 
BRANCH  15  17
ATOM     17  N   UNL     1      37.689 -26.057 -15.430  0.00  0.00    +0.385 N 
ATOM     18  C   UNL     1      37.402 -27.359 -16.030  0.00  0.00    -0.101 C 
ATOM     19  C   UNL     1      39.101 -25.960 -15.064  0.00  0.00    -0.101 C 
ATOM     20  H   UNL     1      37.484 -25.333 -16.119  0.00  0.00    -0.080 HD
ENDBRANCH  15  17
ENDBRANCH  14  15
ENDBRANCH   1  14
BRANCH   1  21
ATOM     21  C   UNL     1      35.669 -23.324 -13.331  0.00  0.00    +0.176 C 
BRANCH  21  22
ATOM     22  C   UNL     1      34.920 -23.478 -11.988  0.00  0.00    +0.044 C 
ATOM     23  C   UNL     1      35.448 -24.653 -11.171  0.00  0.00    +0.004 C 
ENDBRANCH  21  22
BRANCH  21  24
ATOM     24  O   UNL     1      36.993 -23.847 -13.177  0.00  0.00    -0.452 OA
BRANCH  24  26
ATOM     25  O   UNL     1      37.708 -21.926 -12.112  0.00  0.00    -0.250 OA
ATOM     26  C   UNL     1      37.823 -23.113 -12.382  0.00  0.00    +0.317 C 
ATOM     27  C   UNL     1      38.928 -23.987 -11.870  0.00  0.00    +0.121 C 
ENDBRANCH  24  26
ENDBRANCH  21  24
ENDBRANCH   1  21
TORSDOF 9
ENDMDL
MODEL 3
REMARK VINA RESULT:      -6.3      1.756      4.631
REMARK  Name = 22308
REMARK  9 active torsions:
REMARK  status: ('A' for Active; 'I' for Inactive)
REMARK    1  A    between atoms: C_1  and  C_2
REMARK    2  A    between atoms: C_1  and  C_8
REMARK    3  A    between atoms: C_1  and  C_14
REMARK    4  A    between atoms: C_1  and  C_21
REMARK    5  A    between atoms: C_14  and  C_15
REMARK    6  A    between atoms: C_15  and  N_17
REMARK    7  A    between atoms: C_21  and  C_22
REMARK    8  A    between atoms: C_21  and  O_24
REMARK    9  A    between atoms: O_24  and  C_26
REMARK                            x       y       z     vdW  Elec       q    Type
REMARK                         _______ _______ _______ _____ _____    ______ ____
ROOT
ATOM      1  C   UNL     1      35.562 -23.550 -14.872  0.00  0.00    +0.073 C 
ENDROOT
BRANCH   1   2
ATOM      2  C   UNL     1      35.950 -22.744 -16.151  0.00  0.00    -0.016 C 
ATOM      3  C   UNL     1      35.167 -22.902 -17.253  0.00  0.00    -0.004 C 
ATOM      4  C   UNL     1      37.044 -21.938 -16.076  0.00  0.00    -0.004 C 
ATOM      5  C   UNL     1      35.514 -22.182 -18.396  0.00  0.00    -0.000 C 
ATOM      6  C   UNL     1      37.391 -21.217 -17.220  0.00  0.00    -0.000 C 
ATOM      7  C   UNL     1      36.626 -21.338 -18.380  0.00  0.00    -0.000 C 
ENDBRANCH   1   2
BRANCH   1   8
ATOM      8  C   UNL     1      34.030 -23.815 -14.774  0.00  0.00    -0.016 C 
ATOM      9  C   UNL     1      33.227 -23.222 -15.701  0.00  0.00    -0.004 C 
ATOM     10  C   UNL     1      33.592 -24.623 -13.768  0.00  0.00    -0.004 C 
ATOM     11  C   UNL     1      31.855 -23.457 -15.614  0.00  0.00    -0.000 C 
ATOM     12  C   UNL     1      32.220 -24.860 -13.680  0.00  0.00    -0.000 C 
ATOM     13  C   UNL     1      31.352 -24.278 -14.604  0.00  0.00    -0.000 C 
ENDBRANCH   1   8
BRANCH   1  14
ATOM     14  C   UNL     1      36.150 -22.748 -13.633  0.00  0.00    -0.009 C 
BRANCH  14  15
ATOM     15  C   UNL     1      36.798 -23.546 -12.472  0.00  0.00    -0.058 C 
ATOM     16  C   UNL     1      38.074 -22.845 -11.994  0.00  0.00    -0.023 C 
BRANCH  15  17
ATOM     17  N   UNL     1      35.888 -23.668 -11.331  0.00  0.00    +0.385 N 
ATOM     18  C   UNL     1      36.471 -23.041 -10.146  0.00  0.00    -0.101 C 
ATOM     19  C   UNL     1      35.584 -25.073 -11.070  0.00  0.00    -0.101 C 
ATOM     20  H   UNL     1      35.018 -23.185 -11.556  0.00  0.00    -0.080 HD
ENDBRANCH  15  17
ENDBRANCH  14  15
ENDBRANCH   1  14
BRANCH   1  21
ATOM     21  C   UNL     1      36.284 -24.979 -14.848  0.00  0.00    +0.176 C 
BRANCH  21  22
ATOM     22  C   UNL     1      35.579 -26.113 -15.625  0.00  0.00    +0.044 C 
ATOM     23  C   UNL     1      36.539 -27.247 -15.974  0.00  0.00    +0.004 C 
ENDBRANCH  21  22
BRANCH  21  24
ATOM     24  O   UNL     1      37.636 -24.880 -15.309  0.00  0.00    -0.452 OA
BRANCH  24  26
ATOM     25  O   UNL     1      38.352 -26.187 -13.543  0.00  0.00    -0.250 OA
ATOM     26  C   UNL     1      38.570 -25.471 -14.510  0.00  0.00    +0.317 C 
ATOM     27  C   UNL     1      39.942 -25.110 -14.994  0.00  0.00    +0.121 C 
ENDBRANCH  24  26
ENDBRANCH  21  24
ENDBRANCH   1  21
TORSDOF 9
ENDMDL
MODEL 4
REMARK VINA RESULT:      -6.3      2.030      5.057
REMARK  Name = 22308
REMARK  9 active torsions:
REMARK  status: ('A' for Active; 'I' for Inactive)
REMARK    1  A    between atoms: C_1  and  C_2
REMARK    2  A    between atoms: C_1  and  C_8
REMARK    3  A    between atoms: C_1  and  C_14
REMARK    4  A    between atoms: C_1  and  C_21
REMARK    5  A    between atoms: C_14  and  C_15
REMARK    6  A    between atoms: C_15  and  N_17
REMARK    7  A    between atoms: C_21  and  C_22
REMARK    8  A    between atoms: C_21  and  O_24
REMARK    9  A    between atoms: O_24  and  C_26
REMARK                            x       y       z     vdW  Elec       q    Type
REMARK                         _______ _______ _______ _____ _____    ______ ____
ROOT
ATOM      1  C   UNL     1      35.780 -24.392 -14.521  0.00  0.00    +0.073 C 
ENDROOT
BRANCH   1   2
ATOM      2  C   UNL     1      36.066 -23.966 -13.046  0.00  0.00    -0.016 C 
ATOM      3  C   UNL     1      35.331 -24.561 -12.068  0.00  0.00    -0.004 C 
ATOM      4  C   UNL     1      37.033 -23.031 -12.840  0.00  0.00    -0.004 C 
ATOM      5  C   UNL     1      35.586 -24.181 -10.751  0.00  0.00    -0.000 C 
ATOM      6  C   UNL     1      37.289 -22.650 -11.522  0.00  0.00    -0.000 C 
ATOM      7  C   UNL     1      36.566 -23.226 -10.477  0.00  0.00    -0.000 C 
ENDBRANCH   1   2
BRANCH   1   8
ATOM      8  C   UNL     1      36.229 -23.314 -15.552  0.00  0.00    -0.016 C 
ATOM      9  C   UNL     1      37.388 -22.644 -15.300  0.00  0.00    -0.004 C 
ATOM     10  C   UNL     1      35.434 -23.110 -16.640  0.00  0.00    -0.004 C 
ATOM     11  C   UNL     1      37.792 -21.679 -16.222  0.00  0.00    -0.000 C 
ATOM     12  C   UNL     1      35.836 -22.145 -17.562  0.00  0.00    -0.000 C 
ATOM     13  C   UNL     1      37.015 -21.430 -17.354  0.00  0.00    -0.000 C 
ENDBRANCH   1   8
BRANCH   1  14
ATOM     14  C   UNL     1      34.234 -24.744 -14.601  0.00  0.00    -0.009 C 
BRANCH  14  15
ATOM     15  C   UNL     1      33.208 -23.581 -14.635  0.00  0.00    -0.058 C 
ATOM     16  C   UNL     1      32.552 -23.493 -16.017  0.00  0.00    -0.023 C 
BRANCH  15  17
ATOM     17  N   UNL     1      32.152 -23.767 -13.638  0.00  0.00    +0.385 N 
ATOM     18  C   UNL     1      31.771 -25.177 -13.558  0.00  0.00    -0.101 C 
ATOM     19  C   UNL     1      30.992 -22.940 -13.963  0.00  0.00    -0.101 C 
ATOM     20  H   UNL     1      32.509 -23.479 -12.727  0.00  0.00    -0.080 HD
ENDBRANCH  15  17
ENDBRANCH  14  15
ENDBRANCH   1  14
BRANCH   1  21
ATOM     21  C   UNL     1      36.554 -25.743 -14.893  0.00  0.00    +0.176 C 
BRANCH  21  22
ATOM     22  C   UNL     1      35.896 -26.632 -15.971  0.00  0.00    +0.044 C 
ATOM     23  C   UNL     1      36.853 -27.701 -16.493  0.00  0.00    +0.004 C 
ENDBRANCH  21  22
BRANCH  21  24
ATOM     24  O   UNL     1      37.904 -25.471 -15.287  0.00  0.00    -0.452 OA
BRANCH  24  26
ATOM     25  O   UNL     1      38.666 -26.295 -13.268  0.00  0.00    -0.250 OA
ATOM     26  C   UNL     1      38.856 -25.789 -14.364  0.00  0.00    +0.317 C 
ATOM     27  C   UNL     1      40.209 -25.423 -14.896  0.00  0.00    +0.121 C 
ENDBRANCH  24  26
ENDBRANCH  21  24
ENDBRANCH   1  21
TORSDOF 9
ENDMDL
MODEL 5
REMARK VINA RESULT:      -5.8      1.296      4.599
REMARK  Name = 22308
REMARK  9 active torsions:
REMARK  status: ('A' for Active; 'I' for Inactive)
REMARK    1  A    between atoms: C_1  and  C_2
REMARK    2  A    between atoms: C_1  and  C_8
REMARK    3  A    between atoms: C_1  and  C_14
REMARK    4  A    between atoms: C_1  and  C_21
REMARK    5  A    between atoms: C_14  and  C_15
REMARK    6  A    between atoms: C_15  and  N_17
REMARK    7  A    between atoms: C_21  and  C_22
REMARK    8  A    between atoms: C_21  and  O_24
REMARK    9  A    between atoms: O_24  and  C_26
REMARK                            x       y       z     vdW  Elec       q    Type
REMARK                         _______ _______ _______ _____ _____    ______ ____
ROOT
ATOM      1  C   UNL     1      35.733 -23.588 -15.046  0.00  0.00    +0.073 C 
ENDROOT
BRANCH   1   2
ATOM      2  C   UNL     1      36.587 -24.895 -15.058  0.00  0.00    -0.016 C 
ATOM      3  C   UNL     1      35.923 -26.075 -15.192  0.00  0.00    -0.004 C 
ATOM      4  C   UNL     1      37.936 -24.765 -14.935  0.00  0.00    -0.004 C 
ATOM      5  C   UNL     1      36.685 -27.244 -15.203  0.00  0.00    -0.000 C 
ATOM      6  C   UNL     1      38.699 -25.933 -14.945  0.00  0.00    -0.000 C 
ATOM      7  C   UNL     1      38.073 -27.173 -15.080  0.00  0.00    -0.000 C 
ENDBRANCH   1   2
BRANCH   1   8
ATOM      8  C   UNL     1      35.924 -22.738 -16.338  0.00  0.00    -0.016 C 
ATOM      9  C   UNL     1      35.055 -22.950 -17.366  0.00  0.00    -0.004 C 
ATOM     10  C   UNL     1      36.947 -21.838 -16.356  0.00  0.00    -0.004 C 
ATOM     11  C   UNL     1      35.224 -22.190 -18.523  0.00  0.00    -0.000 C 
ATOM     12  C   UNL     1      37.117 -21.078 -17.513  0.00  0.00    -0.000 C 
ATOM     13  C   UNL     1      36.256 -21.253 -18.596  0.00  0.00    -0.000 C 
ENDBRANCH   1   8
BRANCH   1  14
ATOM     14  C   UNL     1      36.109 -22.812 -13.712  0.00  0.00    -0.009 C 
BRANCH  14  15
ATOM     15  C   UNL     1      37.003 -23.525 -12.665  0.00  0.00    -0.058 C 
ATOM     16  C   UNL     1      37.642 -22.498 -11.725  0.00  0.00    -0.023 C 
BRANCH  15  17
ATOM     17  N   UNL     1      36.231 -24.470 -11.855  0.00  0.00    +0.385 N 
ATOM     18  C   UNL     1      35.894 -23.875 -10.562  0.00  0.00    -0.101 C 
ATOM     19  C   UNL     1      36.979 -25.711 -11.668  0.00  0.00    -0.101 C 
ATOM     20  H   UNL     1      35.363 -24.686 -12.345  0.00  0.00    -0.080 HD
ENDBRANCH  15  17
ENDBRANCH  14  15
ENDBRANCH   1  14
BRANCH   1  21
ATOM     21  C   UNL     1      34.171 -23.918 -14.933  0.00  0.00    +0.176 C 
BRANCH  21  22
ATOM     22  C   UNL     1      33.691 -24.492 -13.581  0.00  0.00    +0.044 C 
ATOM     23  C   UNL     1      32.384 -25.268 -13.723  0.00  0.00    +0.004 C 
ENDBRANCH  21  22
BRANCH  21  24
ATOM     24  O   UNL     1      33.378 -22.769 -15.249  0.00  0.00    -0.452 OA
BRANCH  24  26
ATOM     25  O   UNL     1      31.917 -23.622 -16.822  0.00  0.00    -0.250 OA
ATOM     26  C   UNL     1      32.148 -23.034 -15.775  0.00  0.00    +0.317 C 
ATOM     27  C   UNL     1      31.087 -22.490 -14.866  0.00  0.00    +0.121 C 
ENDBRANCH  24  26
ENDBRANCH  21  24
ENDBRANCH   1  21
TORSDOF 9
ENDMDL
MODEL 6
REMARK VINA RESULT:      -5.8      1.717      4.835
REMARK  Name = 22308
REMARK  9 active torsions:
REMARK  status: ('A' for Active; 'I' for Inactive)
REMARK    1  A    between atoms: C_1  and  C_2
REMARK    2  A    between atoms: C_1  and  C_8
REMARK    3  A    between atoms: C_1  and  C_14
REMARK    4  A    between atoms: C_1  and  C_21
REMARK    5  A    between atoms: C_14  and  C_15
REMARK    6  A    between atoms: C_15  and  N_17
REMARK    7  A    between atoms: C_21  and  C_22
REMARK    8  A    between atoms: C_21  and  O_24
REMARK    9  A    between atoms: O_24  and  C_26
REMARK                            x       y       z     vdW  Elec       q    Type
REMARK                         _______ _______ _______ _____ _____    ______ ____
ROOT
ATOM      1  C   UNL     1      35.842 -23.363 -15.180  0.00  0.00    +0.073 C 
ENDROOT
BRANCH   1   2
ATOM      2  C   UNL     1      36.587 -24.735 -15.195  0.00  0.00    -0.016 C 
ATOM      3  C   UNL     1      37.938 -24.717 -15.041  0.00  0.00    -0.004 C 
ATOM      4  C   UNL     1      35.832 -25.856 -15.361  0.00  0.00    -0.004 C 
ATOM      5  C   UNL     1      38.604 -25.942 -15.056  0.00  0.00    -0.000 C 
ATOM      6  C   UNL     1      36.498 -27.082 -15.375  0.00  0.00    -0.000 C 
ATOM      7  C   UNL     1      37.884 -27.126 -15.222  0.00  0.00    -0.000 C 
ENDBRANCH   1   2
BRANCH   1   8
ATOM      8  C   UNL     1      36.186 -22.482 -16.418  0.00  0.00    -0.016 C 
ATOM      9  C   UNL     1      37.210 -21.592 -16.294  0.00  0.00    -0.004 C 
ATOM     10  C   UNL     1      35.440 -22.658 -17.544  0.00  0.00    -0.004 C 
ATOM     11  C   UNL     1      37.518 -20.803 -17.402  0.00  0.00    -0.000 C 
ATOM     12  C   UNL     1      35.747 -21.869 -18.653  0.00  0.00    -0.000 C 
ATOM     13  C   UNL     1      36.787 -20.942 -18.582  0.00  0.00    -0.000 C 
ENDBRANCH   1   8
BRANCH   1  14
ATOM     14  C   UNL     1      36.189 -22.673 -13.792  0.00  0.00    -0.009 C 
BRANCH  14  15
ATOM     15  C   UNL     1      36.959 -23.496 -12.726  0.00  0.00    -0.058 C 
ATOM     16  C   UNL     1      37.625 -22.559 -11.713  0.00  0.00    -0.023 C 
BRANCH  15  17
ATOM     17  N   UNL     1      36.065 -24.398 -11.997  0.00  0.00    +0.385 N 
ATOM     18  C   UNL     1      35.729 -23.835 -10.690  0.00  0.00    -0.101 C 
ATOM     19  C   UNL     1      36.682 -25.714 -11.845  0.00  0.00    -0.101 C 
ATOM     20  H   UNL     1      35.203 -24.505 -12.531  0.00  0.00    -0.080 HD
ENDBRANCH  15  17
ENDBRANCH  14  15
ENDBRANCH   1  14
BRANCH   1  21
ATOM     21  C   UNL     1      34.254 -23.567 -15.180  0.00  0.00    +0.176 C 
BRANCH  21  22
ATOM     22  C   UNL     1      33.619 -23.980 -16.526  0.00  0.00    +0.044 C 
ATOM     23  C   UNL     1      32.334 -23.207 -16.812  0.00  0.00    +0.004 C 
ENDBRANCH  21  22
BRANCH  21  24
ATOM     24  O   UNL     1      33.856 -24.509 -14.178  0.00  0.00    -0.452 OA
BRANCH  24  26
ATOM     25  O   UNL     1      32.605 -23.219 -12.727  0.00  0.00    -0.250 OA
ATOM     26  C   UNL     1      32.736 -24.177 -13.475  0.00  0.00    +0.317 C 
ATOM     27  C   UNL     1      31.655 -25.177 -13.754  0.00  0.00    +0.121 C 
ENDBRANCH  24  26
ENDBRANCH  21  24
ENDBRANCH   1  21
TORSDOF 9
ENDMDL
MODEL 7
REMARK VINA RESULT:      -5.5      1.503      4.429
REMARK  Name = 22308
REMARK  9 active torsions:
REMARK  status: ('A' for Active; 'I' for Inactive)
REMARK    1  A    between atoms: C_1  and  C_2
REMARK    2  A    between atoms: C_1  and  C_8
REMARK    3  A    between atoms: C_1  and  C_14
REMARK    4  A    between atoms: C_1  and  C_21
REMARK    5  A    between atoms: C_14  and  C_15
REMARK    6  A    between atoms: C_15  and  N_17
REMARK    7  A    between atoms: C_21  and  C_22
REMARK    8  A    between atoms: C_21  and  O_24
REMARK    9  A    between atoms: O_24  and  C_26
REMARK                            x       y       z     vdW  Elec       q    Type
REMARK                         _______ _______ _______ _____ _____    ______ ____
ROOT
ATOM      1  C   UNL     1      35.216 -23.944 -14.891  0.00  0.00    +0.073 C 
ENDROOT
BRANCH   1   2
ATOM      2  C   UNL     1      35.917 -22.963 -15.883  0.00  0.00    -0.016 C 
ATOM      3  C   UNL     1      35.313 -22.748 -17.083  0.00  0.00    -0.004 C 
ATOM      4  C   UNL     1      37.084 -22.390 -15.479  0.00  0.00    -0.004 C 
ATOM      5  C   UNL     1      35.939 -21.872 -17.970  0.00  0.00    -0.000 C 
ATOM      6  C   UNL     1      37.711 -21.514 -16.366  0.00  0.00    -0.000 C 
ATOM      7  C   UNL     1      37.138 -21.254 -17.611  0.00  0.00    -0.000 C 
ENDBRANCH   1   2
BRANCH   1   8
ATOM      8  C   UNL     1      35.679 -23.736 -13.417  0.00  0.00    -0.016 C 
ATOM      9  C   UNL     1      36.729 -22.896 -13.199  0.00  0.00    -0.004 C 
ATOM     10  C   UNL     1      35.005 -24.409 -12.443  0.00  0.00    -0.004 C 
ATOM     11  C   UNL     1      37.145 -22.710 -11.881  0.00  0.00    -0.000 C 
ATOM     12  C   UNL     1      35.420 -24.223 -11.125  0.00  0.00    -0.000 C 
ATOM     13  C   UNL     1      36.490 -23.373 -10.844  0.00  0.00    -0.000 C 
ENDBRANCH   1   8
BRANCH   1  14
ATOM     14  C   UNL     1      35.477 -25.410 -15.440  0.00  0.00    -0.009 C 
BRANCH  14  15
ATOM     15  C   UNL     1      36.520 -26.300 -14.714  0.00  0.00    -0.058 C 
ATOM     16  C   UNL     1      36.986 -27.431 -15.636  0.00  0.00    -0.023 C 
BRANCH  15  17
ATOM     17  N   UNL     1      37.695 -25.527 -14.307  0.00  0.00    +0.385 N 
ATOM     18  C   UNL     1      38.716 -25.565 -15.352  0.00  0.00    -0.101 C 
ATOM     19  C   UNL     1      38.231 -26.039 -13.047  0.00  0.00    -0.101 C 
ATOM     20  H   UNL     1      37.413 -24.557 -14.167  0.00  0.00    -0.080 HD
ENDBRANCH  15  17
ENDBRANCH  14  15
ENDBRANCH   1  14
BRANCH   1  21
ATOM     21  C   UNL     1      33.627 -23.748 -14.911  0.00  0.00    +0.176 C 
BRANCH  21  22
ATOM     22  C   UNL     1      32.964 -23.687 -16.304  0.00  0.00    +0.044 C 
ATOM     23  C   UNL     1      31.777 -22.727 -16.331  0.00  0.00    +0.004 C 
ENDBRANCH  21  22
BRANCH  21  24
ATOM     24  O   UNL     1      32.974 -24.761 -14.137  0.00  0.00    -0.452 OA
BRANCH  24  26
ATOM     25  O   UNL     1      31.580 -23.473 -12.820  0.00  0.00    -0.250 OA
ATOM     26  C   UNL     1      31.777 -24.399 -13.593  0.00  0.00    +0.317 C 
ATOM     27  C   UNL     1      30.704 -25.322 -14.087  0.00  0.00    +0.121 C 
ENDBRANCH  24  26
ENDBRANCH  21  24
ENDBRANCH   1  21
TORSDOF 9
ENDMDL
MODEL 8
REMARK VINA RESULT:      -4.9      1.657      4.743
REMARK  Name = 22308
REMARK  9 active torsions:
REMARK  status: ('A' for Active; 'I' for Inactive)
REMARK    1  A    between atoms: C_1  and  C_2
REMARK    2  A    between atoms: C_1  and  C_8
REMARK    3  A    between atoms: C_1  and  C_14
REMARK    4  A    between atoms: C_1  and  C_21
REMARK    5  A    between atoms: C_14  and  C_15
REMARK    6  A    between atoms: C_15  and  N_17
REMARK    7  A    between atoms: C_21  and  C_22
REMARK    8  A    between atoms: C_21  and  O_24
REMARK    9  A    between atoms: O_24  and  C_26
REMARK                            x       y       z     vdW  Elec       q    Type
REMARK                         _______ _______ _______ _____ _____    ______ ____
ROOT
ATOM      1  C   UNL     1      35.359 -24.142 -14.725  0.00  0.00    +0.073 C 
ENDROOT
BRANCH   1   2
ATOM      2  C   UNL     1      33.816 -24.046 -14.505  0.00  0.00    -0.016 C 
ATOM      3  C   UNL     1      33.184 -25.145 -14.010  0.00  0.00    -0.004 C 
ATOM      4  C   UNL     1      33.210 -22.869 -14.821  0.00  0.00    -0.004 C 
ATOM      5  C   UNL     1      31.805 -25.059 -13.814  0.00  0.00    -0.000 C 
ATOM      6  C   UNL     1      31.831 -22.783 -14.625  0.00  0.00    -0.000 C 
ATOM      7  C   UNL     1      31.128 -23.878 -14.120  0.00  0.00    -0.000 C 
ENDBRANCH   1   2
BRANCH   1   8
ATOM      8  C   UNL     1      35.869 -23.159 -15.821  0.00  0.00    -0.016 C 
ATOM      9  C   UNL     1      37.085 -22.576 -15.629  0.00  0.00    -0.004 C 
ATOM     10  C   UNL     1      35.065 -22.946 -16.901  0.00  0.00    -0.004 C 
ATOM     11  C   UNL     1      37.542 -21.696 -16.609  0.00  0.00    -0.000 C 
ATOM     12  C   UNL     1      35.522 -22.066 -17.882  0.00  0.00    -0.000 C 
ATOM     13  C   UNL     1      36.760 -21.441 -17.736  0.00  0.00    -0.000 C 
ENDBRANCH   1   8
BRANCH   1  14
ATOM     14  C   UNL     1      35.679 -25.666 -15.037  0.00  0.00    -0.009 C 
BRANCH  14  15
ATOM     15  C   UNL     1      36.843 -26.351 -14.275  0.00  0.00    -0.058 C 
ATOM     16  C   UNL     1      37.215 -27.674 -14.952  0.00  0.00    -0.023 C 
BRANCH  15  17
ATOM     17  N   UNL     1      38.036 -25.502 -14.241  0.00  0.00    +0.385 N 
ATOM     18  C   UNL     1      38.823 -25.682 -15.461  0.00  0.00    -0.101 C 
ATOM     19  C   UNL     1      38.843 -25.804 -13.061  0.00  0.00    -0.101 C 
ATOM     20  H   UNL     1      37.740 -24.528 -14.190  0.00  0.00    -0.080 HD
ENDBRANCH  15  17
ENDBRANCH  14  15
ENDBRANCH   1  14
BRANCH   1  21
ATOM     21  C   UNL     1      36.157 -23.795 -13.382  0.00  0.00    +0.176 C 
BRANCH  21  22
ATOM     22  C   UNL     1      36.889 -22.435 -13.354  0.00  0.00    +0.044 C 
ATOM     23  C   UNL     1      37.919 -22.364 -12.230  0.00  0.00    +0.004 C 
ENDBRANCH  21  22
BRANCH  21  24
ATOM     24  O   UNL     1      35.299 -23.877 -12.238  0.00  0.00    -0.452 OA
BRANCH  24  26
ATOM     25  O   UNL     1      36.271 -25.776 -11.352  0.00  0.00    -0.250 OA
ATOM     26  C   UNL     1      35.745 -24.679 -11.229  0.00  0.00    +0.317 C 
ATOM     27  C   UNL     1      35.492 -24.012  -9.911  0.00  0.00    +0.121 C 
ENDBRANCH  24  26
ENDBRANCH  21  24
ENDBRANCH   1  21
TORSDOF 9
ENDMDL
MODEL 9
REMARK VINA RESULT:      -3.8      1.690      4.446
REMARK  Name = 22308
REMARK  9 active torsions:
REMARK  status: ('A' for Active; 'I' for Inactive)
REMARK    1  A    between atoms: C_1  and  C_2
REMARK    2  A    between atoms: C_1  and  C_8
REMARK    3  A    between atoms: C_1  and  C_14
REMARK    4  A    between atoms: C_1  and  C_21
REMARK    5  A    between atoms: C_14  and  C_15
REMARK    6  A    between atoms: C_15  and  N_17
REMARK    7  A    between atoms: C_21  and  C_22
REMARK    8  A    between atoms: C_21  and  O_24
REMARK    9  A    between atoms: O_24  and  C_26
REMARK                            x       y       z     vdW  Elec       q    Type
REMARK                         _______ _______ _______ _____ _____    ______ ____
ROOT
ATOM      1  C   UNL     1      34.298 -23.953 -15.294  0.00  0.00    +0.073 C 
ENDROOT
BRANCH   1   2
ATOM      2  C   UNL     1      32.871 -23.875 -14.666  0.00  0.00    -0.016 C 
ATOM      3  C   UNL     1      32.191 -22.704 -14.797  0.00  0.00    -0.004 C 
ATOM      4  C   UNL     1      32.405 -24.985 -14.030  0.00  0.00    -0.004 C 
ATOM      5  C   UNL     1      30.916 -22.634 -14.236  0.00  0.00    -0.000 C 
ATOM      6  C   UNL     1      31.129 -24.915 -13.468  0.00  0.00    -0.000 C 
ATOM      7  C   UNL     1      30.384 -23.740 -13.571  0.00  0.00    -0.000 C 
ENDBRANCH   1   2
BRANCH   1   8
ATOM      8  C   UNL     1      34.376 -23.259 -16.687  0.00  0.00    -0.016 C 
ATOM      9  C   UNL     1      33.238 -23.216 -17.435  0.00  0.00    -0.004 C 
ATOM     10  C   UNL     1      35.578 -22.741 -17.067  0.00  0.00    -0.004 C 
ATOM     11  C   UNL     1      33.307 -22.595 -18.682  0.00  0.00    -0.000 C 
ATOM     12  C   UNL     1      35.648 -22.120 -18.315  0.00  0.00    -0.000 C 
ATOM     13  C   UNL     1      34.512 -22.047 -19.121  0.00  0.00    -0.000 C 
ENDBRANCH   1   8
BRANCH   1  14
ATOM     14  C   UNL     1      34.698 -25.489 -15.325  0.00  0.00    -0.009 C 
BRANCH  14  15
ATOM     15  C   UNL     1      36.172 -25.867 -15.629  0.00  0.00    -0.058 C 
ATOM     16  C   UNL     1      37.112 -25.176 -14.635  0.00  0.00    -0.023 C 
BRANCH  15  17
ATOM     17  N   UNL     1      36.386 -27.312 -15.533  0.00  0.00    +0.385 N 
ATOM     18  C   UNL     1      37.377 -27.613 -14.501  0.00  0.00    -0.101 C 
ATOM     19  C   UNL     1      36.809 -27.852 -16.823  0.00  0.00    -0.101 C 
ATOM     20  H   UNL     1      35.505 -27.755 -15.271  0.00  0.00    -0.080 HD
ENDBRANCH  15  17
ENDBRANCH  14  15
ENDBRANCH   1  14
BRANCH   1  21
ATOM     21  C   UNL     1      35.382 -23.239 -14.357  0.00  0.00    +0.176 C 
BRANCH  21  22
ATOM     22  C   UNL     1      35.942 -21.891 -14.864  0.00  0.00    +0.044 C 
ATOM     23  C   UNL     1      37.446 -21.956 -15.116  0.00  0.00    +0.004 C 
ENDBRANCH  21  22
BRANCH  21  24
ATOM     24  O   UNL     1      34.874 -23.053 -13.031  0.00  0.00    -0.452 OA
BRANCH  24  26
ATOM     25  O   UNL     1      35.013 -24.888 -11.636  0.00  0.00    -0.250 OA
ATOM     26  C   UNL     1      35.448 -23.832 -12.071  0.00  0.00    +0.317 C 
ATOM     27  C   UNL     1      36.724 -23.195 -11.608  0.00  0.00    +0.121 C 
ENDBRANCH  24  26
ENDBRANCH  21  24
ENDBRANCH   1  21
TORSDOF 9
ENDMDL
