MODEL 1
REMARK VINA RESULT:      -5.4      0.000      0.000
REMARK  Name = 5287955
REMARK  7 active torsions:
REMARK  status: ('A' for Active; 'I' for Inactive)
REMARK    1  A    between atoms: C_2  and  N_19
REMARK    2  A    between atoms: C_9  and  O_25
REMARK    3  A    between atoms: C_13  and  O_27
REMARK    4  A    between atoms: C_14  and  O_29
REMARK    5  A    between atoms: C_17  and  O_31
REMARK    6  A    between atoms: C_20  and  C_22
REMARK    7  A    between atoms: C_22  and  S_23
REMARK                            x       y       z     vdW  Elec       q    Type
REMARK                         _______ _______ _______ _____ _____    ______ ____
ROOT
ATOM      1  O   UNL     1      34.784 -15.237 -21.791  0.00  0.00    -0.283 OA
ATOM      2  C   UNL     1      31.610 -11.777 -21.012  0.00  0.00    +0.095 C 
ATOM      3  C   UNL     1      30.226 -11.334 -21.540  0.00  0.00    +0.029 C 
ATOM      4  C   UNL     1      30.161 -10.677 -22.925  0.00  0.00    +0.029 C 
ATOM      5  C   UNL     1      32.536 -12.458 -22.024  0.00  0.00    -0.001 C 
ATOM      6  C   UNL     1      31.309  -9.743 -23.205  0.00  0.00    -0.016 C 
ATOM      7  C   UNL     1      32.612 -10.257 -23.367  0.00  0.00    +0.033 C 
ATOM      8  C   UNL     1      32.845 -11.728 -23.263  0.00  0.00    +0.000 C 
ATOM      9  C   UNL     1      33.681  -9.374 -23.593  0.00  0.00    +0.175 C 
ATOM     10  C   UNL     1      31.096  -8.360 -23.284  0.00  0.00    +0.036 C 
ATOM     11  C   UNL     1      33.069 -13.642 -21.668  0.00  0.00    +0.043 C 
ATOM     12  C   UNL     1      33.257 -12.296 -24.413  0.00  0.00    +0.003 C 
ATOM     13  C   UNL     1      33.454  -8.001 -23.672  0.00  0.00    +0.206 C 
ATOM     14  C   UNL     1      32.165  -7.495 -23.520  0.00  0.00    +0.175 C 
ATOM     15  C   UNL     1      33.997 -14.525 -22.411  0.00  0.00    +0.229 C 
ATOM     16  C   UNL     1      33.500 -13.682 -24.709  0.00  0.00    +0.040 C 
ATOM     17  C   UNL     1      33.868 -14.664 -23.881  0.00  0.00    +0.177 C 
ENDROOT
BRANCH   2  19
ATOM     18  O   UNL     1      30.658 -10.075 -18.874  0.00  0.00    -0.274 OA
ATOM     19  N   UNL     1      32.322 -10.685 -20.376  0.00  0.00    -0.301 N 
ATOM     20  C   UNL     1      31.781  -9.925 -19.356  0.00  0.00    +0.233 C 
ATOM     21  H   UNL     1      33.234 -10.476 -20.684  0.00  0.00    +0.150 HD
BRANCH  20  22
ATOM     22  C   UNL     1      32.714  -8.840 -18.875  0.00  0.00    +0.138 C 
BRANCH  22  23
ATOM     23  S   UNL     1      32.588  -7.421 -19.989  0.00  0.00    -0.159 S 
ATOM     24  H   UNL     1      33.574  -7.490 -20.923  0.00  0.00    +0.103 HD
ENDBRANCH  22  23
ENDBRANCH  20  22
ENDBRANCH   2  19
BRANCH   9  25
ATOM     25  O   UNL     1      34.960  -9.838 -23.713  0.00  0.00    -0.468 OA
ATOM     26  C   UNL     1      35.456 -10.023 -25.035  0.00  0.00    +0.253 C 
ENDBRANCH   9  25
BRANCH  13  27
ATOM     27  O   UNL     1      34.496  -7.148 -23.891  0.00  0.00    -0.465 OA
ATOM     28  C   UNL     1      34.563  -6.523 -25.170  0.00  0.00    +0.253 C 
ENDBRANCH  13  27
BRANCH  14  29
ATOM     29  O   UNL     1      31.934  -6.154 -23.593  0.00  0.00    -0.468 OA
ATOM     30  C   UNL     1      30.866  -5.637 -22.802  0.00  0.00    +0.253 C 
ENDBRANCH  14  29
BRANCH  17  31
ATOM     31  O   UNL     1      34.181 -15.904 -24.414  0.00  0.00    -0.468 OA
ATOM     32  C   UNL     1      33.721 -16.003 -25.744  0.00  0.00    +0.253 C 
ENDBRANCH  17  31
TORSDOF 7
ENDMDL
MODEL 2
REMARK VINA RESULT:      -3.5     12.860     15.712
REMARK  Name = 5287955
REMARK  7 active torsions:
REMARK  status: ('A' for Active; 'I' for Inactive)
REMARK    1  A    between atoms: C_2  and  N_19
REMARK    2  A    between atoms: C_9  and  O_25
REMARK    3  A    between atoms: C_13  and  O_27
REMARK    4  A    between atoms: C_14  and  O_29
REMARK    5  A    between atoms: C_17  and  O_31
REMARK    6  A    between atoms: C_20  and  C_22
REMARK    7  A    between atoms: C_22  and  S_23
REMARK                            x       y       z     vdW  Elec       q    Type
REMARK                         _______ _______ _______ _____ _____    ______ ____
ROOT
ATOM      1  O   UNL     1      29.656 -26.288 -15.169  0.00  0.00    -0.283 OA
ATOM      2  C   UNL     1      33.994 -25.135 -13.587  0.00  0.00    +0.095 C 
ATOM      3  C   UNL     1      34.649 -24.082 -12.663  0.00  0.00    +0.029 C 
ATOM      4  C   UNL     1      34.783 -22.648 -13.191  0.00  0.00    +0.029 C 
ATOM      5  C   UNL     1      32.754 -24.682 -14.362  0.00  0.00    -0.001 C 
ATOM      6  C   UNL     1      35.149 -22.572 -14.650  0.00  0.00    -0.016 C 
ATOM      7  C   UNL     1      34.224 -22.984 -15.631  0.00  0.00    +0.033 C 
ATOM      8  C   UNL     1      32.883 -23.490 -15.217  0.00  0.00    +0.000 C 
ATOM      9  C   UNL     1      34.589 -22.943 -16.987  0.00  0.00    +0.175 C 
ATOM     10  C   UNL     1      36.415 -22.115 -15.041  0.00  0.00    +0.036 C 
ATOM     11  C   UNL     1      31.656 -25.455 -14.271  0.00  0.00    +0.043 C 
ATOM     12  C   UNL     1      31.860 -22.710 -15.614  0.00  0.00    +0.003 C 
ATOM     13  C   UNL     1      35.851 -22.483 -17.361  0.00  0.00    +0.206 C 
ATOM     14  C   UNL     1      36.761 -22.068 -16.392  0.00  0.00    +0.175 C 
ATOM     15  C   UNL     1      30.327 -25.292 -14.904  0.00  0.00    +0.229 C 
ATOM     16  C   UNL     1      30.455 -22.835 -15.334  0.00  0.00    +0.040 C 
ATOM     17  C   UNL     1      29.748 -23.939 -15.071  0.00  0.00    +0.177 C 
ENDROOT
BRANCH   2  19
ATOM     18  O   UNL     1      36.729 -25.903 -13.034  0.00  0.00    -0.274 OA
ATOM     19  N   UNL     1      34.949 -25.712 -14.514  0.00  0.00    -0.301 N 
ATOM     20  C   UNL     1      36.240 -26.048 -14.154  0.00  0.00    +0.233 C 
ATOM     21  H   UNL     1      34.664 -25.873 -15.443  0.00  0.00    +0.150 HD
BRANCH  20  22
ATOM     22  C   UNL     1      37.041 -26.614 -15.302  0.00  0.00    +0.138 C 
BRANCH  22  23
ATOM     23  S   UNL     1      38.790 -26.236 -15.042  0.00  0.00    -0.159 S 
ATOM     24  H   UNL     1      38.912 -25.326 -14.038  0.00  0.00    +0.103 HD
ENDBRANCH  22  23
ENDBRANCH  20  22
ENDBRANCH   2  19
BRANCH   9  25
ATOM     25  O   UNL     1      33.730 -23.373 -17.957  0.00  0.00    -0.468 OA
ATOM     26  C   UNL     1      33.044 -22.371 -18.701  0.00  0.00    +0.253 C 
ENDBRANCH   9  25
BRANCH  13  27
ATOM     27  O   UNL     1      36.200 -22.445 -18.680  0.00  0.00    -0.465 OA
ATOM     28  C   UNL     1      36.033 -21.203 -19.359  0.00  0.00    +0.253 C 
ENDBRANCH  13  27
BRANCH  14  29
ATOM     29  O   UNL     1      37.997 -21.620 -16.748  0.00  0.00    -0.468 OA
ATOM     30  C   UNL     1      38.171 -20.208 -16.846  0.00  0.00    +0.253 C 
ENDBRANCH  14  29
BRANCH  17  31
ATOM     31  O   UNL     1      28.370 -23.839 -14.967  0.00  0.00    -0.468 OA
ATOM     32  C   UNL     1      27.883 -22.806 -15.797  0.00  0.00    +0.253 C 
ENDBRANCH  17  31
TORSDOF 7
ENDMDL
MODEL 3
REMARK VINA RESULT:      -2.7      3.142      7.520
REMARK  Name = 5287955
REMARK  7 active torsions:
REMARK  status: ('A' for Active; 'I' for Inactive)
REMARK    1  A    between atoms: C_2  and  N_19
REMARK    2  A    between atoms: C_9  and  O_25
REMARK    3  A    between atoms: C_13  and  O_27
REMARK    4  A    between atoms: C_14  and  O_29
REMARK    5  A    between atoms: C_17  and  O_31
REMARK    6  A    between atoms: C_20  and  C_22
REMARK    7  A    between atoms: C_22  and  S_23
REMARK                            x       y       z     vdW  Elec       q    Type
REMARK                         _______ _______ _______ _____ _____    ______ ____
ROOT
ATOM      1  O   UNL     1      30.302 -10.411 -22.499  0.00  0.00    -0.283 OA
ATOM      2  C   UNL     1      32.834 -14.030 -20.725  0.00  0.00    +0.095 C 
ATOM      3  C   UNL     1      34.277 -14.310 -20.245  0.00  0.00    +0.029 C 
ATOM      4  C   UNL     1      35.373 -14.451 -21.309  0.00  0.00    +0.029 C 
ATOM      5  C   UNL     1      32.680 -13.012 -21.859  0.00  0.00    -0.001 C 
ATOM      6  C   UNL     1      34.928 -15.193 -22.542  0.00  0.00    -0.016 C 
ATOM      7  C   UNL     1      33.980 -14.612 -23.410  0.00  0.00    +0.033 C 
ATOM      8  C   UNL     1      33.426 -13.260 -23.102  0.00  0.00    +0.000 C 
ATOM      9  C   UNL     1      33.544 -15.327 -24.537  0.00  0.00    +0.175 C 
ATOM     10  C   UNL     1      35.431 -16.470 -22.823  0.00  0.00    +0.036 C 
ATOM     11  C   UNL     1      31.807 -12.007 -21.667  0.00  0.00    +0.043 C 
ATOM     12  C   UNL     1      33.760 -12.318 -24.005  0.00  0.00    +0.003 C 
ATOM     13  C   UNL     1      34.056 -16.596 -24.805  0.00  0.00    +0.206 C 
ATOM     14  C   UNL     1      34.998 -17.166 -23.952  0.00  0.00    +0.175 C 
ATOM     15  C   UNL     1      31.432 -10.891 -22.566  0.00  0.00    +0.229 C 
ATOM     16  C   UNL     1      33.480 -10.907 -23.996  0.00  0.00    +0.040 C 
ATOM     17  C   UNL     1      32.459 -10.259 -23.427  0.00  0.00    +0.177 C 
ENDROOT
BRANCH   2  19
ATOM     18  O   UNL     1      33.509 -16.732 -19.937  0.00  0.00    -0.274 OA
ATOM     19  N   UNL     1      32.136 -15.250 -21.084  0.00  0.00    -0.301 N 
ATOM     20  C   UNL     1      32.537 -16.501 -20.655  0.00  0.00    +0.233 C 
ATOM     21  H   UNL     1      31.340 -15.184 -21.659  0.00  0.00    +0.150 HD
BRANCH  20  22
ATOM     22  C   UNL     1      31.656 -17.610 -21.180  0.00  0.00    +0.138 C 
BRANCH  22  23
ATOM     23  S   UNL     1      32.469 -19.198 -20.879  0.00  0.00    -0.159 S 
ATOM     24  H   UNL     1      32.106 -19.667 -19.655  0.00  0.00    +0.103 HD
ENDBRANCH  22  23
ENDBRANCH  20  22
ENDBRANCH   2  19
BRANCH   9  25
ATOM     25  O   UNL     1      32.598 -14.809 -25.374  0.00  0.00    -0.468 OA
ATOM     26  C   UNL     1      33.049 -14.325 -26.635  0.00  0.00    +0.253 C 
ENDBRANCH   9  25
BRANCH  13  27
ATOM     27  O   UNL     1      33.629 -17.287 -25.902  0.00  0.00    -0.465 OA
ATOM     28  C   UNL     1      33.040 -18.564 -25.675  0.00  0.00    +0.253 C 
ENDBRANCH  13  27
BRANCH  14  29
ATOM     29  O   UNL     1      35.502 -18.406 -24.205  0.00  0.00    -0.468 OA
ATOM     30  C   UNL     1      35.375 -19.380 -23.170  0.00  0.00    +0.253 C 
ENDBRANCH  14  29
BRANCH  17  31
ATOM     31  O   UNL     1      32.315  -8.902 -23.665  0.00  0.00    -0.468 OA
ATOM     32  C   UNL     1      33.051  -8.152 -22.722  0.00  0.00    +0.253 C 
ENDBRANCH  17  31
TORSDOF 7
ENDMDL
