MODEL 1
REMARK VINA RESULT:      -6.8      0.000      0.000
REMARK  Name = 2681
REMARK  15 active torsions:
REMARK  status: ('A' for Active; 'I' for Inactive)
REMARK    1  A    between atoms: C_1  and  C_2
REMARK    2  A    between atoms: C_1  and  C_11
REMARK    3  A    between atoms: C_2  and  C_3
REMARK    4  A    between atoms: C_3  and  C_4
REMARK    5  A    between atoms: C_4  and  C_5
REMARK    6  A    between atoms: C_5  and  C_6
REMARK    7  A    between atoms: C_6  and  N_7
REMARK    8  A    between atoms: C_11  and  C_12
REMARK    9  A    between atoms: C_12  and  C_13
REMARK   10  A    between atoms: C_13  and  C_14
REMARK   11  A    between atoms: C_14  and  C_15
REMARK   12  A    between atoms: C_15  and  C_16
REMARK   13  A    between atoms: C_16  and  C_17
REMARK   14  A    between atoms: C_17  and  C_18
REMARK   15  A    between atoms: C_18  and  C_19
REMARK                            x       y       z     vdW  Elec       q    Type
REMARK                         _______ _______ _______ _____ _____    ______ ____
ROOT
ATOM      1  C   UNL     1      35.527 -20.901 -19.903  0.00  0.00    -0.000 C 
ENDROOT
BRANCH   1   2
ATOM      2  C   UNL     1      35.326 -21.954 -18.806  0.00  0.00    -0.000 C 
BRANCH   2   3
ATOM      3  C   UNL     1      33.883 -22.455 -18.711  0.00  0.00    -0.000 C 
BRANCH   3   4
ATOM      4  C   UNL     1      33.614 -23.283 -17.449  0.00  0.00    -0.002 C 
BRANCH   4   5
ATOM      5  C   UNL     1      34.623 -23.015 -16.327  0.00  0.00    -0.022 C 
BRANCH   5   6
ATOM      6  C   UNL     1      34.850 -24.221 -15.420  0.00  0.00    -0.073 C 
BRANCH   6   7
ATOM      7  N   UNL     1      36.216 -24.194 -14.847  0.00  0.00    +0.386 N 
ATOM      8  C   UNL     1      36.869 -25.581 -14.922  0.00  0.00    -0.096 C 
ATOM      9  C   UNL     1      36.183 -23.763 -13.372  0.00  0.00    -0.096 C 
ATOM     10  C   UNL     1      37.111 -23.205 -15.610  0.00  0.00    -0.096 C 
ENDBRANCH   6   7
ENDBRANCH   5   6
ENDBRANCH   4   5
ENDBRANCH   3   4
ENDBRANCH   2   3
ENDBRANCH   1   2
BRANCH   1  11
ATOM     11  C   UNL     1      34.213 -20.344 -20.454  0.00  0.00    +0.000 C 
BRANCH  11  12
ATOM     12  C   UNL     1      34.379 -19.002 -21.177  0.00  0.00    +0.000 C 
BRANCH  12  13
ATOM     13  C   UNL     1      34.530 -19.080 -22.698  0.00  0.00    +0.000 C 
BRANCH  13  14
ATOM     14  C   UNL     1      35.374 -17.945 -23.287  0.00  0.00    +0.000 C 
BRANCH  14  15
ATOM     15  C   UNL     1      34.834 -17.509 -24.652  0.00  0.00    +0.000 C 
BRANCH  15  16
ATOM     16  C   UNL     1      34.129 -16.149 -24.625  0.00  0.00    +0.000 C 
BRANCH  16  17
ATOM     17  C   UNL     1      34.402 -15.348 -23.350  0.00  0.00    +0.000 C 
BRANCH  17  18
ATOM     18  C   UNL     1      33.127 -14.889 -22.636  0.00  0.00    +0.000 C 
BRANCH  18  19
ATOM     19  C   UNL     1      33.140 -15.159 -21.130  0.00  0.00    +0.000 C 
ATOM     20  C   UNL     1      34.557 -15.348 -20.612  0.00  0.00    +0.000 C 
ENDBRANCH  18  19
ENDBRANCH  17  18
ENDBRANCH  16  17
ENDBRANCH  15  16
ENDBRANCH  14  15
ENDBRANCH  13  14
ENDBRANCH  12  13
ENDBRANCH  11  12
ENDBRANCH   1  11
TORSDOF 15
ENDMDL
MODEL 2
REMARK VINA RESULT:      -6.7      5.656     10.756
REMARK  Name = 2681
REMARK  15 active torsions:
REMARK  status: ('A' for Active; 'I' for Inactive)
REMARK    1  A    between atoms: C_1  and  C_2
REMARK    2  A    between atoms: C_1  and  C_11
REMARK    3  A    between atoms: C_2  and  C_3
REMARK    4  A    between atoms: C_3  and  C_4
REMARK    5  A    between atoms: C_4  and  C_5
REMARK    6  A    between atoms: C_5  and  C_6
REMARK    7  A    between atoms: C_6  and  N_7
REMARK    8  A    between atoms: C_11  and  C_12
REMARK    9  A    between atoms: C_12  and  C_13
REMARK   10  A    between atoms: C_13  and  C_14
REMARK   11  A    between atoms: C_14  and  C_15
REMARK   12  A    between atoms: C_15  and  C_16
REMARK   13  A    between atoms: C_16  and  C_17
REMARK   14  A    between atoms: C_17  and  C_18
REMARK   15  A    between atoms: C_18  and  C_19
REMARK                            x       y       z     vdW  Elec       q    Type
REMARK                         _______ _______ _______ _____ _____    ______ ____
ROOT
ATOM      1  C   UNL     1      33.927 -14.604 -21.787  0.00  0.00    -0.000 C 
ENDROOT
BRANCH   1   2
ATOM      2  C   UNL     1      32.437 -14.262 -21.891  0.00  0.00    -0.000 C 
BRANCH   2   3
ATOM      3  C   UNL     1      32.177 -12.776 -22.155  0.00  0.00    -0.000 C 
BRANCH   3   4
ATOM      4  C   UNL     1      31.673 -12.023 -20.919  0.00  0.00    -0.002 C 
BRANCH   4   5
ATOM      5  C   UNL     1      31.168 -10.612 -21.237  0.00  0.00    -0.022 C 
BRANCH   5   6
ATOM      6  C   UNL     1      31.810 -10.008 -22.481  0.00  0.00    -0.073 C 
BRANCH   6   7
ATOM      7  N   UNL     1      32.277  -8.627 -22.211  0.00  0.00    +0.386 N 
ATOM      8  C   UNL     1      32.527  -8.418 -20.711  0.00  0.00    -0.096 C 
ATOM      9  C   UNL     1      31.232  -7.597 -22.668  0.00  0.00    -0.096 C 
ATOM     10  C   UNL     1      33.588  -8.336 -22.957  0.00  0.00    -0.096 C 
ENDBRANCH   6   7
ENDBRANCH   5   6
ENDBRANCH   4   5
ENDBRANCH   3   4
ENDBRANCH   2   3
ENDBRANCH   1   2
BRANCH   1  11
ATOM     11  C   UNL     1      34.556 -14.978 -23.131  0.00  0.00    +0.000 C 
BRANCH  11  12
ATOM     12  C   UNL     1      33.545 -15.015 -24.284  0.00  0.00    +0.000 C 
BRANCH  12  13
ATOM     13  C   UNL     1      33.791 -16.086 -25.350  0.00  0.00    +0.000 C 
BRANCH  13  14
ATOM     14  C   UNL     1      34.903 -17.071 -24.980  0.00  0.00    +0.000 C 
BRANCH  14  15
ATOM     15  C   UNL     1      34.372 -18.506 -24.924  0.00  0.00    +0.000 C 
BRANCH  15  16
ATOM     16  C   UNL     1      34.831 -19.281 -23.684  0.00  0.00    +0.000 C 
BRANCH  16  17
ATOM     17  C   UNL     1      35.441 -18.387 -22.601  0.00  0.00    +0.000 C 
BRANCH  17  18
ATOM     18  C   UNL     1      34.655 -18.403 -21.287  0.00  0.00    +0.000 C 
BRANCH  18  19
ATOM     19  C   UNL     1      34.312 -19.812 -20.799  0.00  0.00    +0.000 C 
ATOM     20  C   UNL     1      32.820 -19.963 -20.545  0.00  0.00    +0.000 C 
ENDBRANCH  18  19
ENDBRANCH  17  18
ENDBRANCH  16  17
ENDBRANCH  15  16
ENDBRANCH  14  15
ENDBRANCH  13  14
ENDBRANCH  12  13
ENDBRANCH  11  12
ENDBRANCH   1  11
TORSDOF 15
ENDMDL
MODEL 3
REMARK VINA RESULT:      -6.7      2.484      3.532
REMARK  Name = 2681
REMARK  15 active torsions:
REMARK  status: ('A' for Active; 'I' for Inactive)
REMARK    1  A    between atoms: C_1  and  C_2
REMARK    2  A    between atoms: C_1  and  C_11
REMARK    3  A    between atoms: C_2  and  C_3
REMARK    4  A    between atoms: C_3  and  C_4
REMARK    5  A    between atoms: C_4  and  C_5
REMARK    6  A    between atoms: C_5  and  C_6
REMARK    7  A    between atoms: C_6  and  N_7
REMARK    8  A    between atoms: C_11  and  C_12
REMARK    9  A    between atoms: C_12  and  C_13
REMARK   10  A    between atoms: C_13  and  C_14
REMARK   11  A    between atoms: C_14  and  C_15
REMARK   12  A    between atoms: C_15  and  C_16
REMARK   13  A    between atoms: C_16  and  C_17
REMARK   14  A    between atoms: C_17  and  C_18
REMARK   15  A    between atoms: C_18  and  C_19
REMARK                            x       y       z     vdW  Elec       q    Type
REMARK                         _______ _______ _______ _____ _____    ______ ____
ROOT
ATOM      1  C   UNL     1      33.593 -21.326 -19.623  0.00  0.00    -0.000 C 
ENDROOT
BRANCH   1   2
ATOM      2  C   UNL     1      34.298 -22.500 -18.933  0.00  0.00    -0.000 C 
BRANCH   2   3
ATOM      3  C   UNL     1      33.389 -23.265 -17.967  0.00  0.00    -0.000 C 
BRANCH   3   4
ATOM      4  C   UNL     1      33.925 -23.296 -16.531  0.00  0.00    -0.002 C 
BRANCH   4   5
ATOM      5  C   UNL     1      32.823 -23.461 -15.480  0.00  0.00    -0.022 C 
BRANCH   5   6
ATOM      6  C   UNL     1      31.417 -23.455 -16.074  0.00  0.00    -0.073 C 
BRANCH   6   7
ATOM      7  N   UNL     1      30.405 -23.717 -15.023  0.00  0.00    +0.386 N 
ATOM      8  C   UNL     1      30.982 -23.445 -13.628  0.00  0.00    -0.096 C 
ATOM      9  C   UNL     1      29.937 -25.180 -15.067  0.00  0.00    -0.096 C 
ATOM     10  C   UNL     1      29.174 -22.818 -15.214  0.00  0.00    -0.096 C 
ENDBRANCH   6   7
ENDBRANCH   5   6
ENDBRANCH   4   5
ENDBRANCH   3   4
ENDBRANCH   2   3
ENDBRANCH   1   2
BRANCH   1  11
ATOM     11  C   UNL     1      34.560 -20.374 -20.330  0.00  0.00    +0.000 C 
BRANCH  11  12
ATOM     12  C   UNL     1      33.854 -19.345 -21.222  0.00  0.00    +0.000 C 
BRANCH  12  13
ATOM     13  C   UNL     1      34.656 -18.081 -21.543  0.00  0.00    +0.000 C 
BRANCH  13  14
ATOM     14  C   UNL     1      35.535 -18.216 -22.790  0.00  0.00    +0.000 C 
BRANCH  14  15
ATOM     15  C   UNL     1      34.838 -19.051 -23.867  0.00  0.00    +0.000 C 
BRANCH  15  16
ATOM     16  C   UNL     1      34.437 -18.241 -25.105  0.00  0.00    +0.000 C 
BRANCH  16  17
ATOM     17  C   UNL     1      34.793 -16.756 -25.000  0.00  0.00    +0.000 C 
BRANCH  17  18
ATOM     18  C   UNL     1      33.619 -15.827 -25.325  0.00  0.00    +0.000 C 
BRANCH  18  19
ATOM     19  C   UNL     1      33.591 -14.558 -24.473  0.00  0.00    +0.000 C 
ATOM     20  C   UNL     1      34.319 -14.760 -23.152  0.00  0.00    +0.000 C 
ENDBRANCH  18  19
ENDBRANCH  17  18
ENDBRANCH  16  17
ENDBRANCH  15  16
ENDBRANCH  14  15
ENDBRANCH  13  14
ENDBRANCH  12  13
ENDBRANCH  11  12
ENDBRANCH   1  11
TORSDOF 15
ENDMDL
MODEL 4
REMARK VINA RESULT:      -6.7      5.026      9.027
REMARK  Name = 2681
REMARK  15 active torsions:
REMARK  status: ('A' for Active; 'I' for Inactive)
REMARK    1  A    between atoms: C_1  and  C_2
REMARK    2  A    between atoms: C_1  and  C_11
REMARK    3  A    between atoms: C_2  and  C_3
REMARK    4  A    between atoms: C_3  and  C_4
REMARK    5  A    between atoms: C_4  and  C_5
REMARK    6  A    between atoms: C_5  and  C_6
REMARK    7  A    between atoms: C_6  and  N_7
REMARK    8  A    between atoms: C_11  and  C_12
REMARK    9  A    between atoms: C_12  and  C_13
REMARK   10  A    between atoms: C_13  and  C_14
REMARK   11  A    between atoms: C_14  and  C_15
REMARK   12  A    between atoms: C_15  and  C_16
REMARK   13  A    between atoms: C_16  and  C_17
REMARK   14  A    between atoms: C_17  and  C_18
REMARK   15  A    between atoms: C_18  and  C_19
REMARK                            x       y       z     vdW  Elec       q    Type
REMARK                         _______ _______ _______ _____ _____    ______ ____
ROOT
ATOM      1  C   UNL     1      32.154 -13.052 -21.192  0.00  0.00    -0.000 C 
ENDROOT
BRANCH   1   2
ATOM      2  C   UNL     1      32.453 -13.295 -22.676  0.00  0.00    -0.000 C 
BRANCH   2   3
ATOM      3  C   UNL     1      33.835 -13.907 -22.919  0.00  0.00    -0.000 C 
BRANCH   3   4
ATOM      4  C   UNL     1      34.347 -14.731 -21.732  0.00  0.00    -0.002 C 
BRANCH   4   5
ATOM      5  C   UNL     1      34.828 -16.130 -22.131  0.00  0.00    -0.022 C 
BRANCH   5   6
ATOM      6  C   UNL     1      34.127 -17.249 -21.368  0.00  0.00    -0.073 C 
BRANCH   6   7
ATOM      7  N   UNL     1      34.716 -18.565 -21.712  0.00  0.00    +0.386 N 
ATOM      8  C   UNL     1      33.902 -19.708 -21.091  0.00  0.00    -0.096 C 
ATOM      9  C   UNL     1      36.158 -18.671 -21.194  0.00  0.00    -0.096 C 
ATOM     10  C   UNL     1      34.742 -18.771 -23.234  0.00  0.00    -0.096 C 
ENDBRANCH   6   7
ENDBRANCH   5   6
ENDBRANCH   4   5
ENDBRANCH   3   4
ENDBRANCH   2   3
ENDBRANCH   1   2
BRANCH   1  11
ATOM     11  C   UNL     1      31.368 -11.764 -20.938  0.00  0.00    +0.000 C 
BRANCH  11  12
ATOM     12  C   UNL     1      31.555 -11.209 -19.521  0.00  0.00    +0.000 C 
BRANCH  12  13
ATOM     13  C   UNL     1      31.786  -9.698 -19.423  0.00  0.00    +0.000 C 
BRANCH  13  14
ATOM     14  C   UNL     1      32.228  -9.061 -20.744  0.00  0.00    +0.000 C 
BRANCH  14  15
ATOM     15  C   UNL     1      32.547  -7.575 -20.559  0.00  0.00    +0.000 C 
BRANCH  15  16
ATOM     16  C   UNL     1      32.691  -6.811 -21.879  0.00  0.00    +0.000 C 
BRANCH  16  17
ATOM     17  C   UNL     1      32.994  -7.718 -23.075  0.00  0.00    +0.000 C 
BRANCH  17  18
ATOM     18  C   UNL     1      34.477  -7.736 -23.461  0.00  0.00    +0.000 C 
BRANCH  18  19
ATOM     19  C   UNL     1      34.911  -9.031 -24.151  0.00  0.00    +0.000 C 
ATOM     20  C   UNL     1      33.860 -10.120 -23.999  0.00  0.00    +0.000 C 
ENDBRANCH  18  19
ENDBRANCH  17  18
ENDBRANCH  16  17
ENDBRANCH  15  16
ENDBRANCH  14  15
ENDBRANCH  13  14
ENDBRANCH  12  13
ENDBRANCH  11  12
ENDBRANCH   1  11
TORSDOF 15
ENDMDL
MODEL 5
REMARK VINA RESULT:      -6.6      0.836      2.138
REMARK  Name = 2681
REMARK  15 active torsions:
REMARK  status: ('A' for Active; 'I' for Inactive)
REMARK    1  A    between atoms: C_1  and  C_2
REMARK    2  A    between atoms: C_1  and  C_11
REMARK    3  A    between atoms: C_2  and  C_3
REMARK    4  A    between atoms: C_3  and  C_4
REMARK    5  A    between atoms: C_4  and  C_5
REMARK    6  A    between atoms: C_5  and  C_6
REMARK    7  A    between atoms: C_6  and  N_7
REMARK    8  A    between atoms: C_11  and  C_12
REMARK    9  A    between atoms: C_12  and  C_13
REMARK   10  A    between atoms: C_13  and  C_14
REMARK   11  A    between atoms: C_14  and  C_15
REMARK   12  A    between atoms: C_15  and  C_16
REMARK   13  A    between atoms: C_16  and  C_17
REMARK   14  A    between atoms: C_17  and  C_18
REMARK   15  A    between atoms: C_18  and  C_19
REMARK                            x       y       z     vdW  Elec       q    Type
REMARK                         _______ _______ _______ _____ _____    ______ ____
ROOT
ATOM      1  C   UNL     1      35.008 -20.997 -19.881  0.00  0.00    -0.000 C 
ENDROOT
BRANCH   1   2
ATOM      2  C   UNL     1      34.889 -22.252 -19.009  0.00  0.00    -0.000 C 
BRANCH   2   3
ATOM      3  C   UNL     1      33.487 -22.450 -18.426  0.00  0.00    -0.000 C 
BRANCH   3   4
ATOM      4  C   UNL     1      33.442 -23.497 -17.308  0.00  0.00    -0.002 C 
BRANCH   4   5
ATOM      5  C   UNL     1      34.245 -23.090 -16.068  0.00  0.00    -0.022 C 
BRANCH   5   6
ATOM      6  C   UNL     1      34.859 -24.276 -15.331  0.00  0.00    -0.073 C 
BRANCH   6   7
ATOM      7  N   UNL     1      36.257 -23.980 -14.939  0.00  0.00    +0.386 N 
ATOM      8  C   UNL     1      36.891 -22.963 -15.897  0.00  0.00    -0.096 C 
ATOM      9  C   UNL     1      37.114 -25.255 -14.963  0.00  0.00    -0.096 C 
ATOM     10  C   UNL     1      36.315 -23.397 -13.518  0.00  0.00    -0.096 C 
ENDBRANCH   6   7
ENDBRANCH   5   6
ENDBRANCH   4   5
ENDBRANCH   3   4
ENDBRANCH   2   3
ENDBRANCH   1   2
BRANCH   1  11
ATOM     11  C   UNL     1      33.653 -20.425 -20.304  0.00  0.00    +0.000 C 
BRANCH  11  12
ATOM     12  C   UNL     1      33.751 -19.435 -21.471  0.00  0.00    +0.000 C 
BRANCH  12  13
ATOM     13  C   UNL     1      35.164 -18.967 -21.830  0.00  0.00    +0.000 C 
BRANCH  13  14
ATOM     14  C   UNL     1      35.372 -17.460 -21.649  0.00  0.00    +0.000 C 
BRANCH  14  15
ATOM     15  C   UNL     1      34.060 -16.764 -21.276  0.00  0.00    +0.000 C 
BRANCH  15  16
ATOM     16  C   UNL     1      33.971 -15.318 -21.774  0.00  0.00    +0.000 C 
BRANCH  16  17
ATOM     17  C   UNL     1      34.610 -15.109 -23.149  0.00  0.00    +0.000 C 
BRANCH  17  18
ATOM     18  C   UNL     1      33.586 -14.855 -24.260  0.00  0.00    +0.000 C 
BRANCH  18  19
ATOM     19  C   UNL     1      33.681 -15.852 -25.417  0.00  0.00    +0.000 C 
ATOM     20  C   UNL     1      34.747 -16.904 -25.156  0.00  0.00    +0.000 C 
ENDBRANCH  18  19
ENDBRANCH  17  18
ENDBRANCH  16  17
ENDBRANCH  15  16
ENDBRANCH  14  15
ENDBRANCH  13  14
ENDBRANCH  12  13
ENDBRANCH  11  12
ENDBRANCH   1  11
TORSDOF 15
ENDMDL
MODEL 6
REMARK VINA RESULT:      -6.6      6.581     11.587
REMARK  Name = 2681
REMARK  15 active torsions:
REMARK  status: ('A' for Active; 'I' for Inactive)
REMARK    1  A    between atoms: C_1  and  C_2
REMARK    2  A    between atoms: C_1  and  C_11
REMARK    3  A    between atoms: C_2  and  C_3
REMARK    4  A    between atoms: C_3  and  C_4
REMARK    5  A    between atoms: C_4  and  C_5
REMARK    6  A    between atoms: C_5  and  C_6
REMARK    7  A    between atoms: C_6  and  N_7
REMARK    8  A    between atoms: C_11  and  C_12
REMARK    9  A    between atoms: C_12  and  C_13
REMARK   10  A    between atoms: C_13  and  C_14
REMARK   11  A    between atoms: C_14  and  C_15
REMARK   12  A    between atoms: C_15  and  C_16
REMARK   13  A    between atoms: C_16  and  C_17
REMARK   14  A    between atoms: C_17  and  C_18
REMARK   15  A    between atoms: C_18  and  C_19
REMARK                            x       y       z     vdW  Elec       q    Type
REMARK                         _______ _______ _______ _____ _____    ______ ____
ROOT
ATOM      1  C   UNL     1      32.101 -12.903 -21.652  0.00  0.00    -0.000 C 
ENDROOT
BRANCH   1   2
ATOM      2  C   UNL     1      31.844 -12.327 -20.255  0.00  0.00    -0.000 C 
BRANCH   2   3
ATOM      3  C   UNL     1      31.013 -11.042 -20.276  0.00  0.00    -0.000 C 
BRANCH   3   4
ATOM      4  C   UNL     1      31.622  -9.916 -19.432  0.00  0.00    -0.002 C 
BRANCH   4   5
ATOM      5  C   UNL     1      32.289  -8.824 -20.276  0.00  0.00    -0.022 C 
BRANCH   5   6
ATOM      6  C   UNL     1      31.850  -8.838 -21.736  0.00  0.00    -0.073 C 
BRANCH   6   7
ATOM      7  N   UNL     1      32.226  -7.571 -22.407  0.00  0.00    +0.386 N 
ATOM      8  C   UNL     1      33.732  -7.532 -22.697  0.00  0.00    -0.096 C 
ATOM      9  C   UNL     1      31.879  -6.361 -21.526  0.00  0.00    -0.096 C 
ATOM     10  C   UNL     1      31.480  -7.416 -23.742  0.00  0.00    -0.096 C 
ENDBRANCH   6   7
ENDBRANCH   5   6
ENDBRANCH   4   5
ENDBRANCH   3   4
ENDBRANCH   2   3
ENDBRANCH   1   2
BRANCH   1  11
ATOM     11  C   UNL     1      32.619 -14.343 -21.626  0.00  0.00    +0.000 C 
BRANCH  11  12
ATOM     12  C   UNL     1      34.060 -14.478 -22.132  0.00  0.00    +0.000 C 
BRANCH  12  13
ATOM     13  C   UNL     1      34.797 -15.752 -21.710  0.00  0.00    +0.000 C 
BRANCH  13  14
ATOM     14  C   UNL     1      33.878 -16.812 -21.094  0.00  0.00    +0.000 C 
BRANCH  14  15
ATOM     15  C   UNL     1      34.285 -18.219 -21.540  0.00  0.00    +0.000 C 
BRANCH  15  16
ATOM     16  C   UNL     1      35.294 -18.228 -22.693  0.00  0.00    +0.000 C 
BRANCH  16  17
ATOM     17  C   UNL     1      34.887 -19.145 -23.849  0.00  0.00    +0.000 C 
BRANCH  17  18
ATOM     18  C   UNL     1      34.390 -18.382 -25.082  0.00  0.00    +0.000 C 
BRANCH  18  19
ATOM     19  C   UNL     1      34.853 -16.925 -25.125  0.00  0.00    +0.000 C 
ATOM     20  C   UNL     1      33.719 -15.994 -25.525  0.00  0.00    +0.000 C 
ENDBRANCH  18  19
ENDBRANCH  17  18
ENDBRANCH  16  17
ENDBRANCH  15  16
ENDBRANCH  14  15
ENDBRANCH  13  14
ENDBRANCH  12  13
ENDBRANCH  11  12
ENDBRANCH   1  11
TORSDOF 15
ENDMDL
MODEL 7
REMARK VINA RESULT:      -6.6      1.349      2.524
REMARK  Name = 2681
REMARK  15 active torsions:
REMARK  status: ('A' for Active; 'I' for Inactive)
REMARK    1  A    between atoms: C_1  and  C_2
REMARK    2  A    between atoms: C_1  and  C_11
REMARK    3  A    between atoms: C_2  and  C_3
REMARK    4  A    between atoms: C_3  and  C_4
REMARK    5  A    between atoms: C_4  and  C_5
REMARK    6  A    between atoms: C_5  and  C_6
REMARK    7  A    between atoms: C_6  and  N_7
REMARK    8  A    between atoms: C_11  and  C_12
REMARK    9  A    between atoms: C_12  and  C_13
REMARK   10  A    between atoms: C_13  and  C_14
REMARK   11  A    between atoms: C_14  and  C_15
REMARK   12  A    between atoms: C_15  and  C_16
REMARK   13  A    between atoms: C_16  and  C_17
REMARK   14  A    between atoms: C_17  and  C_18
REMARK   15  A    between atoms: C_18  and  C_19
REMARK                            x       y       z     vdW  Elec       q    Type
REMARK                         _______ _______ _______ _____ _____    ______ ____
ROOT
ATOM      1  C   UNL     1      34.101 -22.745 -18.636  0.00  0.00    -0.000 C 
ENDROOT
BRANCH   1   2
ATOM      2  C   UNL     1      34.960 -22.585 -17.376  0.00  0.00    -0.000 C 
BRANCH   2   3
ATOM      3  C   UNL     1      36.328 -21.958 -17.655  0.00  0.00    -0.000 C 
BRANCH   3   4
ATOM      4  C   UNL     1      37.184 -21.792 -16.393  0.00  0.00    -0.002 C 
BRANCH   4   5
ATOM      5  C   UNL     1      37.557 -23.126 -15.739  0.00  0.00    -0.022 C 
BRANCH   5   6
ATOM      6  C   UNL     1      37.094 -23.237 -14.289  0.00  0.00    -0.073 C 
BRANCH   6   7
ATOM      7  N   UNL     1      36.884 -24.655 -13.915  0.00  0.00    +0.386 N 
ATOM      8  C   UNL     1      38.224 -25.356 -13.653  0.00  0.00    -0.096 C 
ATOM      9  C   UNL     1      36.160 -25.416 -15.036  0.00  0.00    -0.096 C 
ATOM     10  C   UNL     1      36.033 -24.764 -12.640  0.00  0.00    -0.096 C 
ENDBRANCH   6   7
ENDBRANCH   5   6
ENDBRANCH   4   5
ENDBRANCH   3   4
ENDBRANCH   2   3
ENDBRANCH   1   2
BRANCH   1  11
ATOM     11  C   UNL     1      34.274 -21.596 -19.633  0.00  0.00    +0.000 C 
BRANCH  11  12
ATOM     12  C   UNL     1      33.034 -20.701 -19.747  0.00  0.00    +0.000 C 
BRANCH  12  13
ATOM     13  C   UNL     1      33.090 -19.622 -20.832  0.00  0.00    +0.000 C 
BRANCH  13  14
ATOM     14  C   UNL     1      34.413 -19.601 -21.604  0.00  0.00    +0.000 C 
BRANCH  14  15
ATOM     15  C   UNL     1      35.243 -18.368 -21.239  0.00  0.00    +0.000 C 
BRANCH  15  16
ATOM     16  C   UNL     1      35.552 -17.462 -22.436  0.00  0.00    +0.000 C 
BRANCH  16  17
ATOM     17  C   UNL     1      34.814 -16.121 -22.389  0.00  0.00    +0.000 C 
BRANCH  17  18
ATOM     18  C   UNL     1      34.417 -15.697 -20.971  0.00  0.00    +0.000 C 
BRANCH  18  19
ATOM     19  C   UNL     1      32.918 -15.442 -20.809  0.00  0.00    +0.000 C 
ATOM     20  C   UNL     1      32.615 -13.954 -20.721  0.00  0.00    +0.000 C 
ENDBRANCH  18  19
ENDBRANCH  17  18
ENDBRANCH  16  17
ENDBRANCH  15  16
ENDBRANCH  14  15
ENDBRANCH  13  14
ENDBRANCH  12  13
ENDBRANCH  11  12
ENDBRANCH   1  11
TORSDOF 15
ENDMDL
MODEL 8
REMARK VINA RESULT:      -6.6      7.000     11.614
REMARK  Name = 2681
REMARK  15 active torsions:
REMARK  status: ('A' for Active; 'I' for Inactive)
REMARK    1  A    between atoms: C_1  and  C_2
REMARK    2  A    between atoms: C_1  and  C_11
REMARK    3  A    between atoms: C_2  and  C_3
REMARK    4  A    between atoms: C_3  and  C_4
REMARK    5  A    between atoms: C_4  and  C_5
REMARK    6  A    between atoms: C_5  and  C_6
REMARK    7  A    between atoms: C_6  and  N_7
REMARK    8  A    between atoms: C_11  and  C_12
REMARK    9  A    between atoms: C_12  and  C_13
REMARK   10  A    between atoms: C_13  and  C_14
REMARK   11  A    between atoms: C_14  and  C_15
REMARK   12  A    between atoms: C_15  and  C_16
REMARK   13  A    between atoms: C_16  and  C_17
REMARK   14  A    between atoms: C_17  and  C_18
REMARK   15  A    between atoms: C_18  and  C_19
REMARK                            x       y       z     vdW  Elec       q    Type
REMARK                         _______ _______ _______ _____ _____    ______ ____
ROOT
ATOM      1  C   UNL     1      31.891 -12.345 -21.613  0.00  0.00    -0.000 C 
ENDROOT
BRANCH   1   2
ATOM      2  C   UNL     1      30.899 -11.417 -20.903  0.00  0.00    -0.000 C 
BRANCH   2   3
ATOM      3  C   UNL     1      31.426 -10.878 -19.570  0.00  0.00    -0.000 C 
BRANCH   3   4
ATOM      4  C   UNL     1      32.178  -9.550 -19.712  0.00  0.00    -0.002 C 
BRANCH   4   5
ATOM      5  C   UNL     1      31.881  -8.828 -21.031  0.00  0.00    -0.022 C 
BRANCH   5   6
ATOM      6  C   UNL     1      32.962  -7.826 -21.426  0.00  0.00    -0.073 C 
BRANCH   6   7
ATOM      7  N   UNL     1      33.167  -7.830 -22.894  0.00  0.00    +0.386 N 
ATOM      8  C   UNL     1      34.661  -7.772 -23.238  0.00  0.00    -0.096 C 
ATOM      9  C   UNL     1      32.481  -6.620 -23.546  0.00  0.00    -0.096 C 
ATOM     10  C   UNL     1      32.583  -9.104 -23.524  0.00  0.00    -0.096 C 
ENDBRANCH   6   7
ENDBRANCH   5   6
ENDBRANCH   4   5
ENDBRANCH   3   4
ENDBRANCH   2   3
ENDBRANCH   1   2
BRANCH   1  11
ATOM     11  C   UNL     1      32.356 -13.513 -20.740  0.00  0.00    +0.000 C 
BRANCH  11  12
ATOM     12  C   UNL     1      32.440 -14.842 -21.501  0.00  0.00    +0.000 C 
BRANCH  12  13
ATOM     13  C   UNL     1      33.849 -15.413 -21.689  0.00  0.00    +0.000 C 
BRANCH  13  14
ATOM     14  C   UNL     1      34.587 -14.829 -22.898  0.00  0.00    +0.000 C 
BRANCH  14  15
ATOM     15  C   UNL     1      33.632 -14.618 -24.076  0.00  0.00    +0.000 C 
BRANCH  15  16
ATOM     16  C   UNL     1      33.642 -15.770 -25.087  0.00  0.00    +0.000 C 
BRANCH  16  17
ATOM     17  C   UNL     1      34.830 -16.720 -24.912  0.00  0.00    +0.000 C 
BRANCH  17  18
ATOM     18  C   UNL     1      34.455 -18.196 -25.080  0.00  0.00    +0.000 C 
BRANCH  18  19
ATOM     19  C   UNL     1      34.680 -19.029 -23.817  0.00  0.00    +0.000 C 
ATOM     20  C   UNL     1      35.743 -18.408 -22.924  0.00  0.00    +0.000 C 
ENDBRANCH  18  19
ENDBRANCH  17  18
ENDBRANCH  16  17
ENDBRANCH  15  16
ENDBRANCH  14  15
ENDBRANCH  13  14
ENDBRANCH  12  13
ENDBRANCH  11  12
ENDBRANCH   1  11
TORSDOF 15
ENDMDL
MODEL 9
REMARK VINA RESULT:      -6.6      1.222      2.098
REMARK  Name = 2681
REMARK  15 active torsions:
REMARK  status: ('A' for Active; 'I' for Inactive)
REMARK    1  A    between atoms: C_1  and  C_2
REMARK    2  A    between atoms: C_1  and  C_11
REMARK    3  A    between atoms: C_2  and  C_3
REMARK    4  A    between atoms: C_3  and  C_4
REMARK    5  A    between atoms: C_4  and  C_5
REMARK    6  A    between atoms: C_5  and  C_6
REMARK    7  A    between atoms: C_6  and  N_7
REMARK    8  A    between atoms: C_11  and  C_12
REMARK    9  A    between atoms: C_12  and  C_13
REMARK   10  A    between atoms: C_13  and  C_14
REMARK   11  A    between atoms: C_14  and  C_15
REMARK   12  A    between atoms: C_15  and  C_16
REMARK   13  A    between atoms: C_16  and  C_17
REMARK   14  A    between atoms: C_17  and  C_18
REMARK   15  A    between atoms: C_18  and  C_19
REMARK                            x       y       z     vdW  Elec       q    Type
REMARK                         _______ _______ _______ _____ _____    ______ ____
ROOT
ATOM      1  C   UNL     1      35.471 -22.021 -18.486  0.00  0.00    -0.000 C 
ENDROOT
BRANCH   1   2
ATOM      2  C   UNL     1      36.787 -21.817 -17.726  0.00  0.00    -0.000 C 
BRANCH   2   3
ATOM      3  C   UNL     1      36.680 -22.154 -16.236  0.00  0.00    -0.000 C 
BRANCH   3   4
ATOM      4  C   UNL     1      35.369 -22.859 -15.870  0.00  0.00    -0.002 C 
BRANCH   4   5
ATOM      5  C   UNL     1      35.581 -24.244 -15.249  0.00  0.00    -0.022 C 
BRANCH   5   6
ATOM      6  C   UNL     1      36.617 -24.250 -14.130  0.00  0.00    -0.073 C 
BRANCH   6   7
ATOM      7  N   UNL     1      37.370 -25.527 -14.122  0.00  0.00    +0.386 N 
ATOM      8  C   UNL     1      36.738 -26.541 -15.085  0.00  0.00    -0.096 C 
ATOM      9  C   UNL     1      37.380 -26.147 -12.716  0.00  0.00    -0.096 C 
ATOM     10  C   UNL     1      38.828 -25.305 -14.553  0.00  0.00    -0.096 C 
ENDBRANCH   6   7
ENDBRANCH   5   6
ENDBRANCH   4   5
ENDBRANCH   3   4
ENDBRANCH   2   3
ENDBRANCH   1   2
BRANCH   1  11
ATOM     11  C   UNL     1      35.314 -21.080 -19.683  0.00  0.00    +0.000 C 
BRANCH  11  12
ATOM     12  C   UNL     1      33.851 -20.751 -20.007  0.00  0.00    +0.000 C 
BRANCH  12  13
ATOM     13  C   UNL     1      33.631 -19.600 -20.993  0.00  0.00    +0.000 C 
BRANCH  13  14
ATOM     14  C   UNL     1      34.882 -18.747 -21.224  0.00  0.00    +0.000 C 
BRANCH  14  15
ATOM     15  C   UNL     1      35.255 -18.709 -22.709  0.00  0.00    +0.000 C 
BRANCH  15  16
ATOM     16  C   UNL     1      34.926 -17.376 -23.389  0.00  0.00    +0.000 C 
BRANCH  16  17
ATOM     17  C   UNL     1      34.820 -16.204 -22.409  0.00  0.00    +0.000 C 
BRANCH  17  18
ATOM     18  C   UNL     1      33.967 -15.047 -22.938  0.00  0.00    +0.000 C 
BRANCH  18  19
ATOM     19  C   UNL     1      32.777 -14.707 -22.040  0.00  0.00    +0.000 C 
ATOM     20  C   UNL     1      32.686 -15.656 -20.855  0.00  0.00    +0.000 C 
ENDBRANCH  18  19
ENDBRANCH  17  18
ENDBRANCH  16  17
ENDBRANCH  15  16
ENDBRANCH  14  15
ENDBRANCH  13  14
ENDBRANCH  12  13
ENDBRANCH  11  12
ENDBRANCH   1  11
TORSDOF 15
ENDMDL
