MODEL 1
REMARK VINA RESULT:      -2.8      0.000      0.000
REMARK  Name = 4474585
REMARK  1 active torsions:
REMARK  status: ('A' for Active; 'I' for Inactive)
REMARK    1  A    between atoms: N_1  and  C_3
REMARK                            x       y       z     vdW  Elec       q    Type
REMARK                         _______ _______ _______ _____ _____    ______ ____
ROOT
ATOM      1  N   UNL     1      26.677 -21.691 -17.220  0.00  0.00    -0.374 NA
ATOM      2  C   UNL     1      26.022 -21.150 -17.939  0.00  0.00    +0.129 C 
ENDROOT
BRANCH   1   3
ATOM      3  C   UNL     1      27.516 -22.386 -16.300  0.00  0.00    +0.200 C 
ATOM      4  C   UNL     1      28.219 -23.529 -16.998  0.00  0.00    +0.045 C 
ENDBRANCH   1   3
TORSDOF 1
ENDMDL
MODEL 2
REMARK VINA RESULT:      -2.6     16.070     16.347
REMARK  Name = 4474585
REMARK  1 active torsions:
REMARK  status: ('A' for Active; 'I' for Inactive)
REMARK    1  A    between atoms: N_1  and  C_3
REMARK                            x       y       z     vdW  Elec       q    Type
REMARK                         _______ _______ _______ _____ _____    ______ ____
ROOT
ATOM      1  N   UNL     1      41.171 -15.166 -16.653  0.00  0.00    -0.374 NA
ATOM      2  C   UNL     1      41.131 -15.805 -15.743  0.00  0.00    +0.129 C 
ENDROOT
BRANCH   1   3
ATOM      3  C   UNL     1      41.222 -14.346 -17.818  0.00  0.00    +0.200 C 
ATOM      4  C   UNL     1      42.005 -13.083 -17.532  0.00  0.00    +0.045 C 
ENDBRANCH   1   3
TORSDOF 1
ENDMDL
MODEL 3
REMARK VINA RESULT:      -2.6      8.580      8.919
REMARK  Name = 4474585
REMARK  1 active torsions:
REMARK  status: ('A' for Active; 'I' for Inactive)
REMARK    1  A    between atoms: N_1  and  C_3
REMARK                            x       y       z     vdW  Elec       q    Type
REMARK                         _______ _______ _______ _____ _____    ______ ____
ROOT
ATOM      1  N   UNL     1      35.306 -19.540 -20.694  0.00  0.00    -0.374 NA
ATOM      2  C   UNL     1      35.973 -18.745 -21.094  0.00  0.00    +0.129 C 
ENDROOT
BRANCH   1   3
ATOM      3  C   UNL     1      34.452 -20.561 -20.182  0.00  0.00    +0.200 C 
ATOM      4  C   UNL     1      33.003 -20.200 -20.429  0.00  0.00    +0.045 C 
ENDBRANCH   1   3
TORSDOF 1
ENDMDL
MODEL 4
REMARK VINA RESULT:      -2.6      8.345      8.873
REMARK  Name = 4474585
REMARK  1 active torsions:
REMARK  status: ('A' for Active; 'I' for Inactive)
REMARK    1  A    between atoms: N_1  and  C_3
REMARK                            x       y       z     vdW  Elec       q    Type
REMARK                         _______ _______ _______ _____ _____    ______ ____
ROOT
ATOM      1  N   UNL     1      35.411 -20.358 -20.235  0.00  0.00    -0.374 NA
ATOM      2  C   UNL     1      36.258 -20.915 -19.776  0.00  0.00    +0.129 C 
ENDROOT
BRANCH   1   3
ATOM      3  C   UNL     1      34.326 -19.643 -20.824  0.00  0.00    +0.200 C 
ATOM      4  C   UNL     1      33.008 -20.242 -20.384  0.00  0.00    +0.045 C 
ENDBRANCH   1   3
TORSDOF 1
ENDMDL
MODEL 5
REMARK VINA RESULT:      -2.6      7.000      7.504
REMARK  Name = 4474585
REMARK  1 active torsions:
REMARK  status: ('A' for Active; 'I' for Inactive)
REMARK    1  A    between atoms: N_1  and  C_3
REMARK                            x       y       z     vdW  Elec       q    Type
REMARK                         _______ _______ _______ _____ _____    ______ ____
ROOT
ATOM      1  N   UNL     1      33.178 -21.173 -19.694  0.00  0.00    -0.374 NA
ATOM      2  C   UNL     1      33.442 -22.019 -19.021  0.00  0.00    +0.129 C 
ENDROOT
BRANCH   1   3
ATOM      3  C   UNL     1      32.838 -20.089 -20.556  0.00  0.00    +0.200 C 
ATOM      4  C   UNL     1      34.093 -19.386 -21.026  0.00  0.00    +0.045 C 
ENDBRANCH   1   3
TORSDOF 1
ENDMDL
MODEL 6
REMARK VINA RESULT:      -2.6      8.698      8.920
REMARK  Name = 4474585
REMARK  1 active torsions:
REMARK  status: ('A' for Active; 'I' for Inactive)
REMARK    1  A    between atoms: N_1  and  C_3
REMARK                            x       y       z     vdW  Elec       q    Type
REMARK                         _______ _______ _______ _____ _____    ______ ____
ROOT
ATOM      1  N   UNL     1      34.601 -19.478 -22.100  0.00  0.00    -0.374 NA
ATOM      2  C   UNL     1      34.767 -19.131 -23.144  0.00  0.00    +0.129 C 
ENDROOT
BRANCH   1   3
ATOM      3  C   UNL     1      34.388 -19.924 -20.762  0.00  0.00    +0.200 C 
ATOM      4  C   UNL     1      32.910 -20.125 -20.509  0.00  0.00    +0.045 C 
ENDBRANCH   1   3
TORSDOF 1
ENDMDL
MODEL 7
REMARK VINA RESULT:      -2.6      6.787      7.090
REMARK  Name = 4474585
REMARK  1 active torsions:
REMARK  status: ('A' for Active; 'I' for Inactive)
REMARK    1  A    between atoms: N_1  and  C_3
REMARK                            x       y       z     vdW  Elec       q    Type
REMARK                         _______ _______ _______ _____ _____    ______ ____
ROOT
ATOM      1  N   UNL     1      33.090 -20.840 -19.979  0.00  0.00    -0.374 NA
ATOM      2  C   UNL     1      32.754 -19.991 -20.614  0.00  0.00    +0.129 C 
ENDROOT
BRANCH   1   3
ATOM      3  C   UNL     1      33.520 -21.931 -19.166  0.00  0.00    +0.200 C 
ATOM      4  C   UNL     1      35.032 -21.969 -19.105  0.00  0.00    +0.045 C 
ENDBRANCH   1   3
TORSDOF 1
ENDMDL
MODEL 8
REMARK VINA RESULT:      -2.5     12.254     12.469
REMARK  Name = 4474585
REMARK  1 active torsions:
REMARK  status: ('A' for Active; 'I' for Inactive)
REMARK    1  A    between atoms: N_1  and  C_3
REMARK                            x       y       z     vdW  Elec       q    Type
REMARK                         _______ _______ _______ _____ _____    ______ ____
ROOT
ATOM      1  N   UNL     1      33.781 -15.857 -25.890  0.00  0.00    -0.374 NA
ATOM      2  C   UNL     1      33.101 -15.113 -26.361  0.00  0.00    +0.129 C 
ENDROOT
BRANCH   1   3
ATOM      3  C   UNL     1      34.653 -16.809 -25.285  0.00  0.00    +0.200 C 
ATOM      4  C   UNL     1      34.912 -16.434 -23.842  0.00  0.00    +0.045 C 
ENDBRANCH   1   3
TORSDOF 1
ENDMDL
MODEL 9
REMARK VINA RESULT:      -2.5     15.656     15.858
REMARK  Name = 4474585
REMARK  1 active torsions:
REMARK  status: ('A' for Active; 'I' for Inactive)
REMARK    1  A    between atoms: N_1  and  C_3
REMARK                            x       y       z     vdW  Elec       q    Type
REMARK                         _______ _______ _______ _____ _____    ______ ____
ROOT
ATOM      1  N   UNL     1      41.377 -15.034 -17.422  0.00  0.00    -0.374 NA
ATOM      2  C   UNL     1      41.177 -14.236 -18.170  0.00  0.00    +0.129 C 
ENDROOT
BRANCH   1   3
ATOM      3  C   UNL     1      41.636 -16.058 -16.463  0.00  0.00    +0.200 C 
ATOM      4  C   UNL     1      41.010 -15.695 -15.133  0.00  0.00    +0.045 C 
ENDBRANCH   1   3
TORSDOF 1
ENDMDL
