MODEL 1
REMARK VINA RESULT:      -6.7      0.000      0.000
REMARK  Name = 446854
REMARK  4 active torsions:
REMARK  status: ('A' for Active; 'I' for Inactive)
REMARK    1  A    between atoms: N_1  and  C_3
REMARK    2  A    between atoms: N_1  and  C_9
REMARK    3  A    between atoms: C_9  and  C_10
REMARK    4  A    between atoms: C_10  and  S_11
REMARK                            x       y       z     vdW  Elec       q    Type
REMARK                         _______ _______ _______ _____ _____    ______ ____
ROOT
ATOM      1  N   UNL     1      34.197 -18.532 -21.615  0.00  0.00    -0.331 N 
ATOM      2  H   UNL     1      33.330 -18.067 -21.584  0.00  0.00    +0.147 HD
ENDROOT
BRANCH   1   3
ATOM      3  C   UNL     1      34.360 -19.665 -20.833  0.00  0.00    +0.045 C 
ATOM      4  C   UNL     1      33.248 -20.339 -20.297  0.00  0.00    +0.014 C 
ATOM      5  C   UNL     1      35.644 -20.171 -20.555  0.00  0.00    +0.014 C 
ATOM      6  C   UNL     1      33.412 -21.478 -19.510  0.00  0.00    +0.001 C 
ATOM      7  C   UNL     1      35.809 -21.310 -19.769  0.00  0.00    +0.001 C 
ATOM      8  C   UNL     1      34.692 -21.965 -19.246  0.00  0.00    +0.000 C 
ENDBRANCH   1   3
BRANCH   1   9
ATOM      9  C   UNL     1      35.227 -17.994 -22.472  0.00  0.00    +0.113 C 
BRANCH   9  10
ATOM     10  C   UNL     1      34.898 -16.568 -22.872  0.00  0.00    +0.179 C 
BRANCH  10  11
ATOM     11  S   UNL     1      34.218 -15.633 -21.538  0.00  0.00    +0.024 S 
ATOM     12  O   UNL     1      34.546 -14.149 -22.129  0.00  0.00    -0.069 OA
ATOM     13  O   UNL     1      35.026 -15.853 -20.352  0.00  0.00    -0.069 OA
ATOM     14  O   UNL     1      32.780 -15.821 -21.522  0.00  0.00    -0.069 OA
ENDBRANCH  10  11
ENDBRANCH   9  10
ENDBRANCH   1   9
TORSDOF 4
ENDMDL
MODEL 2
REMARK VINA RESULT:      -6.7      0.371      1.835
REMARK  Name = 446854
REMARK  4 active torsions:
REMARK  status: ('A' for Active; 'I' for Inactive)
REMARK    1  A    between atoms: N_1  and  C_3
REMARK    2  A    between atoms: N_1  and  C_9
REMARK    3  A    between atoms: C_9  and  C_10
REMARK    4  A    between atoms: C_10  and  S_11
REMARK                            x       y       z     vdW  Elec       q    Type
REMARK                         _______ _______ _______ _____ _____    ______ ____
ROOT
ATOM      1  N   UNL     1      34.204 -18.804 -21.811  0.00  0.00    -0.331 N 
ATOM      2  H   UNL     1      33.286 -18.539 -22.050  0.00  0.00    +0.147 HD
ENDROOT
BRANCH   1   3
ATOM      3  C   UNL     1      34.372 -19.843 -20.910  0.00  0.00    +0.045 C 
ATOM      4  C   UNL     1      35.657 -20.315 -20.583  0.00  0.00    +0.014 C 
ATOM      5  C   UNL     1      33.262 -20.454 -20.297  0.00  0.00    +0.014 C 
ATOM      6  C   UNL     1      35.826 -21.362 -19.678  0.00  0.00    +0.001 C 
ATOM      7  C   UNL     1      33.431 -21.500 -19.391  0.00  0.00    +0.001 C 
ATOM      8  C   UNL     1      34.714 -21.954 -19.081  0.00  0.00    +0.000 C 
ENDBRANCH   1   3
BRANCH   1   9
ATOM      9  C   UNL     1      35.298 -18.086 -22.421  0.00  0.00    +0.113 C 
BRANCH   9  10
ATOM     10  C   UNL     1      34.892 -16.658 -22.732  0.00  0.00    +0.179 C 
BRANCH  10  11
ATOM     11  S   UNL     1      34.249 -15.816 -21.320  0.00  0.00    +0.024 S 
ATOM     12  O   UNL     1      35.238 -16.483 -20.207  0.00  0.00    -0.069 OA
ATOM     13  O   UNL     1      32.894 -16.277 -21.076  0.00  0.00    -0.069 OA
ATOM     14  O   UNL     1      34.563 -14.404 -21.435  0.00  0.00    -0.069 OA
ENDBRANCH  10  11
ENDBRANCH   9  10
ENDBRANCH   1   9
TORSDOF 4
ENDMDL
MODEL 3
REMARK VINA RESULT:      -6.7      5.787      7.091
REMARK  Name = 446854
REMARK  4 active torsions:
REMARK  status: ('A' for Active; 'I' for Inactive)
REMARK    1  A    between atoms: N_1  and  C_3
REMARK    2  A    between atoms: N_1  and  C_9
REMARK    3  A    between atoms: C_9  and  C_10
REMARK    4  A    between atoms: C_10  and  S_11
REMARK                            x       y       z     vdW  Elec       q    Type
REMARK                         _______ _______ _______ _____ _____    ______ ____
ROOT
ATOM      1  N   UNL     1      32.690 -22.450 -18.425  0.00  0.00    -0.331 N 
ATOM      2  H   UNL     1      31.728 -22.311 -18.580  0.00  0.00    +0.147 HD
ENDROOT
BRANCH   1   3
ATOM      3  C   UNL     1      33.589 -21.702 -19.169  0.00  0.00    +0.045 C 
ATOM      4  C   UNL     1      34.970 -21.963 -19.110  0.00  0.00    +0.014 C 
ATOM      5  C   UNL     1      33.142 -20.660 -20.003  0.00  0.00    +0.014 C 
ATOM      6  C   UNL     1      35.873 -21.209 -19.858  0.00  0.00    +0.001 C 
ATOM      7  C   UNL     1      34.046 -19.906 -20.751  0.00  0.00    +0.001 C 
ATOM      8  C   UNL     1      35.412 -20.181 -20.679  0.00  0.00    +0.000 C 
ENDBRANCH   1   3
BRANCH   1   9
ATOM      9  C   UNL     1      33.085 -23.423 -17.433  0.00  0.00    +0.113 C 
BRANCH   9  10
ATOM     10  C   UNL     1      32.481 -23.084 -16.083  0.00  0.00    +0.179 C 
BRANCH  10  11
ATOM     11  S   UNL     1      30.724 -23.262 -16.067  0.00  0.00    +0.024 S 
ATOM     12  O   UNL     1      30.454 -22.567 -14.617  0.00  0.00    -0.069 OA
ATOM     13  O   UNL     1      30.397 -24.673 -15.977  0.00  0.00    -0.069 OA
ATOM     14  O   UNL     1      30.161 -22.416 -17.102  0.00  0.00    -0.069 OA
ENDBRANCH  10  11
ENDBRANCH   9  10
ENDBRANCH   1   9
TORSDOF 4
ENDMDL
MODEL 4
REMARK VINA RESULT:      -6.5      2.932      5.910
REMARK  Name = 446854
REMARK  4 active torsions:
REMARK  status: ('A' for Active; 'I' for Inactive)
REMARK    1  A    between atoms: N_1  and  C_3
REMARK    2  A    between atoms: N_1  and  C_9
REMARK    3  A    between atoms: C_9  and  C_10
REMARK    4  A    between atoms: C_10  and  S_11
REMARK                            x       y       z     vdW  Elec       q    Type
REMARK                         _______ _______ _______ _____ _____    ______ ____
ROOT
ATOM      1  N   UNL     1      35.452 -17.297 -23.712  0.00  0.00    -0.331 N 
ATOM      2  H   UNL     1      36.320 -17.106 -23.289  0.00  0.00    +0.147 HD
ENDROOT
BRANCH   1   3
ATOM      3  C   UNL     1      34.682 -16.226 -24.139  0.00  0.00    +0.045 C 
ATOM      4  C   UNL     1      34.526 -15.082 -23.335  0.00  0.00    +0.014 C 
ATOM      5  C   UNL     1      34.035 -16.256 -25.389  0.00  0.00    +0.014 C 
ATOM      6  C   UNL     1      33.751 -14.006 -23.765  0.00  0.00    +0.001 C 
ATOM      7  C   UNL     1      33.260 -15.180 -25.818  0.00  0.00    +0.001 C 
ATOM      8  C   UNL     1      33.118 -14.054 -25.006  0.00  0.00    +0.000 C 
ENDBRANCH   1   3
BRANCH   1   9
ATOM      9  C   UNL     1      35.052 -18.677 -23.851  0.00  0.00    +0.113 C 
BRANCH   9  10
ATOM     10  C   UNL     1      34.765 -19.290 -22.493  0.00  0.00    +0.179 C 
BRANCH  10  11
ATOM     11  S   UNL     1      35.849 -18.684 -21.238  0.00  0.00    +0.024 S 
ATOM     12  O   UNL     1      35.632 -19.896 -20.168  0.00  0.00    -0.069 OA
ATOM     13  O   UNL     1      35.289 -17.465 -20.683  0.00  0.00    -0.069 OA
ATOM     14  O   UNL     1      37.211 -18.738 -21.732  0.00  0.00    -0.069 OA
ENDBRANCH  10  11
ENDBRANCH   9  10
ENDBRANCH   1   9
TORSDOF 4
ENDMDL
MODEL 5
REMARK VINA RESULT:      -6.5     10.061     10.781
REMARK  Name = 446854
REMARK  4 active torsions:
REMARK  status: ('A' for Active; 'I' for Inactive)
REMARK    1  A    between atoms: N_1  and  C_3
REMARK    2  A    between atoms: N_1  and  C_9
REMARK    3  A    between atoms: C_9  and  C_10
REMARK    4  A    between atoms: C_10  and  S_11
REMARK                            x       y       z     vdW  Elec       q    Type
REMARK                         _______ _______ _______ _____ _____    ______ ____
ROOT
ATOM      1  N   UNL     1      33.948 -24.786 -13.533  0.00  0.00    -0.331 N 
ATOM      2  H   UNL     1      33.989 -25.519 -12.877  0.00  0.00    +0.147 HD
ENDROOT
BRANCH   1   3
ATOM      3  C   UNL     1      32.704 -24.398 -14.005  0.00  0.00    +0.045 C 
ATOM      4  C   UNL     1      32.562 -23.258 -14.818  0.00  0.00    +0.014 C 
ATOM      5  C   UNL     1      31.548 -25.134 -13.681  0.00  0.00    +0.014 C 
ATOM      6  C   UNL     1      31.310 -22.868 -15.291  0.00  0.00    +0.001 C 
ATOM      7  C   UNL     1      30.296 -24.743 -14.154  0.00  0.00    +0.001 C 
ATOM      8  C   UNL     1      30.177 -23.610 -14.960  0.00  0.00    +0.000 C 
ENDBRANCH   1   3
BRANCH   1   9
ATOM      9  C   UNL     1      35.189 -24.176 -13.950  0.00  0.00    +0.113 C 
BRANCH   9  10
ATOM     10  C   UNL     1      35.891 -23.534 -12.768  0.00  0.00    +0.179 C 
BRANCH  10  11
ATOM     11  S   UNL     1      36.419 -24.720 -11.572  0.00  0.00    +0.024 S 
ATOM     12  O   UNL     1      36.627 -25.974 -12.593  0.00  0.00    -0.069 OA
ATOM     13  O   UNL     1      35.308 -25.018 -10.685  0.00  0.00    -0.069 OA
ATOM     14  O   UNL     1      37.715 -24.318 -11.057  0.00  0.00    -0.069 OA
ENDBRANCH  10  11
ENDBRANCH   9  10
ENDBRANCH   1   9
TORSDOF 4
ENDMDL
MODEL 6
REMARK VINA RESULT:      -6.5      1.040      1.861
REMARK  Name = 446854
REMARK  4 active torsions:
REMARK  status: ('A' for Active; 'I' for Inactive)
REMARK    1  A    between atoms: N_1  and  C_3
REMARK    2  A    between atoms: N_1  and  C_9
REMARK    3  A    between atoms: C_9  and  C_10
REMARK    4  A    between atoms: C_10  and  S_11
REMARK                            x       y       z     vdW  Elec       q    Type
REMARK                         _______ _______ _______ _____ _____    ______ ____
ROOT
ATOM      1  N   UNL     1      34.270 -18.441 -21.619  0.00  0.00    -0.331 N 
ATOM      2  H   UNL     1      33.509 -18.360 -22.238  0.00  0.00    +0.147 HD
ENDROOT
BRANCH   1   3
ATOM      3  C   UNL     1      34.375 -19.594 -20.857  0.00  0.00    +0.045 C 
ATOM      4  C   UNL     1      35.631 -20.158 -20.569  0.00  0.00    +0.014 C 
ATOM      5  C   UNL     1      33.226 -20.232 -20.353  0.00  0.00    +0.014 C 
ATOM      6  C   UNL     1      35.736 -21.319 -19.804  0.00  0.00    +0.001 C 
ATOM      7  C   UNL     1      33.331 -21.393 -19.588  0.00  0.00    +0.001 C 
ATOM      8  C   UNL     1      34.586 -21.937 -19.313  0.00  0.00    +0.000 C 
ENDBRANCH   1   3
BRANCH   1   9
ATOM      9  C   UNL     1      35.214 -17.351 -21.556  0.00  0.00    +0.113 C 
BRANCH   9  10
ATOM     10  C   UNL     1      34.560 -16.111 -20.974  0.00  0.00    +0.179 C 
BRANCH  10  11
ATOM     11  S   UNL     1      33.719 -15.156 -22.197  0.00  0.00    +0.024 S 
ATOM     12  O   UNL     1      33.907 -16.192 -23.442  0.00  0.00    -0.069 OA
ATOM     13  O   UNL     1      34.490 -13.956 -22.468  0.00  0.00    -0.069 OA
ATOM     14  O   UNL     1      32.311 -15.092 -21.852  0.00  0.00    -0.069 OA
ENDBRANCH  10  11
ENDBRANCH   9  10
ENDBRANCH   1   9
TORSDOF 4
ENDMDL
MODEL 7
REMARK VINA RESULT:      -6.5      4.328      6.023
REMARK  Name = 446854
REMARK  4 active torsions:
REMARK  status: ('A' for Active; 'I' for Inactive)
REMARK    1  A    between atoms: N_1  and  C_3
REMARK    2  A    between atoms: N_1  and  C_9
REMARK    3  A    between atoms: C_9  and  C_10
REMARK    4  A    between atoms: C_10  and  S_11
REMARK                            x       y       z     vdW  Elec       q    Type
REMARK                         _______ _______ _______ _____ _____    ______ ____
ROOT
ATOM      1  N   UNL     1      35.484 -19.500 -20.589  0.00  0.00    -0.331 N 
ATOM      2  H   UNL     1      36.336 -19.502 -20.096  0.00  0.00    +0.147 HD
ENDROOT
BRANCH   1   3
ATOM      3  C   UNL     1      35.274 -18.504 -21.529  0.00  0.00    +0.045 C 
ATOM      4  C   UNL     1      35.304 -18.792 -22.906  0.00  0.00    +0.014 C 
ATOM      5  C   UNL     1      35.025 -17.177 -21.131  0.00  0.00    +0.014 C 
ATOM      6  C   UNL     1      35.094 -17.789 -23.851  0.00  0.00    +0.001 C 
ATOM      7  C   UNL     1      34.815 -16.174 -22.076  0.00  0.00    +0.001 C 
ATOM      8  C   UNL     1      34.849 -16.480 -23.437  0.00  0.00    +0.000 C 
ENDBRANCH   1   3
BRANCH   1   9
ATOM      9  C   UNL     1      34.524 -20.537 -20.291  0.00  0.00    +0.113 C 
BRANCH   9  10
ATOM     10  C   UNL     1      35.142 -21.596 -19.398  0.00  0.00    +0.179 C 
BRANCH  10  11
ATOM     11  S   UNL     1      33.930 -22.644 -18.657  0.00  0.00    +0.024 S 
ATOM     12  O   UNL     1      34.054 -23.887 -19.705  0.00  0.00    -0.069 OA
ATOM     13  O   UNL     1      32.623 -22.031 -18.812  0.00  0.00    -0.069 OA
ATOM     14  O   UNL     1      34.416 -23.076 -17.360  0.00  0.00    -0.069 OA
ENDBRANCH  10  11
ENDBRANCH   9  10
ENDBRANCH   1   9
TORSDOF 4
ENDMDL
MODEL 8
REMARK VINA RESULT:      -6.4     10.019     10.641
REMARK  Name = 446854
REMARK  4 active torsions:
REMARK  status: ('A' for Active; 'I' for Inactive)
REMARK    1  A    between atoms: N_1  and  C_3
REMARK    2  A    between atoms: N_1  and  C_9
REMARK    3  A    between atoms: C_9  and  C_10
REMARK    4  A    between atoms: C_10  and  S_11
REMARK                            x       y       z     vdW  Elec       q    Type
REMARK                         _______ _______ _______ _____ _____    ______ ____
ROOT
ATOM      1  N   UNL     1      34.138 -24.686 -13.743  0.00  0.00    -0.331 N 
ATOM      2  H   UNL     1      34.281 -25.500 -13.208  0.00  0.00    +0.147 HD
ENDROOT
BRANCH   1   3
ATOM      3  C   UNL     1      32.846 -24.386 -14.146  0.00  0.00    +0.045 C 
ATOM      4  C   UNL     1      31.748 -25.117 -13.655  0.00  0.00    +0.014 C 
ATOM      5  C   UNL     1      32.599 -23.341 -15.056  0.00  0.00    +0.014 C 
ATOM      6  C   UNL     1      30.449 -24.815 -14.062  0.00  0.00    +0.001 C 
ATOM      7  C   UNL     1      31.299 -23.039 -15.463  0.00  0.00    +0.001 C 
ATOM      8  C   UNL     1      30.224 -23.776 -14.965  0.00  0.00    +0.000 C 
ENDBRANCH   1   3
BRANCH   1   9
ATOM      9  C   UNL     1      35.286 -23.872 -14.063  0.00  0.00    +0.113 C 
BRANCH   9  10
ATOM     10  C   UNL     1      36.049 -23.506 -12.803  0.00  0.00    +0.179 C 
BRANCH  10  11
ATOM     11  S   UNL     1      36.350 -24.904 -11.768  0.00  0.00    +0.024 S 
ATOM     12  O   UNL     1      37.691 -24.339 -11.032  0.00  0.00    -0.069 OA
ATOM     13  O   UNL     1      36.716 -26.035 -12.602  0.00  0.00    -0.069 OA
ATOM     14  O   UNL     1      35.284 -24.997 -10.788  0.00  0.00    -0.069 OA
ENDBRANCH  10  11
ENDBRANCH   9  10
ENDBRANCH   1   9
TORSDOF 4
ENDMDL
MODEL 9
REMARK VINA RESULT:      -6.4      7.219      8.712
REMARK  Name = 446854
REMARK  4 active torsions:
REMARK  status: ('A' for Active; 'I' for Inactive)
REMARK    1  A    between atoms: N_1  and  C_3
REMARK    2  A    between atoms: N_1  and  C_9
REMARK    3  A    between atoms: C_9  and  C_10
REMARK    4  A    between atoms: C_10  and  S_11
REMARK                            x       y       z     vdW  Elec       q    Type
REMARK                         _______ _______ _______ _____ _____    ______ ____
ROOT
ATOM      1  N   UNL     1      31.136 -23.755 -15.133  0.00  0.00    -0.331 N 
ATOM      2  H   UNL     1      30.907 -23.336 -14.272  0.00  0.00    +0.147 HD
ENDROOT
BRANCH   1   3
ATOM      3  C   UNL     1      32.369 -23.462 -15.696  0.00  0.00    +0.045 C 
ATOM      4  C   UNL     1      33.523 -23.368 -14.897  0.00  0.00    +0.014 C 
ATOM      5  C   UNL     1      32.498 -23.251 -17.081  0.00  0.00    +0.014 C 
ATOM      6  C   UNL     1      34.763 -23.073 -15.463  0.00  0.00    +0.001 C 
ATOM      7  C   UNL     1      33.737 -22.955 -17.647  0.00  0.00    +0.001 C 
ATOM      8  C   UNL     1      34.871 -22.866 -16.838  0.00  0.00    +0.000 C 
ENDBRANCH   1   3
BRANCH   1   9
ATOM      9  C   UNL     1      30.169 -24.639 -15.739  0.00  0.00    +0.113 C 
BRANCH   9  10
ATOM     10  C   UNL     1      28.759 -24.231 -15.355  0.00  0.00    +0.179 C 
BRANCH  10  11
ATOM     11  S   UNL     1      28.048 -23.099 -16.508  0.00  0.00    +0.024 S 
ATOM     12  O   UNL     1      27.644 -24.188 -17.653  0.00  0.00    -0.069 OA
ATOM     13  O   UNL     1      29.096 -22.240 -17.029  0.00  0.00    -0.069 OA
ATOM     14  O   UNL     1      26.832 -22.552 -15.936  0.00  0.00    -0.069 OA
ENDBRANCH  10  11
ENDBRANCH   9  10
ENDBRANCH   1   9
TORSDOF 4
ENDMDL
