MODEL 1
REMARK VINA RESULT:      -7.6      0.000      0.000
REMARK  Name = 3038498
REMARK  8 active torsions:
REMARK  status: ('A' for Active; 'I' for Inactive)
REMARK    1  A    between atoms: C_1  and  C_7
REMARK    2  A    between atoms: C_2  and  C_10
REMARK    3  A    between atoms: C_3  and  O_13
REMARK    4  A    between atoms: O_13  and  C_14
REMARK    5  A    between atoms: C_14  and  O_15
REMARK    6  A    between atoms: O_15  and  P_16
REMARK    7  A    between atoms: P_16  and  O_18
REMARK    8  A    between atoms: P_16  and  O_20
REMARK                            x       y       z     vdW  Elec       q    Type
REMARK                         _______ _______ _______ _____ _____    ______ ____
ROOT
ATOM      1  C   UNL     1      34.879 -22.961 -16.022  0.00  0.00    +0.011 C 
ATOM      2  C   UNL     1      32.542 -23.337 -15.532  0.00  0.00    +0.011 C 
ATOM      3  C   UNL     1      33.861 -23.196 -15.097  0.00  0.00    +0.133 C 
ATOM      4  C   UNL     1      34.579 -22.869 -17.380  0.00  0.00    -0.001 C 
ATOM      5  C   UNL     1      32.243 -23.245 -16.891  0.00  0.00    -0.001 C 
ATOM      6  C   UNL     1      33.261 -23.011 -17.815  0.00  0.00    -0.000 C 
ENDROOT
BRANCH   1   7
ATOM      7  C   UNL     1      36.295 -22.806 -15.576  0.00  0.00    +0.025 C 
ATOM      8  C   UNL     1      37.110 -21.898 -16.514  0.00  0.00    +0.005 C 
ATOM      9  C   UNL     1      37.009 -24.161 -15.407  0.00  0.00    +0.005 C 
ENDBRANCH   1   7
BRANCH   2  10
ATOM     10  C   UNL     1      31.439 -23.587 -14.558  0.00  0.00    +0.025 C 
ATOM     11  C   UNL     1      31.077 -25.080 -14.452  0.00  0.00    +0.005 C 
ATOM     12  C   UNL     1      30.178 -22.763 -14.876  0.00  0.00    +0.005 C 
ENDBRANCH   2  10
BRANCH   3  13
ATOM     13  O   UNL     1      34.154 -23.285 -13.768  0.00  0.00    -0.448 OA
BRANCH  13  14
ATOM     14  C   UNL     1      34.360 -24.589 -13.214  0.00  0.00    +0.369 C 
BRANCH  14  15
ATOM     15  O   UNL     1      34.560 -24.559 -11.807  0.00  0.00    -0.231 OA
BRANCH  15  16
ATOM     16  P   UNL     1      36.051 -24.378 -11.205  0.00  0.00    +0.476 P 
ATOM     17  O   UNL     1      36.115 -24.196  -9.716  0.00  0.00    -0.227 OA
BRANCH  16  18
ATOM     18  O   UNL     1      36.686 -23.151 -12.049  0.00  0.00    -0.303 OA
ATOM     19  H   UNL     1      36.378 -22.310 -11.677  0.00  0.00    +0.222 HD
ENDBRANCH  16  18
BRANCH  16  20
ATOM     20  O   UNL     1      36.871 -25.663 -11.748  0.00  0.00    -0.303 OA
ATOM     21  H   UNL     1      37.644 -25.814 -11.184  0.00  0.00    +0.222 HD
ENDBRANCH  16  20
ENDBRANCH  15  16
ENDBRANCH  14  15
ENDBRANCH  13  14
ENDBRANCH   3  13
TORSDOF 8
ENDMDL
MODEL 2
REMARK VINA RESULT:      -7.5      0.091      3.794
REMARK  Name = 3038498
REMARK  8 active torsions:
REMARK  status: ('A' for Active; 'I' for Inactive)
REMARK    1  A    between atoms: C_1  and  C_7
REMARK    2  A    between atoms: C_2  and  C_10
REMARK    3  A    between atoms: C_3  and  O_13
REMARK    4  A    between atoms: O_13  and  C_14
REMARK    5  A    between atoms: C_14  and  O_15
REMARK    6  A    between atoms: O_15  and  P_16
REMARK    7  A    between atoms: P_16  and  O_18
REMARK    8  A    between atoms: P_16  and  O_20
REMARK                            x       y       z     vdW  Elec       q    Type
REMARK                         _______ _______ _______ _____ _____    ______ ____
ROOT
ATOM      1  C   UNL     1      32.521 -23.352 -15.491  0.00  0.00    +0.011 C 
ATOM      2  C   UNL     1      34.859 -22.966 -15.967  0.00  0.00    +0.011 C 
ATOM      3  C   UNL     1      33.835 -23.202 -15.048  0.00  0.00    +0.133 C 
ATOM      4  C   UNL     1      32.230 -23.266 -16.852  0.00  0.00    -0.001 C 
ATOM      5  C   UNL     1      34.568 -22.880 -17.328  0.00  0.00    -0.001 C 
ATOM      6  C   UNL     1      33.253 -23.031 -17.771  0.00  0.00    -0.000 C 
ENDROOT
BRANCH   1   7
ATOM      7  C   UNL     1      31.413 -23.606 -14.523  0.00  0.00    +0.025 C 
ATOM      8  C   UNL     1      31.041 -25.097 -14.435  0.00  0.00    +0.005 C 
ATOM      9  C   UNL     1      30.157 -22.771 -14.837  0.00  0.00    +0.005 C 
ENDBRANCH   1   7
BRANCH   2  10
ATOM     10  C   UNL     1      36.272 -22.804 -15.512  0.00  0.00    +0.025 C 
ATOM     11  C   UNL     1      37.080 -21.869 -16.431  0.00  0.00    +0.005 C 
ATOM     12  C   UNL     1      36.999 -24.153 -15.367  0.00  0.00    +0.005 C 
ENDBRANCH   2  10
BRANCH   3  13
ATOM     13  O   UNL     1      34.120 -23.287 -13.717  0.00  0.00    -0.448 OA
BRANCH  13  14
ATOM     14  C   UNL     1      34.360 -24.587 -13.166  0.00  0.00    +0.369 C 
BRANCH  14  15
ATOM     15  O   UNL     1      34.602 -24.549 -11.765  0.00  0.00    -0.231 OA
BRANCH  15  16
ATOM     16  P   UNL     1      36.098 -24.282 -11.209  0.00  0.00    +0.476 P 
ATOM     17  O   UNL     1      36.205 -24.155  -9.717  0.00  0.00    -0.227 OA
BRANCH  16  18
ATOM     18  O   UNL     1      36.609 -22.979 -12.022  0.00  0.00    -0.303 OA
ATOM     19  H   UNL     1      36.951 -23.251 -12.887  0.00  0.00    +0.222 HD
ENDBRANCH  16  18
BRANCH  16  20
ATOM     20  O   UNL     1      36.987 -25.481 -11.834  0.00  0.00    -0.303 OA
ATOM     21  H   UNL     1      37.451 -25.944 -11.120  0.00  0.00    +0.222 HD
ENDBRANCH  16  20
ENDBRANCH  15  16
ENDBRANCH  14  15
ENDBRANCH  13  14
ENDBRANCH   3  13
TORSDOF 8
ENDMDL
MODEL 3
REMARK VINA RESULT:      -7.2     15.135     16.542
REMARK  Name = 3038498
REMARK  8 active torsions:
REMARK  status: ('A' for Active; 'I' for Inactive)
REMARK    1  A    between atoms: C_1  and  C_7
REMARK    2  A    between atoms: C_2  and  C_10
REMARK    3  A    between atoms: C_3  and  O_13
REMARK    4  A    between atoms: O_13  and  C_14
REMARK    5  A    between atoms: C_14  and  O_15
REMARK    6  A    between atoms: O_15  and  P_16
REMARK    7  A    between atoms: P_16  and  O_18
REMARK    8  A    between atoms: P_16  and  O_20
REMARK                            x       y       z     vdW  Elec       q    Type
REMARK                         _______ _______ _______ _____ _____    ______ ____
ROOT
ATOM      1  C   UNL     1      32.680  -7.777 -22.588  0.00  0.00    +0.011 C 
ATOM      2  C   UNL     1      32.003  -9.374 -20.906  0.00  0.00    +0.011 C 
ATOM      3  C   UNL     1      32.349  -9.082 -22.226  0.00  0.00    +0.133 C 
ATOM      4  C   UNL     1      32.663  -6.763 -21.631  0.00  0.00    -0.001 C 
ATOM      5  C   UNL     1      31.986  -8.360 -19.949  0.00  0.00    -0.001 C 
ATOM      6  C   UNL     1      32.317  -7.054 -20.311  0.00  0.00    -0.000 C 
ENDROOT
BRANCH   1   7
ATOM      7  C   UNL     1      33.054  -7.445 -23.995  0.00  0.00    +0.025 C 
ATOM      8  C   UNL     1      34.567  -7.219 -24.162  0.00  0.00    +0.005 C 
ATOM      9  C   UNL     1      32.279  -6.228 -24.536  0.00  0.00    +0.005 C 
ENDBRANCH   1   7
BRANCH   2  10
ATOM     10  C   UNL     1      31.648 -10.766 -20.499  0.00  0.00    +0.025 C 
ATOM     11  C   UNL     1      30.327 -11.244 -21.131  0.00  0.00    +0.005 C 
ATOM     12  C   UNL     1      31.587 -10.933 -18.970  0.00  0.00    +0.005 C 
ENDBRANCH   2  10
BRANCH   3  13
ATOM     13  O   UNL     1      32.366 -10.075 -23.162  0.00  0.00    -0.448 OA
BRANCH  13  14
ATOM     14  C   UNL     1      33.611 -10.735 -23.414  0.00  0.00    +0.369 C 
BRANCH  14  15
ATOM     15  O   UNL     1      33.508 -11.724 -24.430  0.00  0.00    -0.231 OA
BRANCH  15  16
ATOM     16  P   UNL     1      33.266 -13.273 -24.030  0.00  0.00    +0.476 P 
ATOM     17  O   UNL     1      33.119 -14.212 -25.193  0.00  0.00    -0.227 OA
BRANCH  16  18
ATOM     18  O   UNL     1      31.987 -13.244 -23.038  0.00  0.00    -0.303 OA
ATOM     19  H   UNL     1      31.251 -12.787 -23.473  0.00  0.00    +0.222 HD
ENDBRANCH  16  18
BRANCH  16  20
ATOM     20  O   UNL     1      34.494 -13.637 -23.041  0.00  0.00    -0.303 OA
ATOM     21  H   UNL     1      34.857 -14.503 -23.282  0.00  0.00    +0.222 HD
ENDBRANCH  16  20
ENDBRANCH  15  16
ENDBRANCH  14  15
ENDBRANCH  13  14
ENDBRANCH   3  13
TORSDOF 8
ENDMDL
MODEL 4
REMARK VINA RESULT:      -7.2     15.154     16.766
REMARK  Name = 3038498
REMARK  8 active torsions:
REMARK  status: ('A' for Active; 'I' for Inactive)
REMARK    1  A    between atoms: C_1  and  C_7
REMARK    2  A    between atoms: C_2  and  C_10
REMARK    3  A    between atoms: C_3  and  O_13
REMARK    4  A    between atoms: O_13  and  C_14
REMARK    5  A    between atoms: C_14  and  O_15
REMARK    6  A    between atoms: O_15  and  P_16
REMARK    7  A    between atoms: P_16  and  O_18
REMARK    8  A    between atoms: P_16  and  O_20
REMARK                            x       y       z     vdW  Elec       q    Type
REMARK                         _______ _______ _______ _____ _____    ______ ____
ROOT
ATOM      1  C   UNL     1      32.012  -9.370 -20.912  0.00  0.00    +0.011 C 
ATOM      2  C   UNL     1      32.692  -7.765 -22.586  0.00  0.00    +0.011 C 
ATOM      3  C   UNL     1      32.362  -9.074 -22.229  0.00  0.00    +0.133 C 
ATOM      4  C   UNL     1      31.995  -8.359 -19.951  0.00  0.00    -0.001 C 
ATOM      5  C   UNL     1      32.675  -6.755 -21.625  0.00  0.00    -0.001 C 
ATOM      6  C   UNL     1      32.326  -7.052 -20.308  0.00  0.00    -0.000 C 
ENDROOT
BRANCH   1   7
ATOM      7  C   UNL     1      31.655 -10.763 -20.511  0.00  0.00    +0.025 C 
ATOM      8  C   UNL     1      30.337 -11.238 -21.151  0.00  0.00    +0.005 C 
ATOM      9  C   UNL     1      31.585 -10.934 -18.982  0.00  0.00    +0.005 C 
ENDBRANCH   1   7
BRANCH   2  10
ATOM     10  C   UNL     1      33.067  -7.428 -23.992  0.00  0.00    +0.025 C 
ATOM     11  C   UNL     1      34.580  -7.192 -24.155  0.00  0.00    +0.005 C 
ATOM     12  C   UNL     1      32.286  -6.217 -24.532  0.00  0.00    +0.005 C 
ENDBRANCH   2  10
BRANCH   3  13
ATOM     13  O   UNL     1      32.378 -10.062 -23.170  0.00  0.00    -0.448 OA
BRANCH  13  14
ATOM     14  C   UNL     1      33.623 -10.718 -23.430  0.00  0.00    +0.369 C 
BRANCH  14  15
ATOM     15  O   UNL     1      33.521 -11.695 -24.457  0.00  0.00    -0.231 OA
BRANCH  15  16
ATOM     16  P   UNL     1      33.284 -13.249 -24.075  0.00  0.00    +0.476 P 
ATOM     17  O   UNL     1      33.144 -14.175 -25.249  0.00  0.00    -0.227 OA
BRANCH  16  18
ATOM     18  O   UNL     1      32.003 -13.237 -23.087  0.00  0.00    -0.303 OA
ATOM     19  H   UNL     1      32.001 -14.044 -22.550  0.00  0.00    +0.222 HD
ENDBRANCH  16  18
BRANCH  16  20
ATOM     20  O   UNL     1      34.511 -13.619 -23.087  0.00  0.00    -0.303 OA
ATOM     21  H   UNL     1      34.560 -12.965 -22.374  0.00  0.00    +0.222 HD
ENDBRANCH  16  20
ENDBRANCH  15  16
ENDBRANCH  14  15
ENDBRANCH  13  14
ENDBRANCH   3  13
TORSDOF 8
ENDMDL
MODEL 5
REMARK VINA RESULT:      -6.9      2.887      4.717
REMARK  Name = 3038498
REMARK  8 active torsions:
REMARK  status: ('A' for Active; 'I' for Inactive)
REMARK    1  A    between atoms: C_1  and  C_7
REMARK    2  A    between atoms: C_2  and  C_10
REMARK    3  A    between atoms: C_3  and  O_13
REMARK    4  A    between atoms: O_13  and  C_14
REMARK    5  A    between atoms: C_14  and  O_15
REMARK    6  A    between atoms: O_15  and  P_16
REMARK    7  A    between atoms: P_16  and  O_18
REMARK    8  A    between atoms: P_16  and  O_20
REMARK                            x       y       z     vdW  Elec       q    Type
REMARK                         _______ _______ _______ _____ _____    ______ ____
ROOT
ATOM      1  C   UNL     1      34.928 -22.478 -17.715  0.00  0.00    +0.011 C 
ATOM      2  C   UNL     1      35.786 -23.176 -15.567  0.00  0.00    +0.011 C 
ATOM      3  C   UNL     1      34.765 -23.175 -16.518  0.00  0.00    +0.133 C 
ATOM      4  C   UNL     1      36.110 -21.781 -17.961  0.00  0.00    -0.001 C 
ATOM      5  C   UNL     1      36.969 -22.479 -15.813  0.00  0.00    -0.001 C 
ATOM      6  C   UNL     1      37.131 -21.782 -17.010  0.00  0.00    -0.000 C 
ENDROOT
BRANCH   1   7
ATOM      7  C   UNL     1      33.847 -22.465 -18.745  0.00  0.00    +0.025 C 
ATOM      8  C   UNL     1      33.937 -23.666 -19.705  0.00  0.00    +0.005 C 
ATOM      9  C   UNL     1      33.819 -21.152 -19.550  0.00  0.00    +0.005 C 
ENDBRANCH   1   7
BRANCH   2  10
ATOM     10  C   UNL     1      35.632 -23.918 -14.281  0.00  0.00    +0.025 C 
ATOM     11  C   UNL     1      36.374 -23.236 -13.117  0.00  0.00    +0.005 C 
ATOM     12  C   UNL     1      36.074 -25.388 -14.394  0.00  0.00    +0.005 C 
ENDBRANCH   2  10
BRANCH   3  13
ATOM     13  O   UNL     1      33.609 -23.858 -16.278  0.00  0.00    -0.448 OA
BRANCH  13  14
ATOM     14  C   UNL     1      32.511 -23.135 -15.710  0.00  0.00    +0.369 C 
BRANCH  14  15
ATOM     15  O   UNL     1      31.372 -23.957 -15.491  0.00  0.00    -0.231 OA
BRANCH  15  16
ATOM     16  P   UNL     1      31.182 -24.718 -14.076  0.00  0.00    +0.476 P 
ATOM     17  O   UNL     1      30.838 -23.824 -12.919  0.00  0.00    -0.227 OA
BRANCH  16  18
ATOM     18  O   UNL     1      32.551 -25.558 -13.877  0.00  0.00    -0.303 OA
ATOM     19  H   UNL     1      32.406 -26.262 -13.226  0.00  0.00    +0.222 HD
ENDBRANCH  16  18
BRANCH  16  20
ATOM     20  O   UNL     1      30.081 -25.866 -14.372  0.00  0.00    -0.303 OA
ATOM     21  H   UNL     1      30.180 -26.581 -13.726  0.00  0.00    +0.222 HD
ENDBRANCH  16  20
ENDBRANCH  15  16
ENDBRANCH  14  15
ENDBRANCH  13  14
ENDBRANCH   3  13
TORSDOF 8
ENDMDL
MODEL 6
REMARK VINA RESULT:      -6.9      2.913      4.425
REMARK  Name = 3038498
REMARK  8 active torsions:
REMARK  status: ('A' for Active; 'I' for Inactive)
REMARK    1  A    between atoms: C_1  and  C_7
REMARK    2  A    between atoms: C_2  and  C_10
REMARK    3  A    between atoms: C_3  and  O_13
REMARK    4  A    between atoms: O_13  and  C_14
REMARK    5  A    between atoms: C_14  and  O_15
REMARK    6  A    between atoms: O_15  and  P_16
REMARK    7  A    between atoms: P_16  and  O_18
REMARK    8  A    between atoms: P_16  and  O_20
REMARK                            x       y       z     vdW  Elec       q    Type
REMARK                         _______ _______ _______ _____ _____    ______ ____
ROOT
ATOM      1  C   UNL     1      35.801 -23.137 -15.605  0.00  0.00    +0.011 C 
ATOM      2  C   UNL     1      34.922 -22.456 -17.750  0.00  0.00    +0.011 C 
ATOM      3  C   UNL     1      34.771 -23.142 -16.544  0.00  0.00    +0.133 C 
ATOM      4  C   UNL     1      36.984 -22.448 -15.871  0.00  0.00    -0.001 C 
ATOM      5  C   UNL     1      36.105 -21.767 -18.017  0.00  0.00    -0.001 C 
ATOM      6  C   UNL     1      37.136 -21.763 -17.077  0.00  0.00    -0.000 C 
ENDROOT
BRANCH   1   7
ATOM      7  C   UNL     1      35.658 -23.864 -14.309  0.00  0.00    +0.025 C 
ATOM      8  C   UNL     1      36.426 -23.180 -13.164  0.00  0.00    +0.005 C 
ATOM      9  C   UNL     1      36.081 -25.342 -14.415  0.00  0.00    +0.005 C 
ENDBRANCH   1   7
BRANCH   2  10
ATOM     10  C   UNL     1      33.830 -22.448 -18.768  0.00  0.00    +0.025 C 
ATOM     11  C   UNL     1      33.932 -23.631 -19.748  0.00  0.00    +0.005 C 
ATOM     12  C   UNL     1      33.765 -21.123 -19.549  0.00  0.00    +0.005 C 
ENDBRANCH   2  10
BRANCH   3  13
ATOM     13  O   UNL     1      33.613 -23.815 -16.284  0.00  0.00    -0.448 OA
BRANCH  13  14
ATOM     14  C   UNL     1      32.519 -23.076 -15.729  0.00  0.00    +0.369 C 
BRANCH  14  15
ATOM     15  O   UNL     1      31.379 -23.889 -15.486  0.00  0.00    -0.231 OA
BRANCH  15  16
ATOM     16  P   UNL     1      31.174 -24.584 -14.039  0.00  0.00    +0.476 P 
ATOM     17  O   UNL     1      30.969 -23.627 -12.901  0.00  0.00    -0.227 OA
BRANCH  16  18
ATOM     18  O   UNL     1      32.459 -25.552 -13.865  0.00  0.00    -0.303 OA
ATOM     19  H   UNL     1      33.227 -25.152 -14.302  0.00  0.00    +0.222 HD
ENDBRANCH  16  18
BRANCH  16  20
ATOM     20  O   UNL     1      29.953 -25.624 -14.254  0.00  0.00    -0.303 OA
ATOM     21  H   UNL     1      30.259 -26.376 -14.784  0.00  0.00    +0.222 HD
ENDBRANCH  16  20
ENDBRANCH  15  16
ENDBRANCH  14  15
ENDBRANCH  13  14
ENDBRANCH   3  13
TORSDOF 8
ENDMDL
MODEL 7
REMARK VINA RESULT:      -6.8     11.443     13.251
REMARK  Name = 3038498
REMARK  8 active torsions:
REMARK  status: ('A' for Active; 'I' for Inactive)
REMARK    1  A    between atoms: C_1  and  C_7
REMARK    2  A    between atoms: C_2  and  C_10
REMARK    3  A    between atoms: C_3  and  O_13
REMARK    4  A    between atoms: O_13  and  C_14
REMARK    5  A    between atoms: C_14  and  O_15
REMARK    6  A    between atoms: O_15  and  P_16
REMARK    7  A    between atoms: P_16  and  O_18
REMARK    8  A    between atoms: P_16  and  O_20
REMARK                            x       y       z     vdW  Elec       q    Type
REMARK                         _______ _______ _______ _____ _____    ______ ____
ROOT
ATOM      1  C   UNL     1      33.008 -14.026 -21.921  0.00  0.00    +0.011 C 
ATOM      2  C   UNL     1      33.466 -12.519 -23.754  0.00  0.00    +0.011 C 
ATOM      3  C   UNL     1      33.683 -13.736 -23.107  0.00  0.00    +0.133 C 
ATOM      4  C   UNL     1      32.118 -13.098 -21.382  0.00  0.00    -0.001 C 
ATOM      5  C   UNL     1      32.575 -11.591 -23.215  0.00  0.00    -0.001 C 
ATOM      6  C   UNL     1      31.900 -11.881 -22.028  0.00  0.00    -0.000 C 
ENDROOT
BRANCH   1   7
ATOM      7  C   UNL     1      33.226 -15.323 -21.215  0.00  0.00    +0.025 C 
ATOM      8  C   UNL     1      32.010 -15.741 -20.367  0.00  0.00    +0.005 C 
ATOM      9  C   UNL     1      34.495 -15.309 -20.341  0.00  0.00    +0.005 C 
ENDBRANCH   1   7
BRANCH   2  10
ATOM     10  C   UNL     1      34.177 -12.192 -25.025  0.00  0.00    +0.025 C 
ATOM     11  C   UNL     1      34.586 -10.710 -25.105  0.00  0.00    +0.005 C 
ATOM     12  C   UNL     1      33.359 -12.578 -26.271  0.00  0.00    +0.005 C 
ENDBRANCH   2  10
BRANCH   3  13
ATOM     13  O   UNL     1      34.553 -14.644 -23.635  0.00  0.00    -0.448 OA
BRANCH  13  14
ATOM     14  C   UNL     1      34.007 -15.822 -24.238  0.00  0.00    +0.369 C 
BRANCH  14  15
ATOM     15  O   UNL     1      34.990 -16.824 -24.466  0.00  0.00    -0.231 OA
BRANCH  15  16
ATOM     16  P   UNL     1      35.064 -18.119 -23.498  0.00  0.00    +0.476 P 
ATOM     17  O   UNL     1      34.073 -18.124 -22.370  0.00  0.00    -0.227 OA
BRANCH  16  18
ATOM     18  O   UNL     1      36.609 -18.183 -23.020  0.00  0.00    -0.303 OA
ATOM     19  H   UNL     1      37.143 -18.612 -23.707  0.00  0.00    +0.222 HD
ENDBRANCH  16  18
BRANCH  16  20
ATOM     20  O   UNL     1      34.932 -19.385 -24.496  0.00  0.00    -0.303 OA
ATOM     21  H   UNL     1      34.120 -19.301 -25.018  0.00  0.00    +0.222 HD
ENDBRANCH  16  20
ENDBRANCH  15  16
ENDBRANCH  14  15
ENDBRANCH  13  14
ENDBRANCH   3  13
TORSDOF 8
ENDMDL
MODEL 8
REMARK VINA RESULT:      -6.8     11.486     13.127
REMARK  Name = 3038498
REMARK  8 active torsions:
REMARK  status: ('A' for Active; 'I' for Inactive)
REMARK    1  A    between atoms: C_1  and  C_7
REMARK    2  A    between atoms: C_2  and  C_10
REMARK    3  A    between atoms: C_3  and  O_13
REMARK    4  A    between atoms: O_13  and  C_14
REMARK    5  A    between atoms: C_14  and  O_15
REMARK    6  A    between atoms: O_15  and  P_16
REMARK    7  A    between atoms: P_16  and  O_18
REMARK    8  A    between atoms: P_16  and  O_20
REMARK                            x       y       z     vdW  Elec       q    Type
REMARK                         _______ _______ _______ _____ _____    ______ ____
ROOT
ATOM      1  C   UNL     1      33.469 -12.515 -23.761  0.00  0.00    +0.011 C 
ATOM      2  C   UNL     1      33.022 -14.025 -21.928  0.00  0.00    +0.011 C 
ATOM      3  C   UNL     1      33.690 -13.733 -23.118  0.00  0.00    +0.133 C 
ATOM      4  C   UNL     1      32.580 -11.590 -23.214  0.00  0.00    -0.001 C 
ATOM      5  C   UNL     1      32.133 -13.100 -21.382  0.00  0.00    -0.001 C 
ATOM      6  C   UNL     1      31.912 -11.882 -22.025  0.00  0.00    -0.000 C 
ENDROOT
BRANCH   1   7
ATOM      7  C   UNL     1      34.174 -12.184 -25.034  0.00  0.00    +0.025 C 
ATOM      8  C   UNL     1      34.586 -10.702 -25.109  0.00  0.00    +0.005 C 
ATOM      9  C   UNL     1      33.348 -12.562 -26.278  0.00  0.00    +0.005 C 
ENDBRANCH   1   7
BRANCH   2  10
ATOM     10  C   UNL     1      33.247 -15.323 -21.224  0.00  0.00    +0.025 C 
ATOM     11  C   UNL     1      32.023 -15.764 -20.401  0.00  0.00    +0.005 C 
ATOM     12  C   UNL     1      34.499 -15.295 -20.328  0.00  0.00    +0.005 C 
ENDBRANCH   2  10
BRANCH   3  13
ATOM     13  O   UNL     1      34.560 -14.638 -23.651  0.00  0.00    -0.448 OA
BRANCH  13  14
ATOM     14  C   UNL     1      34.015 -15.820 -24.247  0.00  0.00    +0.369 C 
BRANCH  14  15
ATOM     15  O   UNL     1      35.014 -16.777 -24.574  0.00  0.00    -0.231 OA
BRANCH  15  16
ATOM     16  P   UNL     1      35.071 -18.189 -23.786  0.00  0.00    +0.476 P 
ATOM     17  O   UNL     1      34.787 -19.397 -24.632  0.00  0.00    -0.227 OA
BRANCH  16  18
ATOM     18  O   UNL     1      34.057 -18.002 -22.539  0.00  0.00    -0.303 OA
ATOM     19  H   UNL     1      34.519 -18.211 -21.712  0.00  0.00    +0.222 HD
ENDBRANCH  16  18
BRANCH  16  20
ATOM     20  O   UNL     1      36.527 -18.206 -23.081  0.00  0.00    -0.303 OA
ATOM     21  H   UNL     1      37.158 -17.717 -23.631  0.00  0.00    +0.222 HD
ENDBRANCH  16  20
ENDBRANCH  15  16
ENDBRANCH  14  15
ENDBRANCH  13  14
ENDBRANCH   3  13
TORSDOF 8
ENDMDL
MODEL 9
REMARK VINA RESULT:      -6.7      2.869      4.710
REMARK  Name = 3038498
REMARK  8 active torsions:
REMARK  status: ('A' for Active; 'I' for Inactive)
REMARK    1  A    between atoms: C_1  and  C_7
REMARK    2  A    between atoms: C_2  and  C_10
REMARK    3  A    between atoms: C_3  and  O_13
REMARK    4  A    between atoms: O_13  and  C_14
REMARK    5  A    between atoms: C_14  and  O_15
REMARK    6  A    between atoms: O_15  and  P_16
REMARK    7  A    between atoms: P_16  and  O_18
REMARK    8  A    between atoms: P_16  and  O_20
REMARK                            x       y       z     vdW  Elec       q    Type
REMARK                         _______ _______ _______ _____ _____    ______ ____
ROOT
ATOM      1  C   UNL     1      35.405 -23.723 -13.526  0.00  0.00    +0.011 C 
ATOM      2  C   UNL     1      35.562 -22.925 -15.802  0.00  0.00    +0.011 C 
ATOM      3  C   UNL     1      36.176 -23.268 -14.596  0.00  0.00    +0.133 C 
ATOM      4  C   UNL     1      34.021 -23.834 -13.662  0.00  0.00    -0.001 C 
ATOM      5  C   UNL     1      34.179 -23.036 -15.937  0.00  0.00    -0.001 C 
ATOM      6  C   UNL     1      33.408 -23.491 -14.867  0.00  0.00    -0.000 C 
ENDROOT
BRANCH   1   7
ATOM      7  C   UNL     1      36.042 -24.095 -12.229  0.00  0.00    +0.025 C 
ATOM      8  C   UNL     1      37.004 -23.009 -11.714  0.00  0.00    +0.005 C 
ATOM      9  C   UNL     1      36.773 -25.450 -12.301  0.00  0.00    +0.005 C 
ENDBRANCH   1   7
BRANCH   2  10
ATOM     10  C   UNL     1      36.371 -22.439 -16.959  0.00  0.00    +0.025 C 
ATOM     11  C   UNL     1      37.223 -21.207 -16.602  0.00  0.00    +0.005 C 
ATOM     12  C   UNL     1      35.504 -22.136 -18.195  0.00  0.00    +0.005 C 
ENDBRANCH   2  10
BRANCH   3  13
ATOM     13  O   UNL     1      37.529 -23.161 -14.465  0.00  0.00    -0.448 OA
BRANCH  13  14
ATOM     14  C   UNL     1      38.346 -24.109 -15.159  0.00  0.00    +0.369 C 
BRANCH  14  15
ATOM     15  O   UNL     1      39.440 -24.565 -14.374  0.00  0.00    -0.231 OA
BRANCH  15  16
ATOM     16  P   UNL     1      40.078 -26.027 -14.646  0.00  0.00    +0.476 P 
ATOM     17  O   UNL     1      41.141 -26.445 -13.671  0.00  0.00    -0.227 OA
BRANCH  16  18
ATOM     18  O   UNL     1      40.576 -25.975 -16.185  0.00  0.00    -0.303 OA
ATOM     19  H   UNL     1      41.478 -26.326 -16.245  0.00  0.00    +0.222 HD
ENDBRANCH  16  18
BRANCH  16  20
ATOM     20  O   UNL     1      38.806 -27.025 -14.702  0.00  0.00    -0.303 OA
ATOM     21  H   UNL     1      38.739 -27.509 -13.865  0.00  0.00    +0.222 HD
ENDBRANCH  16  20
ENDBRANCH  15  16
ENDBRANCH  14  15
ENDBRANCH  13  14
ENDBRANCH   3  13
TORSDOF 8
ENDMDL
