MODEL 1
REMARK VINA RESULT:     -10.6      0.000      0.000
REMARK  Name = 4506
REMARK  2 active torsions:
REMARK  status: ('A' for Active; 'I' for Inactive)
REMARK    1  A    between atoms: C_6  and  C_14
REMARK    2  A    between atoms: C_10  and  N_22
REMARK                            x       y       z     vdW  Elec       q    Type
REMARK                         _______ _______ _______ _____ _____    ______ ____
ROOT
ATOM      1  O   UNL     1      36.348 -24.057 -12.965  0.00  0.00    -0.273 OA
ATOM      2  N   UNL     1      34.181 -23.474 -13.416  0.00  0.00    -0.282 N 
ATOM      3  N   UNL     1      35.402 -24.176 -16.086  0.00  0.00    -0.261 NA
ATOM      4  C   UNL     1      33.072 -23.487 -15.645  0.00  0.00    +0.032 C 
ATOM      5  C   UNL     1      33.043 -23.382 -14.245  0.00  0.00    +0.052 C 
ATOM      6  C   UNL     1      34.353 -23.503 -16.415  0.00  0.00    +0.078 C 
ATOM      7  C   UNL     1      31.867 -23.462 -16.366  0.00  0.00    +0.027 C 
ATOM      8  C   UNL     1      31.819 -23.146 -13.602  0.00  0.00    +0.016 C 
ATOM      9  C   UNL     1      35.355 -25.019 -14.911  0.00  0.00    +0.210 C 
ATOM     10  C   UNL     1      30.652 -23.276 -15.708  0.00  0.00    +0.143 C 
ATOM     11  C   UNL     1      35.360 -24.128 -13.697  0.00  0.00    +0.251 C 
ATOM     12  C   UNL     1      30.630 -23.101 -14.329  0.00  0.00    +0.025 C 
ATOM     13  H   UNL     1      34.125 -23.023 -12.542  0.00  0.00    +0.155 HD
ENDROOT
BRANCH   6  14
ATOM     14  C   UNL     1      34.462 -22.659 -17.640  0.00  0.00    +0.017 C 
ATOM     15  C   UNL     1      33.328 -22.405 -18.401  0.00  0.00    +0.001 C 
ATOM     16  C   UNL     1      35.696 -22.136 -18.005  0.00  0.00    +0.001 C 
ATOM     17  C   UNL     1      33.430 -21.616 -19.547  0.00  0.00    +0.000 C 
ATOM     18  C   UNL     1      35.798 -21.346 -19.150  0.00  0.00    +0.000 C 
ATOM     19  C   UNL     1      34.665 -21.086 -19.921  0.00  0.00    +0.000 C 
ENDBRANCH   6  14
BRANCH  10  22
ATOM     20  O   UNL     1      29.227 -22.260 -17.209  0.00  0.00    -0.126 OA
ATOM     21  O   UNL     1      28.618 -24.174 -16.322  0.00  0.00    -0.126 OA
ATOM     22  N   UNL     1      29.441 -23.235 -16.449  0.00  0.00    +0.058 N 
ENDBRANCH  10  22
TORSDOF 2
ENDMDL
MODEL 2
REMARK VINA RESULT:     -10.1     14.233     16.438
REMARK  Name = 4506
REMARK  2 active torsions:
REMARK  status: ('A' for Active; 'I' for Inactive)
REMARK    1  A    between atoms: C_6  and  C_14
REMARK    2  A    between atoms: C_10  and  N_22
REMARK                            x       y       z     vdW  Elec       q    Type
REMARK                         _______ _______ _______ _____ _____    ______ ____
ROOT
ATOM      1  O   UNL     1      32.258 -10.256 -18.583  0.00  0.00    -0.273 OA
ATOM      2  N   UNL     1      32.291  -8.368 -19.878  0.00  0.00    -0.282 N 
ATOM      3  N   UNL     1      32.103 -10.676 -21.816  0.00  0.00    -0.261 NA
ATOM      4  C   UNL     1      32.138  -8.268 -22.362  0.00  0.00    +0.032 C 
ATOM      5  C   UNL     1      32.140  -7.666 -21.092  0.00  0.00    +0.052 C 
ATOM      6  C   UNL     1      32.503  -9.704 -22.561  0.00  0.00    +0.078 C 
ATOM      7  C   UNL     1      31.898  -7.481 -23.500  0.00  0.00    +0.027 C 
ATOM      8  C   UNL     1      32.009  -6.273 -20.996  0.00  0.00    +0.016 C 
ATOM      9  C   UNL     1      31.202 -10.395 -20.720  0.00  0.00    +0.210 C 
ATOM     10  C   UNL     1      31.721  -6.103 -23.384  0.00  0.00    +0.143 C 
ATOM     11  C   UNL     1      31.982  -9.690 -19.642  0.00  0.00    +0.251 C 
ATOM     12  C   UNL     1      31.794  -5.497 -22.135  0.00  0.00    +0.025 C 
ATOM     13  H   UNL     1      32.653  -7.859 -19.118  0.00  0.00    +0.155 HD
ENDROOT
BRANCH   6  14
ATOM     14  C   UNL     1      33.425 -10.058 -23.680  0.00  0.00    +0.017 C 
ATOM     15  C   UNL     1      34.495  -9.224 -23.976  0.00  0.00    +0.001 C 
ATOM     16  C   UNL     1      33.202 -11.218 -24.410  0.00  0.00    +0.001 C 
ATOM     17  C   UNL     1      35.356  -9.555 -25.022  0.00  0.00    +0.000 C 
ATOM     18  C   UNL     1      34.063 -11.550 -25.456  0.00  0.00    +0.000 C 
ATOM     19  C   UNL     1      35.141 -10.718 -25.762  0.00  0.00    +0.000 C 
ENDBRANCH   6  14
BRANCH  10  22
ATOM     20  O   UNL     1      30.460  -4.611 -24.609  0.00  0.00    -0.126 OA
ATOM     21  O   UNL     1      32.341  -5.344 -25.472  0.00  0.00    -0.126 OA
ATOM     22  N   UNL     1      31.497  -5.315 -24.544  0.00  0.00    +0.058 N 
ENDBRANCH  10  22
TORSDOF 2
ENDMDL
MODEL 3
REMARK VINA RESULT:      -9.8      2.582      4.873
REMARK  Name = 4506
REMARK  2 active torsions:
REMARK  status: ('A' for Active; 'I' for Inactive)
REMARK    1  A    between atoms: C_6  and  C_14
REMARK    2  A    between atoms: C_10  and  N_22
REMARK                            x       y       z     vdW  Elec       q    Type
REMARK                         _______ _______ _______ _____ _____    ______ ____
ROOT
ATOM      1  O   UNL     1      36.908 -21.673 -19.374  0.00  0.00    -0.273 OA
ATOM      2  N   UNL     1      35.023 -22.492 -18.364  0.00  0.00    -0.282 N 
ATOM      3  N   UNL     1      37.128 -22.404 -16.201  0.00  0.00    -0.261 NA
ATOM      4  C   UNL     1      34.774 -23.112 -15.965  0.00  0.00    +0.032 C 
ATOM      5  C   UNL     1      34.250 -22.864 -17.244  0.00  0.00    +0.052 C 
ATOM      6  C   UNL     1      36.245 -23.205 -15.713  0.00  0.00    +0.078 C 
ATOM      7  C   UNL     1      33.901 -23.397 -14.903  0.00  0.00    +0.027 C 
ATOM      8  C   UNL     1      32.871 -23.011 -17.458  0.00  0.00    +0.016 C 
ATOM      9  C   UNL     1      36.692 -21.298 -17.026  0.00  0.00    +0.210 C 
ATOM     10  C   UNL     1      32.527 -23.491 -15.121  0.00  0.00    +0.143 C 
ATOM     11  C   UNL     1      36.244 -21.853 -18.352  0.00  0.00    +0.251 C 
ATOM     12  C   UNL     1      32.015 -23.315 -16.401  0.00  0.00    +0.025 C 
ATOM     13  H   UNL     1      34.650 -22.712 -19.248  0.00  0.00    +0.155 HD
ENDROOT
BRANCH   6  14
ATOM     14  C   UNL     1      36.755 -24.321 -14.864  0.00  0.00    +0.017 C 
ATOM     15  C   UNL     1      36.546 -25.635 -15.260  0.00  0.00    +0.001 C 
ATOM     16  C   UNL     1      37.433 -24.032 -13.687  0.00  0.00    +0.001 C 
ATOM     17  C   UNL     1      37.022 -26.678 -14.466  0.00  0.00    +0.000 C 
ATOM     18  C   UNL     1      37.911 -25.074 -12.893  0.00  0.00    +0.000 C 
ATOM     19  C   UNL     1      37.705 -26.397 -13.282  0.00  0.00    +0.000 C 
ENDBRANCH   6  14
BRANCH  10  22
ATOM     20  O   UNL     1      30.491 -23.328 -14.051  0.00  0.00    -0.126 OA
ATOM     21  O   UNL     1      32.073 -24.525 -13.110  0.00  0.00    -0.126 OA
ATOM     22  N   UNL     1      31.655 -23.796 -14.042  0.00  0.00    +0.058 N 
ENDBRANCH  10  22
TORSDOF 2
ENDMDL
MODEL 4
REMARK VINA RESULT:      -9.7     10.704     13.134
REMARK  Name = 4506
REMARK  2 active torsions:
REMARK  status: ('A' for Active; 'I' for Inactive)
REMARK    1  A    between atoms: C_6  and  C_14
REMARK    2  A    between atoms: C_10  and  N_22
REMARK                            x       y       z     vdW  Elec       q    Type
REMARK                         _______ _______ _______ _____ _____    ______ ____
ROOT
ATOM      1  O   UNL     1      34.484 -16.668 -25.912  0.00  0.00    -0.273 OA
ATOM      2  N   UNL     1      33.877 -15.731 -23.913  0.00  0.00    -0.282 N 
ATOM      3  N   UNL     1      33.459 -13.570 -25.979  0.00  0.00    -0.261 NA
ATOM      4  C   UNL     1      32.999 -13.428 -23.557  0.00  0.00    +0.032 C 
ATOM      5  C   UNL     1      33.285 -14.730 -23.115  0.00  0.00    +0.052 C 
ATOM      6  C   UNL     1      33.486 -12.910 -24.873  0.00  0.00    +0.078 C 
ATOM      7  C   UNL     1      32.333 -12.536 -22.701  0.00  0.00    +0.027 C 
ATOM      8  C   UNL     1      32.995 -15.080 -21.788  0.00  0.00    +0.016 C 
ATOM      9  C   UNL     1      32.884 -14.897 -25.992  0.00  0.00    +0.210 C 
ATOM     10  C   UNL     1      32.007 -12.915 -21.399  0.00  0.00    +0.143 C 
ATOM     11  C   UNL     1      33.837 -15.826 -25.287  0.00  0.00    +0.251 C 
ATOM     12  C   UNL     1      32.353 -14.180 -20.937  0.00  0.00    +0.025 C 
ATOM     13  H   UNL     1      34.370 -16.438 -23.438  0.00  0.00    +0.155 HD
ENDROOT
BRANCH   6  14
ATOM     14  C   UNL     1      34.085 -11.545 -24.926  0.00  0.00    +0.017 C 
ATOM     15  C   UNL     1      34.956 -11.217 -25.956  0.00  0.00    +0.001 C 
ATOM     16  C   UNL     1      33.763 -10.618 -23.943  0.00  0.00    +0.001 C 
ATOM     17  C   UNL     1      35.516  -9.940 -26.004  0.00  0.00    +0.000 C 
ATOM     18  C   UNL     1      34.322  -9.341 -23.991  0.00  0.00    +0.000 C 
ATOM     19  C   UNL     1      35.199  -9.002 -25.022  0.00  0.00    +0.000 C 
ENDBRANCH   6  14
BRANCH  10  22
ATOM     20  O   UNL     1      31.777 -11.852 -19.366  0.00  0.00    -0.126 OA
ATOM     21  O   UNL     1      30.358 -11.362 -20.967  0.00  0.00    -0.126 OA
ATOM     22  N   UNL     1      31.349 -11.999 -20.536  0.00  0.00    +0.058 N 
ENDBRANCH  10  22
TORSDOF 2
ENDMDL
MODEL 5
REMARK VINA RESULT:      -9.6      2.813      5.848
REMARK  Name = 4506
REMARK  2 active torsions:
REMARK  status: ('A' for Active; 'I' for Inactive)
REMARK    1  A    between atoms: C_6  and  C_14
REMARK    2  A    between atoms: C_10  and  N_22
REMARK                            x       y       z     vdW  Elec       q    Type
REMARK                         _______ _______ _______ _____ _____    ______ ____
ROOT
ATOM      1  O   UNL     1      35.180 -20.651 -19.918  0.00  0.00    -0.273 OA
ATOM      2  N   UNL     1      36.054 -21.534 -17.994  0.00  0.00    -0.282 N 
ATOM      3  N   UNL     1      33.365 -22.862 -18.346  0.00  0.00    -0.261 NA
ATOM      4  C   UNL     1      35.009 -23.273 -16.550  0.00  0.00    +0.032 C 
ATOM      5  C   UNL     1      36.091 -22.464 -16.934  0.00  0.00    +0.052 C 
ATOM      6  C   UNL     1      33.634 -23.078 -17.105  0.00  0.00    +0.078 C 
ATOM      7  C   UNL     1      35.183 -24.222 -15.530  0.00  0.00    +0.027 C 
ATOM      8  C   UNL     1      37.295 -22.547 -16.218  0.00  0.00    +0.016 C 
ATOM      9  C   UNL     1      34.448 -22.840 -19.305  0.00  0.00    +0.210 C 
ATOM     10  C   UNL     1      36.402 -24.327 -14.860  0.00  0.00    +0.143 C 
ATOM     11  C   UNL     1      35.230 -21.569 -19.098  0.00  0.00    +0.251 C 
ATOM     12  C   UNL     1      37.451 -23.478 -15.192  0.00  0.00    +0.025 C 
ATOM     13  H   UNL     1      36.685 -20.781 -17.941  0.00  0.00    +0.155 HD
ENDROOT
BRANCH   6  14
ATOM     14  C   UNL     1      32.475 -23.097 -16.165  0.00  0.00    +0.017 C 
ATOM     15  C   UNL     1      32.703 -23.128 -14.796  0.00  0.00    +0.001 C 
ATOM     16  C   UNL     1      31.182 -23.082 -16.673  0.00  0.00    +0.001 C 
ATOM     17  C   UNL     1      31.619 -23.146 -13.918  0.00  0.00    +0.000 C 
ATOM     18  C   UNL     1      30.098 -23.099 -15.796  0.00  0.00    +0.000 C 
ATOM     19  C   UNL     1      30.316 -23.132 -14.418  0.00  0.00    +0.000 C 
ENDBRANCH   6  14
BRANCH  10  22
ATOM     20  O   UNL     1      37.164 -26.353 -14.064  0.00  0.00    -0.126 OA
ATOM     21  O   UNL     1      36.094 -25.023 -12.683  0.00  0.00    -0.126 OA
ATOM     22  N   UNL     1      36.561 -25.280 -13.819  0.00  0.00    +0.058 N 
ENDBRANCH  10  22
TORSDOF 2
ENDMDL
MODEL 6
REMARK VINA RESULT:      -9.5     10.502     13.355
REMARK  Name = 4506
REMARK  2 active torsions:
REMARK  status: ('A' for Active; 'I' for Inactive)
REMARK    1  A    between atoms: C_6  and  C_14
REMARK    2  A    between atoms: C_10  and  N_22
REMARK                            x       y       z     vdW  Elec       q    Type
REMARK                         _______ _______ _______ _____ _____    ______ ____
ROOT
ATOM      1  O   UNL     1      32.230  -9.228 -20.975  0.00  0.00    -0.273 OA
ATOM      2  N   UNL     1      33.107 -10.183 -22.863  0.00  0.00    -0.282 N 
ATOM      3  N   UNL     1      31.695 -12.419 -21.406  0.00  0.00    -0.261 NA
ATOM      4  C   UNL     1      32.874 -12.559 -23.571  0.00  0.00    +0.032 C 
ATOM      5  C   UNL     1      33.247 -11.225 -23.803  0.00  0.00    +0.052 C 
ATOM      6  C   UNL     1      32.474 -13.048 -22.216  0.00  0.00    +0.078 C 
ATOM      7  C   UNL     1      32.984 -13.499 -24.609  0.00  0.00    +0.027 C 
ATOM      8  C   UNL     1      33.824 -10.881 -25.035  0.00  0.00    +0.016 C 
ATOM      9  C   UNL     1      31.115 -11.161 -21.824  0.00  0.00    +0.210 C 
ATOM     10  C   UNL     1      33.513 -13.130 -25.845  0.00  0.00    +0.143 C 
ATOM     11  C   UNL     1      32.205 -10.121 -21.823  0.00  0.00    +0.251 C 
ATOM     12  C   UNL     1      33.949 -11.826 -26.052  0.00  0.00    +0.025 C 
ATOM     13  H   UNL     1      33.718  -9.417 -22.960  0.00  0.00    +0.155 HD
ENDROOT
BRANCH   6  14
ATOM     14  C   UNL     1      33.035 -14.343 -21.730  0.00  0.00    +0.017 C 
ATOM     15  C   UNL     1      34.381 -14.622 -21.920  0.00  0.00    +0.001 C 
ATOM     16  C   UNL     1      32.202 -15.253 -21.092  0.00  0.00    +0.001 C 
ATOM     17  C   UNL     1      34.905 -15.832 -21.467  0.00  0.00    +0.000 C 
ATOM     18  C   UNL     1      32.725 -16.463 -20.637  0.00  0.00    +0.000 C 
ATOM     19  C   UNL     1      34.077 -16.753 -20.824  0.00  0.00    +0.000 C 
ENDBRANCH   6  14
BRANCH  10  22
ATOM     20  O   UNL     1      33.951 -13.710 -28.033  0.00  0.00    -0.126 OA
ATOM     21  O   UNL     1      33.423 -15.302 -26.617  0.00  0.00    -0.126 OA
ATOM     22  N   UNL     1      33.635 -14.094 -26.882  0.00  0.00    +0.058 N 
ENDBRANCH  10  22
TORSDOF 2
ENDMDL
MODEL 7
REMARK VINA RESULT:      -9.2     13.486     15.803
REMARK  Name = 4506
REMARK  2 active torsions:
REMARK  status: ('A' for Active; 'I' for Inactive)
REMARK    1  A    between atoms: C_6  and  C_14
REMARK    2  A    between atoms: C_10  and  N_22
REMARK                            x       y       z     vdW  Elec       q    Type
REMARK                         _______ _______ _______ _____ _____    ______ ____
ROOT
ATOM      1  O   UNL     1      30.400 -10.779 -18.793  0.00  0.00    -0.273 OA
ATOM      2  N   UNL     1      31.253 -11.388 -20.829  0.00  0.00    -0.282 N 
ATOM      3  N   UNL     1      31.982  -8.479 -20.483  0.00  0.00    -0.261 NA
ATOM      4  C   UNL     1      32.560  -9.947 -22.383  0.00  0.00    +0.032 C 
ATOM      5  C   UNL     1      32.054 -11.192 -21.973  0.00  0.00    +0.052 C 
ATOM      6  C   UNL     1      32.124  -8.664 -21.750  0.00  0.00    +0.078 C 
ATOM      7  C   UNL     1      33.415  -9.880 -23.495  0.00  0.00    +0.027 C 
ATOM      8  C   UNL     1      32.327 -12.329 -22.747  0.00  0.00    +0.016 C 
ATOM      9  C   UNL     1      32.298  -9.561 -19.576  0.00  0.00    +0.210 C 
ATOM     10  C   UNL     1      33.718 -11.028 -24.226  0.00  0.00    +0.143 C 
ATOM     11  C   UNL     1      31.218 -10.603 -19.697  0.00  0.00    +0.251 C 
ATOM     12  C   UNL     1      33.160 -12.249 -23.862  0.00  0.00    +0.025 C 
ATOM     13  H   UNL     1      30.656 -12.172 -20.839  0.00  0.00    +0.155 HD
ENDROOT
BRANCH   6  14
ATOM     14  C   UNL     1      31.790  -7.510 -22.634  0.00  0.00    +0.017 C 
ATOM     15  C   UNL     1      31.105  -7.730 -23.822  0.00  0.00    +0.001 C 
ATOM     16  C   UNL     1      32.167  -6.227 -22.258  0.00  0.00    +0.001 C 
ATOM     17  C   UNL     1      30.794  -6.651 -24.648  0.00  0.00    +0.000 C 
ATOM     18  C   UNL     1      31.855  -5.147 -23.083  0.00  0.00    +0.000 C 
ATOM     19  C   UNL     1      31.168  -5.359 -24.278  0.00  0.00    +0.000 C 
ENDBRANCH   6  14
BRANCH  10  22
ATOM     20  O   UNL     1      34.343 -11.687 -26.345  0.00  0.00    -0.126 OA
ATOM     21  O   UNL     1      35.527 -10.134 -25.342  0.00  0.00    -0.126 OA
ATOM     22  N   UNL     1      34.571 -10.946 -25.359  0.00  0.00    +0.058 N 
ENDBRANCH  10  22
TORSDOF 2
ENDMDL
MODEL 8
REMARK VINA RESULT:      -9.0      1.523      4.737
REMARK  Name = 4506
REMARK  2 active torsions:
REMARK  status: ('A' for Active; 'I' for Inactive)
REMARK    1  A    between atoms: C_6  and  C_14
REMARK    2  A    between atoms: C_10  and  N_22
REMARK                            x       y       z     vdW  Elec       q    Type
REMARK                         _______ _______ _______ _____ _____    ______ ____
ROOT
ATOM      1  O   UNL     1      27.789 -24.292 -17.113  0.00  0.00    -0.273 OA
ATOM      2  N   UNL     1      29.611 -24.807 -15.825  0.00  0.00    -0.282 N 
ATOM      3  N   UNL     1      30.325 -22.242 -17.248  0.00  0.00    -0.261 NA
ATOM      4  C   UNL     1      31.705 -23.476 -15.614  0.00  0.00    +0.032 C 
ATOM      5  C   UNL     1      30.851 -24.519 -15.218  0.00  0.00    +0.052 C 
ATOM      6  C   UNL     1      31.471 -22.688 -16.863  0.00  0.00    +0.078 C 
ATOM      7  C   UNL     1      32.880 -23.230 -14.886  0.00  0.00    +0.027 C 
ATOM      8  C   UNL     1      31.244 -25.363 -14.169  0.00  0.00    +0.016 C 
ATOM      9  C   UNL     1      29.166 -22.471 -16.413  0.00  0.00    +0.210 C 
ATOM     10  C   UNL     1      33.233 -24.048 -13.813  0.00  0.00    +0.143 C 
ATOM     11  C   UNL     1      28.801 -23.929 -16.511  0.00  0.00    +0.251 C 
ATOM     12  C   UNL     1      32.424 -25.123 -13.465  0.00  0.00    +0.025 C 
ATOM     13  H   UNL     1      29.289 -25.734 -15.748  0.00  0.00    +0.155 HD
ENDROOT
BRANCH   6  14
ATOM     14  C   UNL     1      32.629 -22.414 -17.762  0.00  0.00    +0.017 C 
ATOM     15  C   UNL     1      33.853 -23.018 -17.508  0.00  0.00    +0.001 C 
ATOM     16  C   UNL     1      32.469 -21.558 -18.844  0.00  0.00    +0.001 C 
ATOM     17  C   UNL     1      34.936 -22.761 -18.349  0.00  0.00    +0.000 C 
ATOM     18  C   UNL     1      33.550 -21.301 -19.686  0.00  0.00    +0.000 C 
ATOM     19  C   UNL     1      34.785 -21.903 -19.438  0.00  0.00    +0.000 C 
ENDBRANCH   6  14
BRANCH  10  22
ATOM     20  O   UNL     1      34.501 -24.142 -11.889  0.00  0.00    -0.126 OA
ATOM     21  O   UNL     1      35.391 -23.245 -13.684  0.00  0.00    -0.126 OA
ATOM     22  N   UNL     1      34.433 -23.799 -13.094  0.00  0.00    +0.058 N 
ENDBRANCH  10  22
TORSDOF 2
ENDMDL
MODEL 9
REMARK VINA RESULT:      -9.0      3.422      5.335
REMARK  Name = 4506
REMARK  2 active torsions:
REMARK  status: ('A' for Active; 'I' for Inactive)
REMARK    1  A    between atoms: C_6  and  C_14
REMARK    2  A    between atoms: C_10  and  N_22
REMARK                            x       y       z     vdW  Elec       q    Type
REMARK                         _______ _______ _______ _____ _____    ______ ____
ROOT
ATOM      1  O   UNL     1      36.532 -26.004 -11.422  0.00  0.00    -0.273 OA
ATOM      2  N   UNL     1      37.113 -25.042 -13.417  0.00  0.00    -0.282 N 
ATOM      3  N   UNL     1      34.495 -23.759 -12.631  0.00  0.00    -0.261 NA
ATOM      4  C   UNL     1      35.859 -23.265 -14.630  0.00  0.00    +0.032 C 
ATOM      5  C   UNL     1      36.990 -24.074 -14.436  0.00  0.00    +0.052 C 
ATOM      6  C   UNL     1      34.580 -23.495 -13.889  0.00  0.00    +0.078 C 
ATOM      7  C   UNL     1      35.877 -22.277 -15.627  0.00  0.00    +0.027 C 
ATOM      8  C   UNL     1      38.077 -23.952 -15.315  0.00  0.00    +0.016 C 
ATOM      9  C   UNL     1      35.706 -23.804 -11.840  0.00  0.00    +0.210 C 
ATOM     10  C   UNL     1      36.985 -22.133 -16.462  0.00  0.00    +0.143 C 
ATOM     11  C   UNL     1      36.457 -25.057 -12.206  0.00  0.00    +0.251 C 
ATOM     12  C   UNL     1      38.077 -22.982 -16.317  0.00  0.00    +0.025 C 
ATOM     13  H   UNL     1      37.735 -25.786 -13.590  0.00  0.00    +0.155 HD
ENDROOT
BRANCH   6  14
ATOM     14  C   UNL     1      33.297 -23.456 -14.650  0.00  0.00    +0.017 C 
ATOM     15  C   UNL     1      33.323 -23.374 -16.035  0.00  0.00    +0.001 C 
ATOM     16  C   UNL     1      32.091 -23.503 -13.962  0.00  0.00    +0.001 C 
ATOM     17  C   UNL     1      32.124 -23.337 -16.746  0.00  0.00    +0.000 C 
ATOM     18  C   UNL     1      30.892 -23.467 -14.671  0.00  0.00    +0.000 C 
ATOM     19  C   UNL     1      30.907 -23.383 -16.064  0.00  0.00    +0.000 C 
ENDBRANCH   6  14
BRANCH  10  22
ATOM     20  O   UNL     1      36.377 -21.372 -18.552  0.00  0.00    -0.126 OA
ATOM     21  O   UNL     1      37.594 -20.063 -17.276  0.00  0.00    -0.126 OA
ATOM     22  N   UNL     1      36.985 -21.142 -17.479  0.00  0.00    +0.058 N 
ENDBRANCH  10  22
TORSDOF 2
ENDMDL
