MODEL 1
REMARK VINA RESULT:     -12.1      0.000      0.000
REMARK  Name = 9999276
REMARK  5 active torsions:
REMARK  status: ('A' for Active; 'I' for Inactive)
REMARK    1  A    between atoms: C_3  and  C_11
REMARK    2  A    between atoms: C_6  and  C_20
REMARK    3  A    between atoms: C_14  and  N_19
REMARK    4  A    between atoms: C_25  and  C_27
REMARK    5  A    between atoms: C_27  and  O_28
REMARK                            x       y       z     vdW  Elec       q    Type
REMARK                         _______ _______ _______ _____ _____    ______ ____
ROOT
ATOM      1  N   UNL     1      34.767 -23.029 -16.667  0.00  0.00    -0.400 NA
ATOM      2  N   UNL     1      32.876 -24.845 -14.127  0.00  0.00    -0.242 NA
ATOM      3  C   UNL     1      34.421 -23.762 -15.582  0.00  0.00    +0.149 C 
ATOM      4  C   UNL     1      33.128 -24.110 -15.227  0.00  0.00    +0.107 C 
ATOM      5  C   UNL     1      32.107 -23.654 -16.078  0.00  0.00    +0.005 C 
ATOM      6  C   UNL     1      33.757 -22.613 -17.455  0.00  0.00    +0.131 C 
ATOM      7  C   UNL     1      32.424 -22.894 -17.211  0.00  0.00    +0.030 C 
ATOM      8  C   UNL     1      30.784 -23.985 -15.754  0.00  0.00    +0.056 C 
ATOM      9  C   UNL     1      30.514 -24.742 -14.622  0.00  0.00    -0.001 C 
ATOM     10  C   UNL     1      31.585 -25.144 -13.848  0.00  0.00    +0.095 C 
ENDROOT
BRANCH   3  11
ATOM     11  C   UNL     1      35.559 -24.173 -14.785  0.00  0.00    +0.033 C 
ATOM     12  C   UNL     1      35.952 -23.410 -13.687  0.00  0.00    +0.027 C 
ATOM     13  C   UNL     1      36.260 -25.331 -15.120  0.00  0.00    +0.003 C 
ATOM     14  C   UNL     1      37.048 -23.806 -12.920  0.00  0.00    +0.143 C 
ATOM     15  C   UNL     1      37.356 -25.727 -14.353  0.00  0.00    +0.002 C 
ATOM     16  C   UNL     1      37.751 -24.964 -13.254  0.00  0.00    +0.024 C 
BRANCH  14  19
ATOM     17  O   UNL     1      36.894 -23.234 -10.696  0.00  0.00    -0.126 OA
ATOM     18  O   UNL     1      38.345 -22.167 -11.956  0.00  0.00    -0.126 OA
ATOM     19  N   UNL     1      37.449 -23.029 -11.801  0.00  0.00    +0.058 N 
ENDBRANCH  14  19
ENDBRANCH   3  11
BRANCH   6  20
ATOM     20  C   UNL     1      34.157 -21.834 -18.603  0.00  0.00    +0.030 C 
ATOM     21  C   UNL     1      35.507 -21.726 -18.942  0.00  0.00    +0.003 C 
ATOM     22  C   UNL     1      33.193 -21.183 -19.377  0.00  0.00    +0.003 C 
ATOM     23  C   UNL     1      35.893 -20.974 -20.052  0.00  0.00    +0.007 C 
ATOM     24  C   UNL     1      33.580 -20.430 -20.487  0.00  0.00    +0.007 C 
ATOM     25  C   UNL     1      34.928 -20.326 -20.823  0.00  0.00    +0.075 C 
BRANCH  25  27
ATOM     26  O   UNL     1      34.800 -19.585 -23.095  0.00  0.00    -0.245 OA
ATOM     27  C   UNL     1      35.330 -19.540 -21.980  0.00  0.00    +0.338 C 
BRANCH  27  28
ATOM     28  O   UNL     1      36.381 -18.718 -21.712  0.00  0.00    -0.477 OA
ATOM     29  H   UNL     1      37.148 -19.058 -21.293  0.00  0.00    +0.295 HD
ENDBRANCH  27  28
ENDBRANCH  25  27
ENDBRANCH   6  20
TORSDOF 5
ENDMDL
MODEL 2
REMARK VINA RESULT:     -11.6      1.784      2.202
REMARK  Name = 9999276
REMARK  5 active torsions:
REMARK  status: ('A' for Active; 'I' for Inactive)
REMARK    1  A    between atoms: C_3  and  C_11
REMARK    2  A    between atoms: C_6  and  C_20
REMARK    3  A    between atoms: C_14  and  N_19
REMARK    4  A    between atoms: C_25  and  C_27
REMARK    5  A    between atoms: C_27  and  O_28
REMARK                            x       y       z     vdW  Elec       q    Type
REMARK                         _______ _______ _______ _____ _____    ______ ____
ROOT
ATOM      1  N   UNL     1      34.740 -22.868 -16.779  0.00  0.00    -0.400 NA
ATOM      2  N   UNL     1      32.918 -24.721 -14.215  0.00  0.00    -0.242 NA
ATOM      3  C   UNL     1      34.421 -23.596 -15.682  0.00  0.00    +0.149 C 
ATOM      4  C   UNL     1      33.143 -23.995 -15.328  0.00  0.00    +0.107 C 
ATOM      5  C   UNL     1      32.107 -23.601 -16.191  0.00  0.00    +0.005 C 
ATOM      6  C   UNL     1      33.716 -22.512 -17.580  0.00  0.00    +0.131 C 
ATOM      7  C   UNL     1      32.396 -22.848 -17.336  0.00  0.00    +0.030 C 
ATOM      8  C   UNL     1      30.799 -23.986 -15.868  0.00  0.00    +0.056 C 
ATOM      9  C   UNL     1      30.556 -24.734 -14.723  0.00  0.00    -0.001 C 
ATOM     10  C   UNL     1      31.640 -25.073 -13.938  0.00  0.00    +0.095 C 
ENDROOT
BRANCH   3  11
ATOM     11  C   UNL     1      35.572 -23.941 -14.873  0.00  0.00    +0.033 C 
ATOM     12  C   UNL     1      36.332 -25.066 -15.189  0.00  0.00    +0.027 C 
ATOM     13  C   UNL     1      35.916 -23.148 -13.779  0.00  0.00    +0.003 C 
ATOM     14  C   UNL     1      37.440 -25.398 -14.409  0.00  0.00    +0.143 C 
ATOM     15  C   UNL     1      37.024 -23.480 -13.000  0.00  0.00    +0.002 C 
ATOM     16  C   UNL     1      37.785 -24.606 -13.314  0.00  0.00    +0.024 C 
BRANCH  14  19
ATOM     17  O   UNL     1      37.644 -27.533 -15.246  0.00  0.00    -0.126 OA
ATOM     18  O   UNL     1      39.444 -26.528 -14.485  0.00  0.00    -0.126 OA
ATOM     19  N   UNL     1      38.216 -26.544 -14.729  0.00  0.00    +0.058 N 
ENDBRANCH  14  19
ENDBRANCH   3  11
BRANCH   6  20
ATOM     20  C   UNL     1      34.087 -21.736 -18.739  0.00  0.00    +0.030 C 
ATOM     21  C   UNL     1      33.107 -21.086 -19.492  0.00  0.00    +0.003 C 
ATOM     22  C   UNL     1      35.429 -21.636 -19.113  0.00  0.00    +0.003 C 
ATOM     23  C   UNL     1      33.467 -20.335 -20.611  0.00  0.00    +0.007 C 
ATOM     24  C   UNL     1      35.789 -20.885 -20.234  0.00  0.00    +0.007 C 
ATOM     25  C   UNL     1      34.808 -20.236 -20.982  0.00  0.00    +0.075 C 
BRANCH  25  27
ATOM     26  O   UNL     1      34.630 -19.505 -23.254  0.00  0.00    -0.245 OA
ATOM     27  C   UNL     1      35.184 -19.455 -22.150  0.00  0.00    +0.338 C 
BRANCH  27  28
ATOM     28  O   UNL     1      36.241 -18.631 -21.908  0.00  0.00    -0.477 OA
ATOM     29  H   UNL     1      36.224 -17.744 -22.210  0.00  0.00    +0.295 HD
ENDBRANCH  27  28
ENDBRANCH  25  27
ENDBRANCH   6  20
TORSDOF 5
ENDMDL
MODEL 3
REMARK VINA RESULT:     -11.1      3.292      5.343
REMARK  Name = 9999276
REMARK  5 active torsions:
REMARK  status: ('A' for Active; 'I' for Inactive)
REMARK    1  A    between atoms: C_3  and  C_11
REMARK    2  A    between atoms: C_6  and  C_20
REMARK    3  A    between atoms: C_14  and  N_19
REMARK    4  A    between atoms: C_25  and  C_27
REMARK    5  A    between atoms: C_27  and  O_28
REMARK                            x       y       z     vdW  Elec       q    Type
REMARK                         _______ _______ _______ _____ _____    ______ ____
ROOT
ATOM      1  N   UNL     1      33.215 -22.569 -17.466  0.00  0.00    -0.400 NA
ATOM      2  N   UNL     1      34.063 -24.454 -14.457  0.00  0.00    -0.242 NA
ATOM      3  C   UNL     1      33.144 -23.307 -16.333  0.00  0.00    +0.149 C 
ATOM      4  C   UNL     1      34.227 -23.720 -15.575  0.00  0.00    +0.107 C 
ATOM      5  C   UNL     1      35.495 -23.329 -16.039  0.00  0.00    +0.005 C 
ATOM      6  C   UNL     1      34.449 -22.215 -17.874  0.00  0.00    +0.131 C 
ATOM      7  C   UNL     1      35.609 -22.564 -17.207  0.00  0.00    +0.030 C 
ATOM      8  C   UNL     1      36.617 -23.726 -15.299  0.00  0.00    +0.056 C 
ATOM      9  C   UNL     1      36.458 -24.483 -14.146  0.00  0.00    -0.001 C 
ATOM     10  C   UNL     1      35.172 -24.818 -13.771  0.00  0.00    +0.095 C 
ENDROOT
BRANCH   3  11
ATOM     11  C   UNL     1      31.786 -23.646 -15.958  0.00  0.00    +0.033 C 
ATOM     12  C   UNL     1      30.713 -23.098 -16.657  0.00  0.00    +0.027 C 
ATOM     13  C   UNL     1      31.557 -24.520 -14.895  0.00  0.00    +0.003 C 
ATOM     14  C   UNL     1      29.406 -23.425 -16.295  0.00  0.00    +0.143 C 
ATOM     15  C   UNL     1      30.250 -24.847 -14.534  0.00  0.00    +0.002 C 
ATOM     16  C   UNL     1      29.175 -24.298 -15.233  0.00  0.00    +0.024 C 
BRANCH  14  19
ATOM     17  O   UNL     1      27.906 -21.724 -16.689  0.00  0.00    -0.126 OA
ATOM     18  O   UNL     1      27.789 -23.534 -17.930  0.00  0.00    -0.126 OA
ATOM     19  N   UNL     1      28.311 -22.867 -17.007  0.00  0.00    +0.058 N 
ENDBRANCH  14  19
ENDBRANCH   3  11
BRANCH   6  20
ATOM     20  C   UNL     1      34.492 -21.430 -19.085  0.00  0.00    +0.030 C 
ATOM     21  C   UNL     1      33.307 -21.002 -19.687  0.00  0.00    +0.003 C 
ATOM     22  C   UNL     1      35.721 -21.096 -19.659  0.00  0.00    +0.003 C 
ATOM     23  C   UNL     1      33.349 -20.243 -20.856  0.00  0.00    +0.007 C 
ATOM     24  C   UNL     1      35.763 -20.336 -20.829  0.00  0.00    +0.007 C 
ATOM     25  C   UNL     1      34.578 -19.910 -21.427  0.00  0.00    +0.075 C 
BRANCH  25  27
ATOM     26  O   UNL     1      34.683 -19.574 -23.794  0.00  0.00    -0.245 OA
ATOM     27  C   UNL     1      34.623 -19.119 -22.647  0.00  0.00    +0.338 C 
BRANCH  27  28
ATOM     28  O   UNL     1      34.590 -17.781 -22.400  0.00  0.00    -0.477 OA
ATOM     29  H   UNL     1      35.388 -17.308 -22.264  0.00  0.00    +0.295 HD
ENDBRANCH  27  28
ENDBRANCH  25  27
ENDBRANCH   6  20
TORSDOF 5
ENDMDL
MODEL 4
REMARK VINA RESULT:      -9.8      2.157      7.022
REMARK  Name = 9999276
REMARK  5 active torsions:
REMARK  status: ('A' for Active; 'I' for Inactive)
REMARK    1  A    between atoms: C_3  and  C_11
REMARK    2  A    between atoms: C_6  and  C_20
REMARK    3  A    between atoms: C_14  and  N_19
REMARK    4  A    between atoms: C_25  and  C_27
REMARK    5  A    between atoms: C_27  and  O_28
REMARK                            x       y       z     vdW  Elec       q    Type
REMARK                         _______ _______ _______ _____ _____    ______ ____
ROOT
ATOM      1  N   UNL     1      35.004 -23.182 -16.947  0.00  0.00    -0.400 NA
ATOM      2  N   UNL     1      31.413 -22.557 -17.151  0.00  0.00    -0.242 NA
ATOM      3  C   UNL     1      33.782 -22.743 -17.332  0.00  0.00    +0.149 C 
ATOM      4  C   UNL     1      32.587 -23.040 -16.699  0.00  0.00    +0.107 C 
ATOM      5  C   UNL     1      32.673 -23.867 -15.566  0.00  0.00    +0.005 C 
ATOM      6  C   UNL     1      35.041 -23.972 -15.856  0.00  0.00    +0.131 C 
ATOM      7  C   UNL     1      33.919 -24.341 -15.136  0.00  0.00    +0.030 C 
ATOM      8  C   UNL     1      31.485 -24.191 -14.896  0.00  0.00    +0.056 C 
ATOM      9  C   UNL     1      30.271 -23.698 -15.355  0.00  0.00    -0.001 C 
ATOM     10  C   UNL     1      30.289 -22.893 -16.477  0.00  0.00    +0.095 C 
ENDROOT
BRANCH   3  11
ATOM     11  C   UNL     1      33.824 -21.900 -18.509  0.00  0.00    +0.033 C 
ATOM     12  C   UNL     1      35.046 -21.421 -18.979  0.00  0.00    +0.027 C 
ATOM     13  C   UNL     1      32.641 -21.568 -19.169  0.00  0.00    +0.003 C 
ATOM     14  C   UNL     1      35.085 -20.610 -20.113  0.00  0.00    +0.143 C 
ATOM     15  C   UNL     1      32.681 -20.757 -20.303  0.00  0.00    +0.002 C 
ATOM     16  C   UNL     1      33.903 -20.276 -20.774  0.00  0.00    +0.024 C 
BRANCH  14  19
ATOM     17  O   UNL     1      37.372 -20.765 -20.329  0.00  0.00    -0.126 OA
ATOM     18  O   UNL     1      36.343 -19.064 -21.265  0.00  0.00    -0.126 OA
ATOM     19  N   UNL     1      36.329 -20.121 -20.593  0.00  0.00    +0.058 N 
ENDBRANCH  14  19
ENDBRANCH   3  11
BRANCH   6  20
ATOM     20  C   UNL     1      36.357 -24.425 -15.472  0.00  0.00    +0.030 C 
ATOM     21  C   UNL     1      37.436 -23.539 -15.485  0.00  0.00    +0.003 C 
ATOM     22  C   UNL     1      36.555 -25.753 -15.086  0.00  0.00    +0.003 C 
ATOM     23  C   UNL     1      38.707 -23.976 -15.113  0.00  0.00    +0.007 C 
ATOM     24  C   UNL     1      37.827 -26.191 -14.714  0.00  0.00    +0.007 C 
ATOM     25  C   UNL     1      38.902 -25.303 -14.728  0.00  0.00    +0.075 C 
BRANCH  25  27
ATOM     26  O   UNL     1      40.628 -26.928 -14.404  0.00  0.00    -0.245 OA
ATOM     27  C   UNL     1      40.227 -25.761 -14.341  0.00  0.00    +0.338 C 
BRANCH  27  28
ATOM     28  O   UNL     1      41.015 -24.749 -13.886  0.00  0.00    -0.477 OA
ATOM     29  H   UNL     1      40.731 -24.219 -13.167  0.00  0.00    +0.295 HD
ENDBRANCH  27  28
ENDBRANCH  25  27
ENDBRANCH   6  20
TORSDOF 5
ENDMDL
MODEL 5
REMARK VINA RESULT:      -9.7      7.367     12.651
REMARK  Name = 9999276
REMARK  5 active torsions:
REMARK  status: ('A' for Active; 'I' for Inactive)
REMARK    1  A    between atoms: C_3  and  C_11
REMARK    2  A    between atoms: C_6  and  C_20
REMARK    3  A    between atoms: C_14  and  N_19
REMARK    4  A    between atoms: C_25  and  C_27
REMARK    5  A    between atoms: C_27  and  O_28
REMARK                            x       y       z     vdW  Elec       q    Type
REMARK                         _______ _______ _______ _____ _____    ______ ____
ROOT
ATOM      1  N   UNL     1      33.531 -15.197 -22.768  0.00  0.00    -0.400 NA
ATOM      2  N   UNL     1      32.155 -11.824 -22.526  0.00  0.00    -0.242 NA
ATOM      3  C   UNL     1      33.111 -13.942 -23.055  0.00  0.00    +0.149 C 
ATOM      4  C   UNL     1      32.545 -13.058 -22.151  0.00  0.00    +0.107 C 
ATOM      5  C   UNL     1      32.404 -13.523 -20.833  0.00  0.00    +0.005 C 
ATOM      6  C   UNL     1      33.378 -15.602 -21.492  0.00  0.00    +0.131 C 
ATOM      7  C   UNL     1      32.827 -14.815 -20.496  0.00  0.00    +0.030 C 
ATOM      8  C   UNL     1      31.836 -12.659 -19.887  0.00  0.00    +0.056 C 
ATOM      9  C   UNL     1      31.431 -11.385 -20.264  0.00  0.00    -0.001 C 
ATOM     10  C   UNL     1      31.611 -11.019 -21.583  0.00  0.00    +0.095 C 
ENDROOT
BRANCH   3  11
ATOM     11  C   UNL     1      33.309 -13.579 -24.444  0.00  0.00    +0.033 C 
ATOM     12  C   UNL     1      34.090 -12.471 -24.768  0.00  0.00    +0.027 C 
ATOM     13  C   UNL     1      32.716 -14.337 -25.452  0.00  0.00    +0.003 C 
ATOM     14  C   UNL     1      34.281 -12.121 -26.105  0.00  0.00    +0.143 C 
ATOM     15  C   UNL     1      32.907 -13.988 -26.789  0.00  0.00    +0.002 C 
ATOM     16  C   UNL     1      33.688 -12.879 -27.115  0.00  0.00    +0.024 C 
BRANCH  14  19
ATOM     17  O   UNL     1      35.195 -10.071 -25.596  0.00  0.00    -0.126 OA
ATOM     18  O   UNL     1      35.633 -10.957 -27.559  0.00  0.00    -0.126 OA
ATOM     19  N   UNL     1      35.076 -10.993 -26.437  0.00  0.00    +0.058 N 
ENDBRANCH  14  19
ENDBRANCH   3  11
BRANCH   6  20
ATOM     20  C   UNL     1      33.833 -16.944 -21.217  0.00  0.00    +0.030 C 
ATOM     21  C   UNL     1      35.200 -17.230 -21.193  0.00  0.00    +0.003 C 
ATOM     22  C   UNL     1      32.908 -17.962 -20.975  0.00  0.00    +0.003 C 
ATOM     23  C   UNL     1      35.640 -18.527 -20.926  0.00  0.00    +0.007 C 
ATOM     24  C   UNL     1      33.348 -19.259 -20.709  0.00  0.00    +0.007 C 
ATOM     25  C   UNL     1      34.713 -19.541 -20.685  0.00  0.00    +0.075 C 
BRANCH  25  27
ATOM     26  O   UNL     1      36.316 -21.315 -20.596  0.00  0.00    -0.245 OA
ATOM     27  C   UNL     1      35.170 -20.894 -20.408  0.00  0.00    +0.338 C 
BRANCH  27  28
ATOM     28  O   UNL     1      34.184 -21.683 -19.901  0.00  0.00    -0.477 OA
ATOM     29  H   UNL     1      34.277 -22.064 -19.050  0.00  0.00    +0.295 HD
ENDBRANCH  27  28
ENDBRANCH  25  27
ENDBRANCH   6  20
TORSDOF 5
ENDMDL
MODEL 6
REMARK VINA RESULT:      -9.5      6.867     12.000
REMARK  Name = 9999276
REMARK  5 active torsions:
REMARK  status: ('A' for Active; 'I' for Inactive)
REMARK    1  A    between atoms: C_3  and  C_11
REMARK    2  A    between atoms: C_6  and  C_20
REMARK    3  A    between atoms: C_14  and  N_19
REMARK    4  A    between atoms: C_25  and  C_27
REMARK    5  A    between atoms: C_27  and  O_28
REMARK                            x       y       z     vdW  Elec       q    Type
REMARK                         _______ _______ _______ _____ _____    ______ ____
ROOT
ATOM      1  N   UNL     1      33.658 -15.811 -21.980  0.00  0.00    -0.400 NA
ATOM      2  N   UNL     1      32.895 -13.551 -24.743  0.00  0.00    -0.242 NA
ATOM      3  C   UNL     1      33.264 -14.743 -22.712  0.00  0.00    +0.149 C 
ATOM      4  C   UNL     1      33.311 -14.656 -24.094  0.00  0.00    +0.107 C 
ATOM      5  C   UNL     1      33.814 -15.781 -24.770  0.00  0.00    +0.005 C 
ATOM      6  C   UNL     1      34.133 -16.868 -22.668  0.00  0.00    +0.131 C 
ATOM      7  C   UNL     1      34.232 -16.905 -24.047  0.00  0.00    +0.030 C 
ATOM      8  C   UNL     1      33.878 -15.733 -26.169  0.00  0.00    +0.056 C 
ATOM      9  C   UNL     1      33.452 -14.598 -26.847  0.00  0.00    -0.001 C 
ATOM     10  C   UNL     1      32.973 -13.544 -26.094  0.00  0.00    +0.095 C 
ENDROOT
BRANCH   3  11
ATOM     11  C   UNL     1      32.765 -13.649 -21.904  0.00  0.00    +0.033 C 
ATOM     12  C   UNL     1      32.582 -12.391 -22.473  0.00  0.00    +0.027 C 
ATOM     13  C   UNL     1      32.469 -13.859 -20.557  0.00  0.00    +0.003 C 
ATOM     14  C   UNL     1      32.102 -11.338 -21.694  0.00  0.00    +0.143 C 
ATOM     15  C   UNL     1      31.989 -12.807 -19.778  0.00  0.00    +0.002 C 
ATOM     16  C   UNL     1      31.806 -11.546 -20.346  0.00  0.00    +0.024 C 
BRANCH  14  19
ATOM     17  O   UNL     1      32.151  -9.904 -23.494  0.00  0.00    -0.126 OA
ATOM     18  O   UNL     1      31.521  -9.116 -21.541  0.00  0.00    -0.126 OA
ATOM     19  N   UNL     1      31.915 -10.054 -22.272  0.00  0.00    +0.058 N 
ENDBRANCH  14  19
ENDBRANCH   3  11
BRANCH   6  20
ATOM     20  C   UNL     1      34.546 -17.990 -21.859  0.00  0.00    +0.030 C 
ATOM     21  C   UNL     1      35.899 -18.191 -21.576  0.00  0.00    +0.003 C 
ATOM     22  C   UNL     1      33.593 -18.880 -21.358  0.00  0.00    +0.003 C 
ATOM     23  C   UNL     1      36.297 -19.275 -20.794  0.00  0.00    +0.007 C 
ATOM     24  C   UNL     1      33.992 -19.964 -20.576  0.00  0.00    +0.007 C 
ATOM     25  C   UNL     1      35.343 -20.161 -20.294  0.00  0.00    +0.075 C 
BRANCH  25  27
ATOM     26  O   UNL     1      35.342 -22.450 -19.596  0.00  0.00    -0.245 OA
ATOM     27  C   UNL     1      35.758 -21.293 -19.479  0.00  0.00    +0.338 C 
BRANCH  27  28
ATOM     28  O   UNL     1      36.681 -20.947 -18.540  0.00  0.00    -0.477 OA
ATOM     29  H   UNL     1      36.643 -20.104 -18.133  0.00  0.00    +0.295 HD
ENDBRANCH  27  28
ENDBRANCH  25  27
ENDBRANCH   6  20
TORSDOF 5
ENDMDL
MODEL 7
REMARK VINA RESULT:      -9.5      2.238      4.550
REMARK  Name = 9999276
REMARK  5 active torsions:
REMARK  status: ('A' for Active; 'I' for Inactive)
REMARK    1  A    between atoms: C_3  and  C_11
REMARK    2  A    between atoms: C_6  and  C_20
REMARK    3  A    between atoms: C_14  and  N_19
REMARK    4  A    between atoms: C_25  and  C_27
REMARK    5  A    between atoms: C_27  and  O_28
REMARK                            x       y       z     vdW  Elec       q    Type
REMARK                         _______ _______ _______ _____ _____    ______ ____
ROOT
ATOM      1  N   UNL     1      34.238 -22.051 -17.853  0.00  0.00    -0.400 NA
ATOM      2  N   UNL     1      35.300 -23.901 -14.891  0.00  0.00    -0.242 NA
ATOM      3  C   UNL     1      34.249 -22.786 -16.717  0.00  0.00    +0.149 C 
ATOM      4  C   UNL     1      35.383 -23.167 -16.018  0.00  0.00    +0.107 C 
ATOM      5  C   UNL     1      36.612 -22.745 -16.552  0.00  0.00    +0.005 C 
ATOM      6  C   UNL     1      35.438 -21.667 -18.330  0.00  0.00    +0.131 C 
ATOM      7  C   UNL     1      36.642 -21.982 -17.726  0.00  0.00    +0.030 C 
ATOM      8  C   UNL     1      37.783 -23.109 -15.874  0.00  0.00    +0.056 C 
ATOM      9  C   UNL     1      37.708 -23.866 -14.712  0.00  0.00    -0.001 C 
ATOM     10  C   UNL     1      36.454 -24.232 -14.266  0.00  0.00    +0.095 C 
ENDROOT
BRANCH   3  11
ATOM     11  C   UNL     1      32.924 -23.160 -16.267  0.00  0.00    +0.033 C 
ATOM     12  C   UNL     1      32.742 -23.666 -14.981  0.00  0.00    +0.027 C 
ATOM     13  C   UNL     1      31.832 -23.013 -17.122  0.00  0.00    +0.003 C 
ATOM     14  C   UNL     1      31.466 -24.025 -14.548  0.00  0.00    +0.143 C 
ATOM     15  C   UNL     1      30.556 -23.373 -16.689  0.00  0.00    +0.002 C 
ATOM     16  C   UNL     1      30.373 -23.880 -15.402  0.00  0.00    +0.024 C 
BRANCH  14  19
ATOM     17  O   UNL     1      30.450 -23.981 -12.483  0.00  0.00    -0.126 OA
ATOM     18  O   UNL     1      31.949 -25.538 -12.881  0.00  0.00    -0.126 OA
ATOM     19  N   UNL     1      31.280 -24.541 -13.238  0.00  0.00    +0.058 N 
ENDBRANCH  14  19
ENDBRANCH   3  11
BRANCH   6  20
ATOM     20  C   UNL     1      35.394 -20.885 -19.543  0.00  0.00    +0.030 C 
ATOM     21  C   UNL     1      34.178 -20.669 -20.195  0.00  0.00    +0.003 C 
ATOM     22  C   UNL     1      36.569 -20.344 -20.070  0.00  0.00    +0.003 C 
ATOM     23  C   UNL     1      34.136 -19.914 -21.367  0.00  0.00    +0.007 C 
ATOM     24  C   UNL     1      36.526 -19.588 -21.243  0.00  0.00    +0.007 C 
ATOM     25  C   UNL     1      35.311 -19.374 -21.890  0.00  0.00    +0.075 C 
BRANCH  25  27
ATOM     26  O   UNL     1      34.562 -18.830 -24.097  0.00  0.00    -0.245 OA
ATOM     27  C   UNL     1      35.268 -18.586 -23.113  0.00  0.00    +0.338 C 
BRANCH  27  28
ATOM     28  O   UNL     1      36.108 -17.516 -23.072  0.00  0.00    -0.477 OA
ATOM     29  H   UNL     1      37.017 -17.624 -23.271  0.00  0.00    +0.295 HD
ENDBRANCH  27  28
ENDBRANCH  25  27
ENDBRANCH   6  20
TORSDOF 5
ENDMDL
MODEL 8
REMARK VINA RESULT:      -9.3      9.007     13.347
REMARK  Name = 9999276
REMARK  5 active torsions:
REMARK  status: ('A' for Active; 'I' for Inactive)
REMARK    1  A    between atoms: C_3  and  C_11
REMARK    2  A    between atoms: C_6  and  C_20
REMARK    3  A    between atoms: C_14  and  N_19
REMARK    4  A    between atoms: C_25  and  C_27
REMARK    5  A    between atoms: C_27  and  O_28
REMARK                            x       y       z     vdW  Elec       q    Type
REMARK                         _______ _______ _______ _____ _____    ______ ____
ROOT
ATOM      1  N   UNL     1      33.120 -12.351 -22.669  0.00  0.00    -0.400 NA
ATOM      2  N   UNL     1      33.466 -14.894 -25.264  0.00  0.00    -0.242 NA
ATOM      3  C   UNL     1      33.253 -13.529 -23.322  0.00  0.00    +0.149 C 
ATOM      4  C   UNL     1      33.333 -13.679 -24.697  0.00  0.00    +0.107 C 
ATOM      5  C   UNL     1      33.270 -12.498 -25.456  0.00  0.00    +0.005 C 
ATOM      6  C   UNL     1      33.063 -11.244 -23.435  0.00  0.00    +0.131 C 
ATOM      7  C   UNL     1      33.132 -11.260 -24.816  0.00  0.00    +0.030 C 
ATOM      8  C   UNL     1      33.349 -12.608 -26.851  0.00  0.00    +0.056 C 
ATOM      9  C   UNL     1      33.485 -13.856 -27.444  0.00  0.00    -0.001 C 
ATOM     10  C   UNL     1      33.539 -14.958 -26.614  0.00  0.00    +0.095 C 
ENDROOT
BRANCH   3  11
ATOM     11  C   UNL     1      33.308 -14.671 -22.433  0.00  0.00    +0.033 C 
ATOM     12  C   UNL     1      34.353 -15.587 -22.541  0.00  0.00    +0.027 C 
ATOM     13  C   UNL     1      32.313 -14.853 -21.473  0.00  0.00    +0.003 C 
ATOM     14  C   UNL     1      34.405 -16.686 -21.684  0.00  0.00    +0.143 C 
ATOM     15  C   UNL     1      32.365 -15.953 -20.616  0.00  0.00    +0.002 C 
ATOM     16  C   UNL     1      33.411 -16.870 -20.723  0.00  0.00    +0.024 C 
BRANCH  14  19
ATOM     17  O   UNL     1      35.852 -18.219 -20.759  0.00  0.00    -0.126 OA
ATOM     18  O   UNL     1      35.990 -17.815 -22.915  0.00  0.00    -0.126 OA
ATOM     19  N   UNL     1      35.470 -17.620 -21.792  0.00  0.00    +0.058 N 
ENDBRANCH  14  19
ENDBRANCH   3  11
BRANCH   6  20
ATOM     20  C   UNL     1      32.920 -10.004 -22.709  0.00  0.00    +0.030 C 
ATOM     21  C   UNL     1      33.566  -8.850 -23.156  0.00  0.00    +0.003 C 
ATOM     22  C   UNL     1      32.134  -9.955 -21.555  0.00  0.00    +0.003 C 
ATOM     23  C   UNL     1      33.427  -7.652 -22.455  0.00  0.00    +0.007 C 
ATOM     24  C   UNL     1      31.995  -8.757 -20.854  0.00  0.00    +0.007 C 
ATOM     25  C   UNL     1      32.641  -7.606 -21.304  0.00  0.00    +0.075 C 
BRANCH  25  27
ATOM     26  O   UNL     1      32.775  -6.190 -19.379  0.00  0.00    -0.245 OA
ATOM     27  C   UNL     1      32.496  -6.358 -20.571  0.00  0.00    +0.338 C 
BRANCH  27  28
ATOM     28  O   UNL     1      32.007  -5.353 -21.348  0.00  0.00    -0.477 OA
ATOM     29  H   UNL     1      32.595  -4.769 -21.785  0.00  0.00    +0.295 HD
ENDBRANCH  27  28
ENDBRANCH  25  27
ENDBRANCH   6  20
TORSDOF 5
ENDMDL
MODEL 9
REMARK VINA RESULT:      -9.2      3.774      7.208
REMARK  Name = 9999276
REMARK  5 active torsions:
REMARK  status: ('A' for Active; 'I' for Inactive)
REMARK    1  A    between atoms: C_3  and  C_11
REMARK    2  A    between atoms: C_6  and  C_20
REMARK    3  A    between atoms: C_14  and  N_19
REMARK    4  A    between atoms: C_25  and  C_27
REMARK    5  A    between atoms: C_27  and  O_28
REMARK                            x       y       z     vdW  Elec       q    Type
REMARK                         _______ _______ _______ _____ _____    ______ ____
ROOT
ATOM      1  N   UNL     1      32.497 -22.544 -16.956  0.00  0.00    -0.400 NA
ATOM      2  N   UNL     1      35.832 -23.750 -16.092  0.00  0.00    -0.242 NA
ATOM      3  C   UNL     1      33.829 -22.787 -16.951  0.00  0.00    +0.149 C 
ATOM      4  C   UNL     1      34.500 -23.560 -16.018  0.00  0.00    +0.107 C 
ATOM      5  C   UNL     1      33.714 -24.128 -15.001  0.00  0.00    +0.005 C 
ATOM      6  C   UNL     1      31.781 -23.108 -15.963  0.00  0.00    +0.131 C 
ATOM      7  C   UNL     1      32.333 -23.899 -14.971  0.00  0.00    +0.030 C 
ATOM      8  C   UNL     1      34.356 -24.917 -14.037  0.00  0.00    +0.056 C 
ATOM      9  C   UNL     1      35.728 -25.119 -14.104  0.00  0.00    -0.001 C 
ATOM     10  C   UNL     1      36.414 -24.519 -15.142  0.00  0.00    +0.095 C 
ENDROOT
BRANCH   3  11
ATOM     11  C   UNL     1      34.529 -22.150 -18.048  0.00  0.00    +0.033 C 
ATOM     12  C   UNL     1      33.808 -21.511 -19.056  0.00  0.00    +0.027 C 
ATOM     13  C   UNL     1      35.922 -22.178 -18.093  0.00  0.00    +0.003 C 
ATOM     14  C   UNL     1      34.483 -20.898 -20.111  0.00  0.00    +0.143 C 
ATOM     15  C   UNL     1      36.597 -21.564 -19.149  0.00  0.00    +0.002 C 
ATOM     16  C   UNL     1      35.877 -20.926 -20.159  0.00  0.00    +0.024 C 
BRANCH  14  19
ATOM     17  O   UNL     1      32.498 -20.250 -21.080  0.00  0.00    -0.126 OA
ATOM     18  O   UNL     1      34.380 -19.691 -22.069  0.00  0.00    -0.126 OA
ATOM     19  N   UNL     1      33.750 -20.247 -21.139  0.00  0.00    +0.058 N 
ENDBRANCH  14  19
ENDBRANCH   3  11
BRANCH   6  20
ATOM     20  C   UNL     1      30.365 -22.828 -15.994  0.00  0.00    +0.030 C 
ATOM     21  C   UNL     1      29.729 -22.299 -14.869  0.00  0.00    +0.003 C 
ATOM     22  C   UNL     1      29.626 -23.089 -17.150  0.00  0.00    +0.003 C 
ATOM     23  C   UNL     1      28.361 -22.029 -14.900  0.00  0.00    +0.007 C 
ATOM     24  C   UNL     1      28.257 -22.819 -17.181  0.00  0.00    +0.007 C 
ATOM     25  C   UNL     1      27.625 -22.289 -16.057  0.00  0.00    +0.075 C 
BRANCH  25  27
ATOM     26  O   UNL     1      25.570 -21.611 -17.076  0.00  0.00    -0.245 OA
ATOM     27  C   UNL     1      26.198 -22.009 -16.090  0.00  0.00    +0.338 C 
BRANCH  27  28
ATOM     28  O   UNL     1      25.595 -22.234 -14.891  0.00  0.00    -0.477 OA
ATOM     29  H   UNL     1      26.090 -22.583 -14.175  0.00  0.00    +0.295 HD
ENDBRANCH  27  28
ENDBRANCH  25  27
ENDBRANCH   6  20
TORSDOF 5
ENDMDL
