MODEL 1
REMARK VINA RESULT:      -8.2      0.000      0.000
REMARK  Name = 1082702
REMARK  3 active torsions:
REMARK  status: ('A' for Active; 'I' for Inactive)
REMARK    1  A    between atoms: N_1  and  C_3
REMARK    2  A    between atoms: N_1  and  C_9
REMARK    3  A    between atoms: C_9  and  C_11
REMARK                            x       y       z     vdW  Elec       q    Type
REMARK                         _______ _______ _______ _____ _____    ______ ____
ROOT
ATOM      1  N   UNL     1      35.613 -18.438 -21.846  0.00  0.00    -0.329 N 
ATOM      2  H   UNL     1      36.061 -17.699 -21.374  0.00  0.00    +0.147 HD
ENDROOT
BRANCH   1   3
ATOM      3  C   UNL     1      34.929 -19.409 -21.087  0.00  0.00    +0.045 C 
ATOM      4  C   UNL     1      33.537 -19.384 -21.014  0.00  0.00    +0.014 C 
ATOM      5  C   UNL     1      35.645 -20.396 -20.409  0.00  0.00    +0.014 C 
ATOM      6  C   UNL     1      32.859 -20.345 -20.262  0.00  0.00    +0.001 C 
ATOM      7  C   UNL     1      34.969 -21.356 -19.658  0.00  0.00    +0.001 C 
ATOM      8  C   UNL     1      33.576 -21.331 -19.585  0.00  0.00    +0.000 C 
ENDBRANCH   1   3
BRANCH   1   9
ATOM      9  C   UNL     1      35.686 -18.478 -23.275  0.00  0.00    +0.116 C 
BRANCH   9  11
ATOM     10  N   UNL     1      33.945 -16.374 -25.872  0.00  0.00    -0.243 NA
ATOM     11  C   UNL     1      34.951 -17.331 -23.907  0.00  0.00    +0.017 C 
ATOM     12  C   UNL     1      34.605 -16.220 -23.159  0.00  0.00    +0.001 C 
ATOM     13  C   UNL     1      34.607 -17.370 -25.241  0.00  0.00    +0.096 C 
ATOM     14  C   UNL     1      33.923 -15.175 -23.772  0.00  0.00    +0.020 C 
ATOM     15  C   UNL     1      33.620 -15.299 -25.119  0.00  0.00    +0.099 C 
ENDBRANCH   9  11
ENDBRANCH   1   9
TORSDOF 3
ENDMDL
MODEL 2
REMARK VINA RESULT:      -8.0      1.962      5.976
REMARK  Name = 1082702
REMARK  3 active torsions:
REMARK  status: ('A' for Active; 'I' for Inactive)
REMARK    1  A    between atoms: N_1  and  C_3
REMARK    2  A    between atoms: N_1  and  C_9
REMARK    3  A    between atoms: C_9  and  C_11
REMARK                            x       y       z     vdW  Elec       q    Type
REMARK                         _______ _______ _______ _____ _____    ______ ____
ROOT
ATOM      1  N   UNL     1      35.487 -17.899 -20.797  0.00  0.00    -0.329 N 
ATOM      2  H   UNL     1      35.883 -17.847 -19.897  0.00  0.00    +0.147 HD
ENDROOT
BRANCH   1   3
ATOM      3  C   UNL     1      35.027 -16.711 -21.402  0.00  0.00    +0.045 C 
ATOM      4  C   UNL     1      35.115 -16.553 -22.784  0.00  0.00    +0.014 C 
ATOM      5  C   UNL     1      34.483 -15.694 -20.617  0.00  0.00    +0.014 C 
ATOM      6  C   UNL     1      34.660 -15.378 -23.383  0.00  0.00    +0.001 C 
ATOM      7  C   UNL     1      34.028 -14.519 -21.214  0.00  0.00    +0.001 C 
ATOM      8  C   UNL     1      34.117 -14.361 -22.598  0.00  0.00    +0.000 C 
ENDBRANCH   1   3
BRANCH   1   9
ATOM      9  C   UNL     1      35.403 -19.177 -21.433  0.00  0.00    +0.116 C 
BRANCH   9  11
ATOM     10  N   UNL     1      32.711 -21.113 -19.641  0.00  0.00    -0.243 NA
ATOM     11  C   UNL     1      34.741 -20.200 -20.555  0.00  0.00    +0.017 C 
ATOM     12  C   UNL     1      35.497 -21.140 -19.877  0.00  0.00    +0.001 C 
ATOM     13  C   UNL     1      33.370 -20.219 -20.413  0.00  0.00    +0.096 C 
ATOM     14  C   UNL     1      34.855 -22.075 -19.073  0.00  0.00    +0.020 C 
ATOM     15  C   UNL     1      33.473 -22.019 -18.989  0.00  0.00    +0.099 C 
ENDBRANCH   9  11
ENDBRANCH   1   9
TORSDOF 3
ENDMDL
MODEL 3
REMARK VINA RESULT:      -7.9      1.002      2.034
REMARK  Name = 1082702
REMARK  3 active torsions:
REMARK  status: ('A' for Active; 'I' for Inactive)
REMARK    1  A    between atoms: N_1  and  C_3
REMARK    2  A    between atoms: N_1  and  C_9
REMARK    3  A    between atoms: C_9  and  C_11
REMARK                            x       y       z     vdW  Elec       q    Type
REMARK                         _______ _______ _______ _____ _____    ______ ____
ROOT
ATOM      1  N   UNL     1      35.908 -18.885 -21.338  0.00  0.00    -0.329 N 
ATOM      2  H   UNL     1      36.749 -19.091 -21.807  0.00  0.00    +0.147 HD
ENDROOT
BRANCH   1   3
ATOM      3  C   UNL     1      35.254 -19.921 -20.639  0.00  0.00    +0.045 C 
ATOM      4  C   UNL     1      36.000 -20.883 -19.959  0.00  0.00    +0.014 C 
ATOM      5  C   UNL     1      33.860 -19.983 -20.628  0.00  0.00    +0.014 C 
ATOM      6  C   UNL     1      35.353 -21.907 -19.267  0.00  0.00    +0.001 C 
ATOM      7  C   UNL     1      33.213 -21.006 -19.937  0.00  0.00    +0.001 C 
ATOM      8  C   UNL     1      33.960 -21.969 -19.256  0.00  0.00    +0.000 C 
ENDBRANCH   1   3
BRANCH   1   9
ATOM      9  C   UNL     1      35.404 -17.548 -21.397  0.00  0.00    +0.116 C 
BRANCH   9  11
ATOM     10  N   UNL     1      34.089 -15.500 -24.275  0.00  0.00    -0.243 NA
ATOM     11  C   UNL     1      34.963 -17.173 -22.782  0.00  0.00    +0.017 C 
ATOM     12  C   UNL     1      35.019 -18.096 -23.812  0.00  0.00    +0.001 C 
ATOM     13  C   UNL     1      34.499 -15.903 -23.050  0.00  0.00    +0.096 C 
ATOM     14  C   UNL     1      34.607 -17.719 -25.085  0.00  0.00    +0.020 C 
ATOM     15  C   UNL     1      34.153 -16.421 -25.262  0.00  0.00    +0.099 C 
ENDBRANCH   9  11
ENDBRANCH   1   9
TORSDOF 3
ENDMDL
MODEL 4
REMARK VINA RESULT:      -7.9      1.480      1.824
REMARK  Name = 1082702
REMARK  3 active torsions:
REMARK  status: ('A' for Active; 'I' for Inactive)
REMARK    1  A    between atoms: N_1  and  C_3
REMARK    2  A    between atoms: N_1  and  C_9
REMARK    3  A    between atoms: C_9  and  C_11
REMARK                            x       y       z     vdW  Elec       q    Type
REMARK                         _______ _______ _______ _____ _____    ______ ____
ROOT
ATOM      1  N   UNL     1      36.025 -18.904 -21.243  0.00  0.00    -0.329 N 
ATOM      2  H   UNL     1      36.852 -18.561 -20.835  0.00  0.00    +0.147 HD
ENDROOT
BRANCH   1   3
ATOM      3  C   UNL     1      35.327 -19.939 -20.588  0.00  0.00    +0.045 C 
ATOM      4  C   UNL     1      33.933 -19.971 -20.620  0.00  0.00    +0.014 C 
ATOM      5  C   UNL     1      36.031 -20.932 -19.906  0.00  0.00    +0.014 C 
ATOM      6  C   UNL     1      33.242 -20.995 -19.972  0.00  0.00    +0.001 C 
ATOM      7  C   UNL     1      35.341 -21.956 -19.258  0.00  0.00    +0.001 C 
ATOM      8  C   UNL     1      33.947 -21.987 -19.291  0.00  0.00    +0.000 C 
ENDBRANCH   1   3
BRANCH   1   9
ATOM      9  C   UNL     1      35.583 -18.330 -22.477  0.00  0.00    +0.116 C 
BRANCH   9  11
ATOM     10  N   UNL     1      34.642 -14.778 -23.313  0.00  0.00    -0.243 NA
ATOM     11  C   UNL     1      35.136 -16.907 -22.307  0.00  0.00    +0.017 C 
ATOM     12  C   UNL     1      34.810 -16.417 -21.054  0.00  0.00    +0.001 C 
ATOM     13  C   UNL     1      35.039 -16.068 -23.396  0.00  0.00    +0.096 C 
ATOM     14  C   UNL     1      34.397 -15.096 -20.929  0.00  0.00    +0.020 C 
ATOM     15  C   UNL     1      34.331 -14.324 -22.078  0.00  0.00    +0.099 C 
ENDBRANCH   9  11
ENDBRANCH   1   9
TORSDOF 3
ENDMDL
MODEL 5
REMARK VINA RESULT:      -7.9      4.392      8.513
REMARK  Name = 1082702
REMARK  3 active torsions:
REMARK  status: ('A' for Active; 'I' for Inactive)
REMARK    1  A    between atoms: N_1  and  C_3
REMARK    2  A    between atoms: N_1  and  C_9
REMARK    3  A    between atoms: C_9  and  C_11
REMARK                            x       y       z     vdW  Elec       q    Type
REMARK                         _______ _______ _______ _____ _____    ______ ____
ROOT
ATOM      1  N   UNL     1      32.839 -22.429 -18.633  0.00  0.00    -0.329 N 
ATOM      2  H   UNL     1      31.879 -22.526 -18.829  0.00  0.00    +0.147 HD
ENDROOT
BRANCH   1   3
ATOM      3  C   UNL     1      33.597 -21.523 -19.404  0.00  0.00    +0.045 C 
ATOM      4  C   UNL     1      34.987 -21.627 -19.436  0.00  0.00    +0.014 C 
ATOM      5  C   UNL     1      32.955 -20.522 -20.135  0.00  0.00    +0.014 C 
ATOM      6  C   UNL     1      35.737 -20.731 -20.198  0.00  0.00    +0.001 C 
ATOM      7  C   UNL     1      33.704 -19.627 -20.897  0.00  0.00    +0.001 C 
ATOM      8  C   UNL     1      35.095 -19.731 -20.929  0.00  0.00    +0.000 C 
ENDBRANCH   1   3
BRANCH   1   9
ATOM      9  C   UNL     1      33.404 -23.213 -17.579  0.00  0.00    +0.116 C 
BRANCH   9  11
ATOM     10  N   UNL     1      32.346 -23.498 -13.973  0.00  0.00    -0.243 NA
ATOM     11  C   UNL     1      32.533 -23.221 -16.356  0.00  0.00    +0.017 C 
ATOM     12  C   UNL     1      31.177 -22.969 -16.457  0.00  0.00    +0.001 C 
ATOM     13  C   UNL     1      33.073 -23.477 -15.113  0.00  0.00    +0.096 C 
ATOM     14  C   UNL     1      30.396 -22.982 -15.306  0.00  0.00    +0.020 C 
ATOM     15  C   UNL     1      31.023 -23.250 -14.100  0.00  0.00    +0.099 C 
ENDBRANCH   9  11
ENDBRANCH   1   9
TORSDOF 3
ENDMDL
MODEL 6
REMARK VINA RESULT:      -7.9      1.752      5.972
REMARK  Name = 1082702
REMARK  3 active torsions:
REMARK  status: ('A' for Active; 'I' for Inactive)
REMARK    1  A    between atoms: N_1  and  C_3
REMARK    2  A    between atoms: N_1  and  C_9
REMARK    3  A    between atoms: C_9  and  C_11
REMARK                            x       y       z     vdW  Elec       q    Type
REMARK                         _______ _______ _______ _____ _____    ______ ____
ROOT
ATOM      1  N   UNL     1      35.437 -18.306 -21.126  0.00  0.00    -0.329 N 
ATOM      2  H   UNL     1      35.143 -17.749 -20.370  0.00  0.00    +0.147 HD
ENDROOT
BRANCH   1   3
ATOM      3  C   UNL     1      35.136 -17.880 -22.436  0.00  0.00    +0.045 C 
ATOM      4  C   UNL     1      35.110 -16.519 -22.738  0.00  0.00    +0.014 C 
ATOM      5  C   UNL     1      34.862 -18.820 -23.430  0.00  0.00    +0.014 C 
ATOM      6  C   UNL     1      34.812 -16.097 -24.034  0.00  0.00    +0.001 C 
ATOM      7  C   UNL     1      34.564 -18.400 -24.725  0.00  0.00    +0.001 C 
ATOM      8  C   UNL     1      34.539 -17.038 -25.027  0.00  0.00    +0.000 C 
ENDBRANCH   1   3
BRANCH   1   9
ATOM      9  C   UNL     1      36.153 -19.513 -20.847  0.00  0.00    +0.116 C 
BRANCH   9  11
ATOM     10  N   UNL     1      35.166 -22.451 -18.704  0.00  0.00    -0.243 NA
ATOM     11  C   UNL     1      35.299 -20.520 -20.133  0.00  0.00    +0.017 C 
ATOM     12  C   UNL     1      33.920 -20.465 -20.225  0.00  0.00    +0.001 C 
ATOM     13  C   UNL     1      35.876 -21.515 -19.372  0.00  0.00    +0.096 C 
ATOM     14  C   UNL     1      33.156 -21.411 -19.551  0.00  0.00    +0.020 C 
ATOM     15  C   UNL     1      33.821 -22.375 -18.811  0.00  0.00    +0.099 C 
ENDBRANCH   9  11
ENDBRANCH   1   9
TORSDOF 3
ENDMDL
MODEL 7
REMARK VINA RESULT:      -7.8      1.245      5.675
REMARK  Name = 1082702
REMARK  3 active torsions:
REMARK  status: ('A' for Active; 'I' for Inactive)
REMARK    1  A    between atoms: N_1  and  C_3
REMARK    2  A    between atoms: N_1  and  C_9
REMARK    3  A    between atoms: C_9  and  C_11
REMARK                            x       y       z     vdW  Elec       q    Type
REMARK                         _______ _______ _______ _____ _____    ______ ____
ROOT
ATOM      1  N   UNL     1      35.838 -18.241 -23.067  0.00  0.00    -0.329 N 
ATOM      2  H   UNL     1      36.200 -18.925 -23.676  0.00  0.00    +0.147 HD
ENDROOT
BRANCH   1   3
ATOM      3  C   UNL     1      35.096 -17.174 -23.614  0.00  0.00    +0.045 C 
ATOM      4  C   UNL     1      34.602 -17.262 -24.915  0.00  0.00    +0.014 C 
ATOM      5  C   UNL     1      34.856 -16.029 -22.854  0.00  0.00    +0.014 C 
ATOM      6  C   UNL     1      33.867 -16.207 -25.456  0.00  0.00    +0.001 C 
ATOM      7  C   UNL     1      34.123 -14.974 -23.394  0.00  0.00    +0.001 C 
ATOM      8  C   UNL     1      33.628 -15.063 -24.695  0.00  0.00    +0.000 C 
ENDBRANCH   1   3
BRANCH   1   9
ATOM      9  C   UNL     1      36.090 -18.374 -21.665  0.00  0.00    +0.116 C 
BRANCH   9  11
ATOM     10  N   UNL     1      34.850 -21.352 -19.716  0.00  0.00    -0.243 NA
ATOM     11  C   UNL     1      35.151 -19.349 -21.016  0.00  0.00    +0.017 C 
ATOM     12  C   UNL     1      33.782 -19.169 -21.099  0.00  0.00    +0.001 C 
ATOM     13  C   UNL     1      35.640 -20.437 -20.325  0.00  0.00    +0.096 C 
ATOM     14  C   UNL     1      32.938 -20.088 -20.485  0.00  0.00    +0.020 C 
ATOM     15  C   UNL     1      33.517 -21.153 -19.813  0.00  0.00    +0.099 C 
ENDBRANCH   9  11
ENDBRANCH   1   9
TORSDOF 3
ENDMDL
MODEL 8
REMARK VINA RESULT:      -7.5      3.826      6.321
REMARK  Name = 1082702
REMARK  3 active torsions:
REMARK  status: ('A' for Active; 'I' for Inactive)
REMARK    1  A    between atoms: N_1  and  C_3
REMARK    2  A    between atoms: N_1  and  C_9
REMARK    3  A    between atoms: C_9  and  C_11
REMARK                            x       y       z     vdW  Elec       q    Type
REMARK                         _______ _______ _______ _____ _____    ______ ____
ROOT
ATOM      1  N   UNL     1      32.589 -22.805 -18.103  0.00  0.00    -0.329 N 
ATOM      2  H   UNL     1      31.904 -22.812 -18.809  0.00  0.00    +0.147 HD
ENDROOT
BRANCH   1   3
ATOM      3  C   UNL     1      32.182 -22.992 -16.766  0.00  0.00    +0.045 C 
ATOM      4  C   UNL     1      33.119 -23.338 -15.793  0.00  0.00    +0.014 C 
ATOM      5  C   UNL     1      30.841 -22.831 -16.416  0.00  0.00    +0.014 C 
ATOM      6  C   UNL     1      32.717 -23.524 -14.470  0.00  0.00    +0.001 C 
ATOM      7  C   UNL     1      30.438 -23.016 -15.094  0.00  0.00    +0.001 C 
ATOM      8  C   UNL     1      31.376 -23.363 -14.121  0.00  0.00    +0.000 C 
ENDBRANCH   1   3
BRANCH   1   9
ATOM      9  C   UNL     1      33.955 -22.604 -18.478  0.00  0.00    +0.116 C 
BRANCH   9  11
ATOM     10  N   UNL     1      35.570 -20.085 -20.768  0.00  0.00    -0.243 NA
ATOM     11  C   UNL     1      34.111 -21.468 -19.447  0.00  0.00    +0.017 C 
ATOM     12  C   UNL     1      33.003 -20.778 -19.906  0.00  0.00    +0.001 C 
ATOM     13  C   UNL     1      35.360 -21.097 -19.896  0.00  0.00    +0.096 C 
ATOM     14  C   UNL     1      33.179 -19.732 -20.804  0.00  0.00    +0.020 C 
ATOM     15  C   UNL     1      34.471 -19.427 -21.200  0.00  0.00    +0.099 C 
ENDBRANCH   9  11
ENDBRANCH   1   9
TORSDOF 3
ENDMDL
MODEL 9
REMARK VINA RESULT:      -7.2      4.249      8.201
REMARK  Name = 1082702
REMARK  3 active torsions:
REMARK  status: ('A' for Active; 'I' for Inactive)
REMARK    1  A    between atoms: N_1  and  C_3
REMARK    2  A    between atoms: N_1  and  C_9
REMARK    3  A    between atoms: C_9  and  C_11
REMARK                            x       y       z     vdW  Elec       q    Type
REMARK                         _______ _______ _______ _____ _____    ______ ____
ROOT
ATOM      1  N   UNL     1      34.014 -11.937 -24.376  0.00  0.00    -0.329 N 
ATOM      2  H   UNL     1      34.544 -12.159 -25.175  0.00  0.00    +0.147 HD
ENDROOT
BRANCH   1   3
ATOM      3  C   UNL     1      33.918 -10.586 -23.984  0.00  0.00    +0.045 C 
ATOM      4  C   UNL     1      32.823 -10.152 -23.238  0.00  0.00    +0.014 C 
ATOM      5  C   UNL     1      34.919  -9.682 -24.343  0.00  0.00    +0.014 C 
ATOM      6  C   UNL     1      32.727  -8.815 -22.849  0.00  0.00    +0.001 C 
ATOM      7  C   UNL     1      34.824  -8.346 -23.955  0.00  0.00    +0.001 C 
ATOM      8  C   UNL     1      33.728  -7.913 -23.208  0.00  0.00    +0.000 C 
ENDBRANCH   1   3
BRANCH   1   9
ATOM      9  C   UNL     1      33.374 -13.000 -23.664  0.00  0.00    +0.116 C 
BRANCH   9  11
ATOM     10  N   UNL     1      33.736 -15.954 -25.976  0.00  0.00    -0.243 NA
ATOM     11  C   UNL     1      33.779 -14.349 -24.184  0.00  0.00    +0.017 C 
ATOM     12  C   UNL     1      34.538 -15.204 -23.404  0.00  0.00    +0.001 C 
ATOM     13  C   UNL     1      33.404 -14.754 -25.447  0.00  0.00    +0.096 C 
ATOM     14  C   UNL     1      34.899 -16.446 -23.914  0.00  0.00    +0.020 C 
ATOM     15  C   UNL     1      34.476 -16.771 -25.193  0.00  0.00    +0.099 C 
ENDBRANCH   9  11
ENDBRANCH   1   9
TORSDOF 3
ENDMDL
