MODEL 1
REMARK VINA RESULT:      -6.8      0.000      0.000
REMARK  Name = 447195
REMARK  5 active torsions:
REMARK  status: ('A' for Active; 'I' for Inactive)
REMARK    1  A    between atoms: CA_1  and  N_2
REMARK    2  A    between atoms: CA_1  and  C_7
REMARK    3  A    between atoms: CA_1  and  C_10
REMARK    4  A    between atoms: C_7  and  O_8
REMARK    5  A    between atoms: C_10  and  C_14
REMARK                            x       y       z     vdW  Elec       q    Type
REMARK                         _______ _______ _______ _____ _____    ______ ____
ROOT
ATOM      1  CA  UNL     1      38.851 -25.421 -14.385  0.00  0.00    +0.040 C 
ENDROOT
BRANCH   1   2
ATOM      2  N   UNL     1      37.896 -25.932 -15.369  0.00  0.00    +0.389 N 
ATOM      3  H1  UNL     1      37.220 -26.535 -14.903  0.00  0.00    -0.088 HD
ATOM      4  H2  UNL     1      38.395 -26.465 -16.082  0.00  0.00    -0.088 HD
ATOM      5  H3  UNL     1      37.410 -25.150 -15.807  0.00  0.00    -0.088 HD
ENDBRANCH   1   2
BRANCH   1   7
ATOM      6  OXT UNL     1      41.001 -26.498 -13.970  0.00  0.00    -0.253 OA
ATOM      7  C   UNL     1      40.202 -26.010 -14.757  0.00  0.00    +0.293 C 
BRANCH   7   8
ATOM      8  O   UNL     1      40.438 -25.941 -16.096  0.00  0.00    -0.482 OA
ATOM      9  H   UNL     1      40.029 -25.272 -16.609  0.00  0.00    +0.295 HD
ENDBRANCH   7   8
ENDBRANCH   1   7
BRANCH   1  10
ATOM     10  C   UNL     1      38.407 -25.803 -12.966  0.00  0.00    +0.023 C 
BRANCH  10  14
ATOM     11  O   UNL     1      37.679 -22.544 -11.240  0.00  0.00    -0.381 OA
ATOM     12  O   UNL     1      35.868 -25.517 -11.322  0.00  0.00    -0.267 OA
ATOM     13  N   UNL     1      36.562 -23.330 -10.877  0.00  0.00    -0.144 N 
ATOM     14  C   UNL     1      37.901 -24.627 -12.197  0.00  0.00    +0.072 C 
ATOM     15  C   UNL     1      36.652 -24.589 -11.428  0.00  0.00    +0.276 C 
ATOM     16  C   UNL     1      38.405 -23.410 -12.020  0.00  0.00    +0.207 C 
ATOM     17  H   UNL     1      35.822 -23.020 -10.307  0.00  0.00    +0.196 HD
ENDBRANCH  10  14
ENDBRANCH   1  10
TORSDOF 5
ENDMDL
MODEL 2
REMARK VINA RESULT:      -6.7      0.761      1.649
REMARK  Name = 447195
REMARK  5 active torsions:
REMARK  status: ('A' for Active; 'I' for Inactive)
REMARK    1  A    between atoms: CA_1  and  N_2
REMARK    2  A    between atoms: CA_1  and  C_7
REMARK    3  A    between atoms: CA_1  and  C_10
REMARK    4  A    between atoms: C_7  and  O_8
REMARK    5  A    between atoms: C_10  and  C_14
REMARK                            x       y       z     vdW  Elec       q    Type
REMARK                         _______ _______ _______ _____ _____    ______ ____
ROOT
ATOM      1  CA  UNL     1      38.967 -25.361 -14.375  0.00  0.00    +0.040 C 
ENDROOT
BRANCH   1   2
ATOM      2  N   UNL     1      37.966 -25.791 -15.350  0.00  0.00    +0.389 N 
ATOM      3  H1  UNL     1      37.146 -25.190 -15.283  0.00  0.00    -0.088 HD
ATOM      4  H2  UNL     1      37.697 -26.757 -15.159  0.00  0.00    -0.088 HD
ATOM      5  H3  UNL     1      38.358 -25.728 -16.290  0.00  0.00    -0.088 HD
ENDBRANCH   1   2
BRANCH   1   7
ATOM      6  OXT UNL     1      41.095 -26.510 -14.055  0.00  0.00    -0.253 OA
ATOM      7  C   UNL     1      40.280 -25.992 -14.806  0.00  0.00    +0.293 C 
BRANCH   7   8
ATOM      8  O   UNL     1      40.462 -25.924 -16.153  0.00  0.00    -0.482 OA
ATOM      9  H   UNL     1      39.728 -25.779 -16.717  0.00  0.00    +0.295 HD
ENDBRANCH   7   8
ENDBRANCH   1   7
BRANCH   1  10
ATOM     10  C   UNL     1      38.543 -25.778 -12.960  0.00  0.00    +0.023 C 
BRANCH  10  14
ATOM     11  O   UNL     1      35.587 -23.875 -11.628  0.00  0.00    -0.381 OA
ATOM     12  O   UNL     1      38.966 -23.041 -11.711  0.00  0.00    -0.267 OA
ATOM     13  N   UNL     1      36.657 -22.993 -11.359  0.00  0.00    -0.144 N 
ATOM     14  C   UNL     1      37.543 -24.839 -12.368  0.00  0.00    +0.072 C 
ATOM     15  C   UNL     1      37.852 -23.528 -11.785  0.00  0.00    +0.276 C 
ATOM     16  C   UNL     1      36.226 -24.934 -12.227  0.00  0.00    +0.207 C 
ATOM     17  H   UNL     1      36.561 -22.114 -10.925  0.00  0.00    +0.196 HD
ENDBRANCH  10  14
ENDBRANCH   1  10
TORSDOF 5
ENDMDL
MODEL 3
REMARK VINA RESULT:      -6.6      1.970      2.233
REMARK  Name = 447195
REMARK  5 active torsions:
REMARK  status: ('A' for Active; 'I' for Inactive)
REMARK    1  A    between atoms: CA_1  and  N_2
REMARK    2  A    between atoms: CA_1  and  C_7
REMARK    3  A    between atoms: CA_1  and  C_10
REMARK    4  A    between atoms: C_7  and  O_8
REMARK    5  A    between atoms: C_10  and  C_14
REMARK                            x       y       z     vdW  Elec       q    Type
REMARK                         _______ _______ _______ _____ _____    ______ ____
ROOT
ATOM      1  CA  UNL     1      36.696 -25.647 -14.354  0.00  0.00    +0.040 C 
ENDROOT
BRANCH   1   2
ATOM      2  N   UNL     1      35.291 -25.463 -14.714  0.00  0.00    +0.389 N 
ATOM      3  H1  UNL     1      35.197 -24.636 -15.302  0.00  0.00    -0.088 HD
ATOM      4  H2  UNL     1      34.736 -25.343 -13.867  0.00  0.00    -0.088 HD
ATOM      5  H3  UNL     1      34.960 -26.283 -15.223  0.00  0.00    -0.088 HD
ENDBRANCH   1   2
BRANCH   1   7
ATOM      6  OXT UNL     1      36.622 -27.261 -16.182  0.00  0.00    -0.253 OA
ATOM      7  C   UNL     1      37.215 -26.777 -15.228  0.00  0.00    +0.293 C 
BRANCH   7   8
ATOM      8  O   UNL     1      38.444 -27.206 -14.833  0.00  0.00    -0.482 OA
ATOM      9  H   UNL     1      38.556 -27.587 -13.985  0.00  0.00    +0.295 HD
ENDBRANCH   7   8
ENDBRANCH   1   7
BRANCH   1  10
ATOM     10  C   UNL     1      36.826 -25.948 -12.855  0.00  0.00    +0.023 C 
BRANCH  10  14
ATOM     11  O   UNL     1      37.709 -22.683 -11.215  0.00  0.00    -0.381 OA
ATOM     12  O   UNL     1      35.240 -25.012 -10.438  0.00  0.00    -0.267 OA
ATOM     13  N   UNL     1      36.627 -23.132 -10.424  0.00  0.00    -0.144 N 
ATOM     14  C   UNL     1      36.981 -24.706 -12.040  0.00  0.00    +0.072 C 
ATOM     15  C   UNL     1      36.157 -24.343 -10.881  0.00  0.00    +0.276 C 
ATOM     16  C   UNL     1      37.833 -23.691 -12.140  0.00  0.00    +0.207 C 
ATOM     17  H   UNL     1      36.261 -22.645  -9.651  0.00  0.00    +0.196 HD
ENDBRANCH  10  14
ENDBRANCH   1  10
TORSDOF 5
ENDMDL
MODEL 4
REMARK VINA RESULT:      -6.4      1.908      2.610
REMARK  Name = 447195
REMARK  5 active torsions:
REMARK  status: ('A' for Active; 'I' for Inactive)
REMARK    1  A    between atoms: CA_1  and  N_2
REMARK    2  A    between atoms: CA_1  and  C_7
REMARK    3  A    between atoms: CA_1  and  C_10
REMARK    4  A    between atoms: C_7  and  O_8
REMARK    5  A    between atoms: C_10  and  C_14
REMARK                            x       y       z     vdW  Elec       q    Type
REMARK                         _______ _______ _______ _____ _____    ______ ____
ROOT
ATOM      1  CA  UNL     1      38.036 -24.560 -14.540  0.00  0.00    +0.040 C 
ENDROOT
BRANCH   1   2
ATOM      2  N   UNL     1      38.642 -23.964 -15.730  0.00  0.00    +0.389 N 
ATOM      3  H1  UNL     1      37.907 -23.645 -16.361  0.00  0.00    -0.088 HD
ATOM      4  H2  UNL     1      39.219 -24.659 -16.203  0.00  0.00    -0.088 HD
ATOM      5  H3  UNL     1      39.222 -23.171 -15.455  0.00  0.00    -0.088 HD
ENDBRANCH   1   2
BRANCH   1   7
ATOM      6  OXT UNL     1      38.313 -26.984 -14.552  0.00  0.00    -0.253 OA
ATOM      7  C   UNL     1      37.691 -25.993 -14.910  0.00  0.00    +0.293 C 
BRANCH   7   8
ATOM      8  O   UNL     1      36.585 -26.064 -15.699  0.00  0.00    -0.482 OA
ATOM      9  H   UNL     1      35.861 -25.490 -15.543  0.00  0.00    +0.295 HD
ENDBRANCH   7   8
ENDBRANCH   1   7
BRANCH   1  10
ATOM     10  C   UNL     1      36.810 -23.747 -14.103  0.00  0.00    +0.023 C 
BRANCH  10  14
ATOM     11  O   UNL     1      35.454 -24.736 -10.740  0.00  0.00    -0.381 OA
ATOM     12  O   UNL     1      38.063 -22.592 -11.588  0.00  0.00    -0.267 OA
ATOM     13  N   UNL     1      36.498 -23.849 -10.392  0.00  0.00    -0.144 N 
ATOM     14  C   UNL     1      36.455 -23.981 -12.672  0.00  0.00    +0.072 C 
ATOM     15  C   UNL     1      37.128 -23.370 -11.520  0.00  0.00    +0.276 C 
ATOM     16  C   UNL     1      35.519 -24.740 -12.112  0.00  0.00    +0.207 C 
ATOM     17  H   UNL     1      36.741 -23.606  -9.470  0.00  0.00    +0.196 HD
ENDBRANCH  10  14
ENDBRANCH   1  10
TORSDOF 5
ENDMDL
MODEL 5
REMARK VINA RESULT:      -6.3      7.827      9.261
REMARK  Name = 447195
REMARK  5 active torsions:
REMARK  status: ('A' for Active; 'I' for Inactive)
REMARK    1  A    between atoms: CA_1  and  N_2
REMARK    2  A    between atoms: CA_1  and  C_7
REMARK    3  A    between atoms: CA_1  and  C_10
REMARK    4  A    between atoms: C_7  and  O_8
REMARK    5  A    between atoms: C_10  and  C_14
REMARK                            x       y       z     vdW  Elec       q    Type
REMARK                         _______ _______ _______ _____ _____    ______ ____
ROOT
ATOM      1  CA  UNL     1      29.562 -23.169 -16.383  0.00  0.00    +0.040 C 
ENDROOT
BRANCH   1   2
ATOM      2  N   UNL     1      30.628 -22.483 -17.112  0.00  0.00    +0.389 N 
ATOM      3  H1  UNL     1      30.438 -21.482 -17.130  0.00  0.00    -0.088 HD
ATOM      4  H2  UNL     1      30.671 -22.839 -18.067  0.00  0.00    -0.088 HD
ATOM      5  H3  UNL     1      31.520 -22.652 -16.646  0.00  0.00    -0.088 HD
ENDBRANCH   1   2
BRANCH   1   7
ATOM      6  OXT UNL     1      27.692 -21.623 -16.639  0.00  0.00    -0.253 OA
ATOM      7  C   UNL     1      28.253 -22.660 -16.965  0.00  0.00    +0.293 C 
BRANCH   7   8
ATOM      8  O   UNL     1      27.758 -23.496 -17.916  0.00  0.00    -0.482 OA
ATOM      9  H   UNL     1      28.122 -24.353 -18.021  0.00  0.00    +0.295 HD
ENDBRANCH   7   8
ENDBRANCH   1   7
BRANCH   1  10
ATOM     10  C   UNL     1      29.688 -22.898 -14.877  0.00  0.00    +0.023 C 
BRANCH  10  14
ATOM     11  O   UNL     1      32.848 -24.059 -13.205  0.00  0.00    -0.381 OA
ATOM     12  O   UNL     1      30.291 -25.872 -14.721  0.00  0.00    -0.267 OA
ATOM     13  N   UNL     1      32.256 -25.279 -13.603  0.00  0.00    -0.144 N 
ATOM     14  C   UNL     1      30.861 -23.599 -14.273  0.00  0.00    +0.072 C 
ATOM     15  C   UNL     1      31.060 -25.053 -14.249  0.00  0.00    +0.276 C 
ATOM     16  C   UNL     1      31.938 -23.133 -13.652  0.00  0.00    +0.207 C 
ATOM     17  H   UNL     1      32.645 -26.168 -13.442  0.00  0.00    +0.196 HD
ENDBRANCH  10  14
ENDBRANCH   1  10
TORSDOF 5
ENDMDL
MODEL 6
REMARK VINA RESULT:      -6.3      2.037      4.797
REMARK  Name = 447195
REMARK  5 active torsions:
REMARK  status: ('A' for Active; 'I' for Inactive)
REMARK    1  A    between atoms: CA_1  and  N_2
REMARK    2  A    between atoms: CA_1  and  C_7
REMARK    3  A    between atoms: CA_1  and  C_10
REMARK    4  A    between atoms: C_7  and  O_8
REMARK    5  A    between atoms: C_10  and  C_14
REMARK                            x       y       z     vdW  Elec       q    Type
REMARK                         _______ _______ _______ _____ _____    ______ ____
ROOT
ATOM      1  CA  UNL     1      35.246 -24.453 -12.940  0.00  0.00    +0.040 C 
ENDROOT
BRANCH   1   2
ATOM      2  N   UNL     1      34.084 -23.577 -13.084  0.00  0.00    +0.389 N 
ATOM      3  H1  UNL     1      33.325 -24.092 -13.529  0.00  0.00    -0.088 HD
ATOM      4  H2  UNL     1      34.333 -22.773 -13.660  0.00  0.00    -0.088 HD
ATOM      5  H3  UNL     1      33.784 -23.256 -12.164  0.00  0.00    -0.088 HD
ENDBRANCH   1   2
BRANCH   1   7
ATOM      6  OXT UNL     1      35.358 -25.036 -10.573  0.00  0.00    -0.253 OA
ATOM      7  C   UNL     1      35.707 -24.315 -11.498  0.00  0.00    +0.293 C 
BRANCH   7   8
ATOM      8  O   UNL     1      36.577 -23.281 -11.336  0.00  0.00    -0.482 OA
ATOM      9  H   UNL     1      37.499 -23.431 -11.408  0.00  0.00    +0.295 HD
ENDBRANCH   7   8
ENDBRANCH   1   7
BRANCH   1  10
ATOM     10  C   UNL     1      36.333 -24.064 -13.951  0.00  0.00    +0.023 C 
BRANCH  10  14
ATOM     11  O   UNL     1      38.487 -27.043 -14.738  0.00  0.00    -0.381 OA
ATOM     12  O   UNL     1      39.119 -24.253 -12.753  0.00  0.00    -0.267 OA
ATOM     13  N   UNL     1      39.323 -26.286 -13.887  0.00  0.00    -0.144 N 
ATOM     14  C   UNL     1      37.366 -25.132 -14.111  0.00  0.00    +0.072 C 
ATOM     15  C   UNL     1      38.693 -25.130 -13.484  0.00  0.00    +0.276 C 
ATOM     16  C   UNL     1      37.356 -26.267 -14.801  0.00  0.00    +0.207 C 
ATOM     17  H   UNL     1      40.233 -26.550 -13.618  0.00  0.00    +0.196 HD
ENDBRANCH  10  14
ENDBRANCH   1  10
TORSDOF 5
ENDMDL
MODEL 7
REMARK VINA RESULT:      -6.2     10.873     11.728
REMARK  Name = 447195
REMARK  5 active torsions:
REMARK  status: ('A' for Active; 'I' for Inactive)
REMARK    1  A    between atoms: CA_1  and  N_2
REMARK    2  A    between atoms: CA_1  and  C_7
REMARK    3  A    between atoms: CA_1  and  C_10
REMARK    4  A    between atoms: C_7  and  O_8
REMARK    5  A    between atoms: C_10  and  C_14
REMARK                            x       y       z     vdW  Elec       q    Type
REMARK                         _______ _______ _______ _____ _____    ______ ____
ROOT
ATOM      1  CA  UNL     1      35.198 -18.336 -22.900  0.00  0.00    +0.040 C 
ENDROOT
BRANCH   1   2
ATOM      2  N   UNL     1      36.638 -18.324 -22.646  0.00  0.00    +0.389 N 
ATOM      3  H1  UNL     1      36.806 -18.358 -21.641  0.00  0.00    -0.088 HD
ATOM      4  H2  UNL     1      37.045 -17.472 -23.030  0.00  0.00    -0.088 HD
ATOM      5  H3  UNL     1      37.068 -19.136 -23.090  0.00  0.00    -0.088 HD
ENDBRANCH   1   2
BRANCH   1   7
ATOM      6  OXT UNL     1      34.230 -17.376 -24.923  0.00  0.00    -0.253 OA
ATOM      7  C   UNL     1      34.940 -17.253 -23.935  0.00  0.00    +0.293 C 
BRANCH   7   8
ATOM      8  O   UNL     1      35.594 -16.097 -23.638  0.00  0.00    -0.482 OA
ATOM      9  H   UNL     1      36.184 -16.067 -22.911  0.00  0.00    +0.295 HD
ENDBRANCH   7   8
ENDBRANCH   1   7
BRANCH   1  10
ATOM     10  C   UNL     1      34.426 -18.106 -21.593  0.00  0.00    +0.023 C 
BRANCH  10  14
ATOM     11  O   UNL     1      32.826 -21.183 -20.144  0.00  0.00    -0.381 OA
ATOM     12  O   UNL     1      36.143 -20.126 -20.109  0.00  0.00    -0.267 OA
ATOM     13  N   UNL     1      34.182 -21.354 -19.785  0.00  0.00    -0.144 N 
ATOM     14  C   UNL     1      34.031 -19.388 -20.937  0.00  0.00    +0.072 C 
ATOM     15  C   UNL     1      34.945 -20.301 -20.240  0.00  0.00    +0.276 C 
ATOM     16  C   UNL     1      32.851 -19.988 -20.821  0.00  0.00    +0.207 C 
ATOM     17  H   UNL     1      34.534 -22.122 -19.278  0.00  0.00    +0.196 HD
ENDBRANCH  10  14
ENDBRANCH   1  10
TORSDOF 5
ENDMDL
MODEL 8
REMARK VINA RESULT:      -6.2      2.442      2.703
REMARK  Name = 447195
REMARK  5 active torsions:
REMARK  status: ('A' for Active; 'I' for Inactive)
REMARK    1  A    between atoms: CA_1  and  N_2
REMARK    2  A    between atoms: CA_1  and  C_7
REMARK    3  A    between atoms: CA_1  and  C_10
REMARK    4  A    between atoms: C_7  and  O_8
REMARK    5  A    between atoms: C_10  and  C_14
REMARK                            x       y       z     vdW  Elec       q    Type
REMARK                         _______ _______ _______ _____ _____    ______ ____
ROOT
ATOM      1  CA  UNL     1      38.662 -25.449 -14.441  0.00  0.00    +0.040 C 
ENDROOT
BRANCH   1   2
ATOM      2  N   UNL     1      38.725 -26.057 -13.112  0.00  0.00    +0.389 N 
ATOM      3  H1  UNL     1      39.697 -26.120 -12.814  0.00  0.00    -0.088 HD
ATOM      4  H2  UNL     1      38.318 -26.991 -13.146  0.00  0.00    -0.088 HD
ATOM      5  H3  UNL     1      38.202 -25.483 -12.451  0.00  0.00    -0.088 HD
ENDBRANCH   1   2
BRANCH   1   7
ATOM      6  OXT UNL     1      40.972 -24.678 -14.301  0.00  0.00    -0.253 OA
ATOM      7  C   UNL     1      40.100 -25.288 -14.905  0.00  0.00    +0.293 C 
BRANCH   7   8
ATOM      8  O   UNL     1      40.328 -25.913 -16.091  0.00  0.00    -0.482 OA
ATOM      9  H   UNL     1      41.200 -25.976 -16.427  0.00  0.00    +0.295 HD
ENDBRANCH   7   8
ENDBRANCH   1   7
BRANCH   1  10
ATOM     10  C   UNL     1      37.904 -24.115 -14.380  0.00  0.00    +0.023 C 
BRANCH  10  14
ATOM     11  O   UNL     1      34.648 -24.271 -12.508  0.00  0.00    -0.381 OA
ATOM     12  O   UNL     1      35.432 -25.209 -15.768  0.00  0.00    -0.267 OA
ATOM     13  N   UNL     1      34.292 -24.797 -13.770  0.00  0.00    -0.144 N 
ATOM     14  C   UNL     1      36.514 -24.278 -13.857  0.00  0.00    +0.072 C 
ATOM     15  C   UNL     1      35.381 -24.821 -14.614  0.00  0.00    +0.276 C 
ATOM     16  C   UNL     1      35.984 -23.998 -12.671  0.00  0.00    +0.207 C 
ATOM     17  H   UNL     1      33.389 -25.106 -14.012  0.00  0.00    +0.196 HD
ENDBRANCH  10  14
ENDBRANCH   1  10
TORSDOF 5
ENDMDL
MODEL 9
REMARK VINA RESULT:      -6.1      2.066      4.919
REMARK  Name = 447195
REMARK  5 active torsions:
REMARK  status: ('A' for Active; 'I' for Inactive)
REMARK    1  A    between atoms: CA_1  and  N_2
REMARK    2  A    between atoms: CA_1  and  C_7
REMARK    3  A    between atoms: CA_1  and  C_10
REMARK    4  A    between atoms: C_7  and  O_8
REMARK    5  A    between atoms: C_10  and  C_14
REMARK                            x       y       z     vdW  Elec       q    Type
REMARK                         _______ _______ _______ _____ _____    ______ ____
ROOT
ATOM      1  CA  UNL     1      35.930 -24.192 -12.239  0.00  0.00    +0.040 C 
ENDROOT
BRANCH   1   2
ATOM      2  N   UNL     1      34.688 -23.467 -12.507  0.00  0.00    +0.389 N 
ATOM      3  H1  UNL     1      34.774 -22.511 -12.164  0.00  0.00    -0.088 HD
ATOM      4  H2  UNL     1      33.914 -23.931 -12.032  0.00  0.00    -0.088 HD
ATOM      5  H3  UNL     1      34.512 -23.454 -13.512  0.00  0.00    -0.088 HD
ENDBRANCH   1   2
BRANCH   1   7
ATOM      6  OXT UNL     1      36.027 -24.195  -9.802  0.00  0.00    -0.253 OA
ATOM      7  C   UNL     1      36.404 -23.734 -10.870  0.00  0.00    +0.293 C 
BRANCH   7   8
ATOM      8  O   UNL     1      37.321 -22.733 -10.956  0.00  0.00    -0.482 OA
ATOM      9  H   UNL     1      37.040 -21.853 -11.114  0.00  0.00    +0.295 HD
ENDBRANCH   7   8
ENDBRANCH   1   7
BRANCH   1  10
ATOM     10  C   UNL     1      36.956 -23.917 -13.347  0.00  0.00    +0.023 C 
BRANCH  10  14
ATOM     11  O   UNL     1      38.454 -27.037 -14.815  0.00  0.00    -0.381 OA
ATOM     12  O   UNL     1      35.494 -25.369 -15.580  0.00  0.00    -0.267 OA
ATOM     13  N   UNL     1      37.261 -26.899 -15.559  0.00  0.00    -0.144 N 
ATOM     14  C   UNL     1      37.340 -25.158 -14.084  0.00  0.00    +0.072 C 
ATOM     15  C   UNL     1      36.558 -25.785 -15.156  0.00  0.00    +0.276 C 
ATOM     16  C   UNL     1      38.399 -25.953 -13.972  0.00  0.00    +0.207 C 
ATOM     17  H   UNL     1      36.971 -27.516 -16.271  0.00  0.00    +0.196 HD
ENDBRANCH  10  14
ENDBRANCH   1  10
TORSDOF 5
ENDMDL
