MODEL 1
REMARK VINA RESULT:     -10.0      0.000      0.000
REMARK  Name = 13769
REMARK  0 active torsions:
REMARK  status: ('A' for Active; 'I' for Inactive)
REMARK                            x       y       z     vdW  Elec       q    Type
REMARK                         _______ _______ _______ _____ _____    ______ ____
ROOT
ATOM      1  O   UNL     1      34.912 -23.550 -13.611  0.00  0.00    -0.456 OA
ATOM      2  O   UNL     1      36.054 -23.225 -11.697  0.00  0.00    -0.250 OA
ATOM      3  O   UNL     1      33.744 -18.494 -21.346  0.00  0.00    -0.287 OA
ATOM      4  C   UNL     1      35.871 -22.668 -17.203  0.00  0.00    +0.004 C 
ATOM      5  C   UNL     1      34.439 -22.225 -17.651  0.00  0.00    +0.007 C 
ATOM      6  C   UNL     1      35.956 -22.754 -15.654  0.00  0.00    +0.037 C 
ATOM      7  C   UNL     1      34.903 -23.702 -15.056  0.00  0.00    +0.136 C 
ATOM      8  C   UNL     1      34.309 -22.058 -19.212  0.00  0.00    +0.034 C 
ATOM      9  C   UNL     1      33.375 -23.160 -17.032  0.00  0.00    +0.004 C 
ATOM     10  C   UNL     1      33.506 -23.251 -15.514  0.00  0.00    +0.040 C 
ATOM     11  C   UNL     1      36.938 -21.717 -17.776  0.00  0.00    +0.004 C 
ATOM     12  C   UNL     1      37.345 -23.133 -15.133  0.00  0.00    +0.015 C 
ATOM     13  C   UNL     1      35.448 -21.151 -19.683  0.00  0.00    -0.038 C 
ATOM     14  C   UNL     1      36.838 -21.574 -19.290  0.00  0.00    +0.022 C 
ATOM     15  C   UNL     1      35.104 -25.192 -15.378  0.00  0.00    +0.044 C 
ATOM     16  C   UNL     1      34.397 -23.408 -19.960  0.00  0.00    +0.008 C 
ATOM     17  C   UNL     1      32.952 -21.465 -19.571  0.00  0.00    -0.020 C 
ATOM     18  C   UNL     1      37.355 -23.565 -13.672  0.00  0.00    +0.110 C 
ATOM     19  C   UNL     1      36.062 -23.409 -12.912  0.00  0.00    +0.317 C 
ATOM     20  C   UNL     1      35.262 -20.008 -20.364  0.00  0.00    +0.034 C 
ATOM     21  C   UNL     1      32.760 -20.328 -20.246  0.00  0.00    +0.038 C 
ATOM     22  C   UNL     1      33.909 -19.528 -20.707  0.00  0.00    +0.195 C 
ENDROOT
TORSDOF 0
ENDMDL
MODEL 2
REMARK VINA RESULT:      -9.4      3.688      6.615
REMARK  Name = 13769
REMARK  0 active torsions:
REMARK  status: ('A' for Active; 'I' for Inactive)
REMARK                            x       y       z     vdW  Elec       q    Type
REMARK                         _______ _______ _______ _____ _____    ______ ____
ROOT
ATOM      1  O   UNL     1      30.589 -24.453 -14.872  0.00  0.00    -0.456 OA
ATOM      2  O   UNL     1      29.023 -24.484 -16.491  0.00  0.00    -0.250 OA
ATOM      3  O   UNL     1      39.679 -26.474 -14.671  0.00  0.00    -0.287 OA
ATOM      4  C   UNL     1      34.254 -23.386 -15.042  0.00  0.00    +0.004 C 
ATOM      5  C   UNL     1      34.795 -24.506 -14.094  0.00  0.00    +0.007 C 
ATOM      6  C   UNL     1      32.813 -23.721 -15.517  0.00  0.00    +0.037 C 
ATOM      7  C   UNL     1      31.839 -23.933 -14.345  0.00  0.00    +0.136 C 
ATOM      8  C   UNL     1      36.280 -24.253 -13.631  0.00  0.00    +0.034 C 
ATOM      9  C   UNL     1      33.808 -24.740 -12.929  0.00  0.00    +0.004 C 
ATOM     10  C   UNL     1      32.394 -25.033 -13.425  0.00  0.00    +0.040 C 
ATOM     11  C   UNL     1      35.206 -23.174 -16.234  0.00  0.00    +0.004 C 
ATOM     12  C   UNL     1      32.230 -22.695 -16.491  0.00  0.00    +0.015 C 
ATOM     13  C   UNL     1      37.124 -23.994 -14.880  0.00  0.00    -0.038 C 
ATOM     14  C   UNL     1      36.638 -22.899 -15.792  0.00  0.00    +0.022 C 
ATOM     15  C   UNL     1      31.521 -22.673 -13.522  0.00  0.00    +0.044 C 
ATOM     16  C   UNL     1      36.402 -23.042 -12.679  0.00  0.00    +0.008 C 
ATOM     17  C   UNL     1      36.804 -25.454 -12.854  0.00  0.00    -0.020 C 
ATOM     18  C   UNL     1      30.723 -22.814 -16.680  0.00  0.00    +0.110 C 
ATOM     19  C   UNL     1      30.052 -23.997 -16.027  0.00  0.00    +0.317 C 
ATOM     20  C   UNL     1      38.211 -24.710 -15.211  0.00  0.00    +0.034 C 
ATOM     21  C   UNL     1      37.883 -26.172 -13.178  0.00  0.00    +0.038 C 
ATOM     22  C   UNL     1      38.675 -25.835 -14.375  0.00  0.00    +0.195 C 
ENDROOT
TORSDOF 0
ENDMDL
MODEL 3
REMARK VINA RESULT:      -9.4      6.143      9.771
REMARK  Name = 13769
REMARK  0 active torsions:
REMARK  status: ('A' for Active; 'I' for Inactive)
REMARK                            x       y       z     vdW  Elec       q    Type
REMARK                         _______ _______ _______ _____ _____    ______ ____
ROOT
ATOM      1  O   UNL     1      35.434 -17.666 -20.614  0.00  0.00    -0.456 OA
ATOM      2  O   UNL     1      36.673 -19.547 -20.579  0.00  0.00    -0.250 OA
ATOM      3  O   UNL     1      34.984 -10.362 -26.376  0.00  0.00    -0.287 OA
ATOM      4  C   UNL     1      33.856 -15.839 -23.575  0.00  0.00    +0.004 C 
ATOM      5  C   UNL     1      34.139 -14.394 -23.047  0.00  0.00    +0.007 C 
ATOM      6  C   UNL     1      34.699 -16.882 -22.792  0.00  0.00    +0.037 C 
ATOM      7  C   UNL     1      34.454 -16.821 -21.275  0.00  0.00    +0.136 C 
ATOM      8  C   UNL     1      33.359 -13.284 -23.847  0.00  0.00    +0.034 C 
ATOM      9  C   UNL     1      33.918 -14.335 -21.519  0.00  0.00    +0.004 C 
ATOM     10  C   UNL     1      34.732 -15.393 -20.779  0.00  0.00    +0.040 C 
ATOM     11  C   UNL     1      34.118 -15.924 -25.091  0.00  0.00    +0.004 C 
ATOM     12  C   UNL     1      34.517 -18.319 -23.286  0.00  0.00    +0.015 C 
ATOM     13  C   UNL     1      33.637 -13.497 -25.337  0.00  0.00    -0.038 C 
ATOM     14  C   UNL     1      33.342 -14.872 -25.875  0.00  0.00    +0.022 C 
ATOM     15  C   UNL     1      33.055 -17.271 -20.819  0.00  0.00    +0.044 C 
ATOM     16  C   UNL     1      31.834 -13.343 -23.604  0.00  0.00    +0.008 C 
ATOM     17  C   UNL     1      33.803 -11.897 -23.400  0.00  0.00    -0.020 C 
ATOM     18  C   UNL     1      35.045 -19.373 -22.320  0.00  0.00    +0.110 C 
ATOM     19  C   UNL     1      35.802 -18.868 -21.118  0.00  0.00    +0.317 C 
ATOM     20  C   UNL     1      34.160 -12.559 -26.143  0.00  0.00    +0.034 C 
ATOM     21  C   UNL     1      34.327 -10.960 -24.196  0.00  0.00    +0.038 C 
ATOM     22  C   UNL     1      34.524 -11.222 -25.633  0.00  0.00    +0.195 C 
ENDROOT
TORSDOF 0
ENDMDL
MODEL 4
REMARK VINA RESULT:      -8.2     14.063     18.771
REMARK  Name = 13769
REMARK  0 active torsions:
REMARK  status: ('A' for Active; 'I' for Inactive)
REMARK                            x       y       z     vdW  Elec       q    Type
REMARK                         _______ _______ _______ _____ _____    ______ ____
ROOT
ATOM      1  O   UNL     1      31.045  -3.376 -26.497  0.00  0.00    -0.456 OA
ATOM      2  O   UNL     1      31.303  -2.424 -28.522  0.00  0.00    -0.250 OA
ATOM      3  O   UNL     1      32.684 -11.909 -23.140  0.00  0.00    -0.287 OA
ATOM      4  C   UNL     1      33.287  -5.876 -24.673  0.00  0.00    +0.004 C 
ATOM      5  C   UNL     1      32.123  -6.722 -24.060  0.00  0.00    +0.007 C 
ATOM      6  C   UNL     1      32.755  -4.957 -25.807  0.00  0.00    +0.037 C 
ATOM      7  C   UNL     1      31.623  -4.029 -25.334  0.00  0.00    +0.136 C 
ATOM      8  C   UNL     1      32.614  -7.722 -22.945  0.00  0.00    +0.034 C 
ATOM      9  C   UNL     1      30.974  -5.795 -23.605  0.00  0.00    +0.004 C 
ATOM     10  C   UNL     1      30.495  -4.881 -24.730  0.00  0.00    +0.040 C 
ATOM     11  C   UNL     1      34.421  -6.791 -25.172  0.00  0.00    +0.004 C 
ATOM     12  C   UNL     1      33.845  -4.132 -26.495  0.00  0.00    +0.015 C 
ATOM     13  C   UNL     1      33.776  -8.534 -23.521  0.00  0.00    -0.038 C 
ATOM     14  C   UNL     1      34.921  -7.740 -24.090  0.00  0.00    +0.022 C 
ATOM     15  C   UNL     1      32.046  -2.937 -24.337  0.00  0.00    +0.044 C 
ATOM     16  C   UNL     1      33.091  -6.994 -21.668  0.00  0.00    +0.008 C 
ATOM     17  C   UNL     1      31.472  -8.631 -22.509  0.00  0.00    -0.020 C 
ATOM     18  C   UNL     1      33.305  -2.987 -27.344  0.00  0.00    +0.110 C 
ATOM     19  C   UNL     1      31.808  -2.924 -27.520  0.00  0.00    +0.317 C 
ATOM     20  C   UNL     1      33.792  -9.876 -23.584  0.00  0.00    +0.034 C 
ATOM     21  C   UNL     1      31.481  -9.966 -22.571  0.00  0.00    +0.038 C 
ATOM     22  C   UNL     1      32.656 -10.683 -23.098  0.00  0.00    +0.195 C 
ENDROOT
TORSDOF 0
ENDMDL
MODEL 5
REMARK VINA RESULT:      -7.4      7.638     11.271
REMARK  Name = 13769
REMARK  0 active torsions:
REMARK  status: ('A' for Active; 'I' for Inactive)
REMARK                            x       y       z     vdW  Elec       q    Type
REMARK                         _______ _______ _______ _____ _____    ______ ____
ROOT
ATOM      1  O   UNL     1      34.163 -16.134 -20.407  0.00  0.00    -0.456 OA
ATOM      2  O   UNL     1      35.801 -17.653 -20.688  0.00  0.00    -0.250 OA
ATOM      3  O   UNL     1      33.459  -7.023 -22.216  0.00  0.00    -0.287 OA
ATOM      4  C   UNL     1      33.097 -13.250 -22.676  0.00  0.00    +0.004 C 
ATOM      5  C   UNL     1      32.804 -12.234 -21.523  0.00  0.00    +0.007 C 
ATOM      6  C   UNL     1      33.922 -14.455 -22.146  0.00  0.00    +0.037 C 
ATOM      7  C   UNL     1      33.231 -15.174 -20.975  0.00  0.00    +0.136 C 
ATOM      8  C   UNL     1      32.023 -10.957 -22.015  0.00  0.00    +0.034 C 
ATOM      9  C   UNL     1      32.132 -12.957 -20.335  0.00  0.00    +0.004 C 
ATOM     10  C   UNL     1      32.948 -14.156 -19.858  0.00  0.00    +0.040 C 
ATOM     11  C   UNL     1      33.808 -12.550 -23.849  0.00  0.00    +0.004 C 
ATOM     12  C   UNL     1      34.294 -15.471 -23.227  0.00  0.00    +0.015 C 
ATOM     13  C   UNL     1      32.777 -10.379 -23.215  0.00  0.00    -0.038 C 
ATOM     14  C   UNL     1      33.043 -11.331 -24.350  0.00  0.00    +0.022 C 
ATOM     15  C   UNL     1      31.939 -15.925 -21.338  0.00  0.00    +0.044 C 
ATOM     16  C   UNL     1      30.572 -11.278 -22.437  0.00  0.00    +0.008 C 
ATOM     17  C   UNL     1      31.918  -9.934 -20.891  0.00  0.00    -0.020 C 
ATOM     18  C   UNL     1      34.780 -16.806 -22.675  0.00  0.00    +0.110 C 
ATOM     19  C   UNL     1      34.978 -16.887 -21.182  0.00  0.00    +0.317 C 
ATOM     20  C   UNL     1      33.237  -9.119 -23.274  0.00  0.00    +0.034 C 
ATOM     21  C   UNL     1      32.376  -8.680 -20.941  0.00  0.00    +0.038 C 
ATOM     22  C   UNL     1      33.054  -8.179 -22.150  0.00  0.00    +0.195 C 
ENDROOT
TORSDOF 0
ENDMDL
MODEL 6
REMARK VINA RESULT:      -7.3     15.418     19.790
REMARK  Name = 13769
REMARK  0 active torsions:
REMARK  status: ('A' for Active; 'I' for Inactive)
REMARK                            x       y       z     vdW  Elec       q    Type
REMARK                         _______ _______ _______ _____ _____    ______ ____
ROOT
ATOM      1  O   UNL     1      34.831  -3.806 -27.550  0.00  0.00    -0.456 OA
ATOM      2  O   UNL     1      35.529  -1.786 -28.260  0.00  0.00    -0.250 OA
ATOM      3  O   UNL     1      32.369  -7.206 -19.235  0.00  0.00    -0.287 OA
ATOM      4  C   UNL     1      32.167  -4.694 -24.959  0.00  0.00    +0.004 C 
ATOM      5  C   UNL     1      32.939  -5.904 -24.338  0.00  0.00    +0.007 C 
ATOM      6  C   UNL     1      33.119  -3.826 -25.827  0.00  0.00    +0.037 C 
ATOM      7  C   UNL     1      33.807  -4.636 -26.939  0.00  0.00    +0.136 C 
ATOM      8  C   UNL     1      32.038  -6.787 -23.393  0.00  0.00    +0.034 C 
ATOM      9  C   UNL     1      33.652  -6.707 -25.449  0.00  0.00    +0.004 C 
ATOM     10  C   UNL     1      34.553  -5.823 -26.307  0.00  0.00    +0.040 C 
ATOM     11  C   UNL     1      31.489  -3.858 -23.856  0.00  0.00    +0.004 C 
ATOM     12  C   UNL     1      32.449  -2.589 -26.430  0.00  0.00    +0.015 C 
ATOM     13  C   UNL     1      31.367  -5.856 -22.381  0.00  0.00    -0.038 C 
ATOM     14  C   UNL     1      30.593  -4.700 -22.957  0.00  0.00    +0.022 C 
ATOM     15  C   UNL     1      32.875  -5.138 -28.055  0.00  0.00    +0.044 C 
ATOM     16  C   UNL     1      30.948  -7.559 -24.170  0.00  0.00    +0.008 C 
ATOM     17  C   UNL     1      32.883  -7.842 -22.690  0.00  0.00    -0.020 C 
ATOM     18  C   UNL     1      33.253  -1.940 -27.550  0.00  0.00    +0.110 C 
ATOM     19  C   UNL     1      34.635  -2.489 -27.796  0.00  0.00    +0.317 C 
ATOM     20  C   UNL     1      31.478  -5.993 -21.050  0.00  0.00    +0.034 C 
ATOM     21  C   UNL     1      33.000  -7.982 -21.366  0.00  0.00    +0.038 C 
ATOM     22  C   UNL     1      32.286  -7.074 -20.451  0.00  0.00    +0.195 C 
ENDROOT
TORSDOF 0
ENDMDL
MODEL 7
REMARK VINA RESULT:      -7.3     14.053     18.568
REMARK  Name = 13769
REMARK  0 active torsions:
REMARK  status: ('A' for Active; 'I' for Inactive)
REMARK                            x       y       z     vdW  Elec       q    Type
REMARK                         _______ _______ _______ _____ _____    ______ ____
ROOT
ATOM      1  O   UNL     1      29.939  -3.020 -24.170  0.00  0.00    -0.456 OA
ATOM      2  O   UNL     1      29.261  -1.787 -25.928  0.00  0.00    -0.250 OA
ATOM      3  O   UNL     1      32.663 -11.873 -23.188  0.00  0.00    -0.287 OA
ATOM      4  C   UNL     1      32.687  -5.668 -23.963  0.00  0.00    +0.004 C 
ATOM      5  C   UNL     1      31.913  -6.633 -23.006  0.00  0.00    +0.007 C 
ATOM      6  C   UNL     1      31.720  -4.620 -24.581  0.00  0.00    +0.037 C 
ATOM      7  C   UNL     1      30.969  -3.808 -23.512  0.00  0.00    +0.136 C 
ATOM      8  C   UNL     1      32.831  -7.760 -22.398  0.00  0.00    +0.034 C 
ATOM      9  C   UNL     1      31.136  -5.820 -21.946  0.00  0.00    +0.004 C 
ATOM     10  C   UNL     1      30.221  -4.776 -22.581  0.00  0.00    +0.040 C 
ATOM     11  C   UNL     1      33.429  -6.463 -25.054  0.00  0.00    +0.004 C 
ATOM     12  C   UNL     1      32.394  -3.668 -25.572  0.00  0.00    +0.015 C 
ATOM     13  C   UNL     1      33.565  -8.442 -23.555  0.00  0.00    -0.038 C 
ATOM     14  C   UNL     1      34.342  -7.535 -24.472  0.00  0.00    +0.022 C 
ATOM     15  C   UNL     1      31.841  -2.851 -22.683  0.00  0.00    +0.044 C 
ATOM     16  C   UNL     1      33.870  -7.200 -21.400  0.00  0.00    +0.008 C 
ATOM     17  C   UNL     1      31.992  -8.762 -21.615  0.00  0.00    -0.020 C 
ATOM     18  C   UNL     1      31.560  -2.436 -25.904  0.00  0.00    +0.110 C 
ATOM     19  C   UNL     1      30.156  -2.403 -25.355  0.00  0.00    +0.317 C 
ATOM     20  C   UNL     1      33.506  -9.760 -23.805  0.00  0.00    +0.034 C 
ATOM     21  C   UNL     1      31.926 -10.074 -21.861  0.00  0.00    +0.038 C 
ATOM     22  C   UNL     1      32.698 -10.668 -22.967  0.00  0.00    +0.195 C 
ENDROOT
TORSDOF 0
ENDMDL
MODEL 8
REMARK VINA RESULT:      -7.2      3.580      5.470
REMARK  Name = 13769
REMARK  0 active torsions:
REMARK  status: ('A' for Active; 'I' for Inactive)
REMARK                            x       y       z     vdW  Elec       q    Type
REMARK                         _______ _______ _______ _____ _____    ______ ____
ROOT
ATOM      1  O   UNL     1      37.133 -24.559 -15.542  0.00  0.00    -0.456 OA
ATOM      2  O   UNL     1      38.682 -26.165 -15.234  0.00  0.00    -0.250 OA
ATOM      3  O   UNL     1      27.888 -24.668 -16.675  0.00  0.00    -0.287 OA
ATOM      4  C   UNL     1      33.591 -24.286 -14.136  0.00  0.00    +0.004 C 
ATOM      5  C   UNL     1      32.945 -23.695 -15.432  0.00  0.00    +0.007 C 
ATOM      6  C   UNL     1      34.990 -24.885 -14.447  0.00  0.00    +0.037 C 
ATOM      7  C   UNL     1      35.942 -23.861 -15.088  0.00  0.00    +0.136 C 
ATOM      8  C   UNL     1      31.494 -23.129 -15.191  0.00  0.00    +0.034 C 
ATOM      9  C   UNL     1      33.908 -22.684 -16.093  0.00  0.00    +0.004 C 
ATOM     10  C   UNL     1      35.285 -23.291 -16.355  0.00  0.00    +0.040 C 
ATOM     11  C   UNL     1      32.659 -25.330 -13.491  0.00  0.00    +0.004 C 
ATOM     12  C   UNL     1      35.667 -25.531 -13.236  0.00  0.00    +0.015 C 
ATOM     13  C   UNL     1      30.675 -24.217 -14.494  0.00  0.00    -0.038 C 
ATOM     14  C   UNL     1      31.263 -24.779 -13.228  0.00  0.00    +0.022 C 
ATOM     15  C   UNL     1      36.386 -22.713 -14.166  0.00  0.00    +0.044 C 
ATOM     16  C   UNL     1      31.496 -21.857 -14.313  0.00  0.00    +0.008 C 
ATOM     17  C   UNL     1      30.856 -22.726 -16.515  0.00  0.00    -0.020 C 
ATOM     18  C   UNL     1      37.155 -25.796 -13.433  0.00  0.00    +0.110 C 
ATOM     19  C   UNL     1      37.709 -25.545 -14.814  0.00  0.00    +0.317 C 
ATOM     20  C   UNL     1      29.522 -24.709 -14.975  0.00  0.00    +0.034 C 
ATOM     21  C   UNL     1      29.711 -23.213 -17.000  0.00  0.00    +0.038 C 
ATOM     22  C   UNL     1      28.952 -24.229 -16.250  0.00  0.00    +0.195 C 
ENDROOT
TORSDOF 0
ENDMDL
MODEL 9
REMARK VINA RESULT:      -7.1      1.150      6.703
REMARK  Name = 13769
REMARK  0 active torsions:
REMARK  status: ('A' for Active; 'I' for Inactive)
REMARK                            x       y       z     vdW  Elec       q    Type
REMARK                         _______ _______ _______ _____ _____    ______ ____
ROOT
ATOM      1  O   UNL     1      35.527 -20.247 -19.695  0.00  0.00    -0.456 OA
ATOM      2  O   UNL     1      34.241 -18.833 -20.887  0.00  0.00    -0.250 OA
ATOM      3  O   UNL     1      35.062 -23.611 -11.022  0.00  0.00    -0.287 OA
ATOM      4  C   UNL     1      34.508 -22.972 -17.218  0.00  0.00    +0.004 C 
ATOM      5  C   UNL     1      35.674 -22.719 -16.207  0.00  0.00    +0.007 C 
ATOM      6  C   UNL     1      34.374 -21.781 -18.206  0.00  0.00    +0.037 C 
ATOM      7  C   UNL     1      35.678 -21.497 -18.970  0.00  0.00    +0.136 C 
ATOM      8  C   UNL     1      35.818 -23.867 -15.137  0.00  0.00    +0.034 C 
ATOM      9  C   UNL     1      36.982 -22.410 -16.970  0.00  0.00    +0.004 C 
ATOM     10  C   UNL     1      36.810 -21.258 -17.958  0.00  0.00    +0.040 C 
ATOM     11  C   UNL     1      33.188 -23.237 -16.470  0.00  0.00    +0.004 C 
ATOM     12  C   UNL     1      33.218 -21.929 -19.198  0.00  0.00    +0.015 C 
ATOM     13  C   UNL     1      34.444 -24.091 -14.502  0.00  0.00    -0.038 C 
ATOM     14  C   UNL     1      33.311 -24.366 -15.455  0.00  0.00    +0.022 C 
ATOM     15  C   UNL     1      36.096 -22.582 -19.977  0.00  0.00    +0.044 C 
ATOM     16  C   UNL     1      36.310 -25.194 -15.758  0.00  0.00    +0.008 C 
ATOM     17  C   UNL     1      36.852 -23.485 -14.086  0.00  0.00    -0.020 C 
ATOM     18  C   UNL     1      33.293 -20.967 -20.378  0.00  0.00    +0.110 C 
ATOM     19  C   UNL     1      34.375 -19.918 -20.325  0.00  0.00    +0.317 C 
ATOM     20  C   UNL     1      34.206 -24.005 -13.183  0.00  0.00    +0.034 C 
ATOM     21  C   UNL     1      36.622 -23.395 -12.772  0.00  0.00    +0.038 C 
ATOM     22  C   UNL     1      35.280 -23.669 -12.227  0.00  0.00    +0.195 C 
ENDROOT
TORSDOF 0
ENDMDL
