MODEL 1
REMARK VINA RESULT:      -9.7      0.000      0.000
REMARK  Name = 5284529
REMARK  7 active torsions:
REMARK  status: ('A' for Active; 'I' for Inactive)
REMARK    1  A    between atoms: N_2  and  CA_9
REMARK    2  A    between atoms: C_3  and  CA_20
REMARK    3  A    between atoms: CA_11  and  C_17
REMARK    4  A    between atoms: C_13  and  O_14
REMARK    5  A    between atoms: C_17  and  O_18
REMARK    6  A    between atoms: CA_20  and  C_21
REMARK    7  A    between atoms: CA_20  and  N_27
REMARK                            x       y       z     vdW  Elec       q    Type
REMARK                         _______ _______ _______ _____ _____    ______ ____
ROOT
ATOM      1  O   UNL     1      36.517 -20.716 -20.357  0.00  0.00    -0.277 OA
ATOM      2  N   UNL     1      34.817 -19.190 -20.755  0.00  0.00    -0.298 N 
ATOM      3  C   UNL     1      35.319 -20.436 -20.379  0.00  0.00    +0.206 C 
ATOM      4  H   UNL     1      33.842 -19.052 -20.744  0.00  0.00    +0.150 HD
ENDROOT
BRANCH   2   9
ATOM      5  S   UNL     1      34.778 -18.737 -23.796  0.00  0.00    -0.110 S 
ATOM      6  O   UNL     1      34.675 -16.014 -20.006  0.00  0.00    -0.273 OA
ATOM      7  N   UNL     1      34.910 -16.544 -22.289  0.00  0.00    -0.240 N 
ATOM      8  C   UNL     1      35.721 -17.692 -22.658  0.00  0.00    +0.155 C 
ATOM      9  CA  UNL     1      35.675 -18.079 -21.163  0.00  0.00    +0.178 C 
ATOM     10  C   UNL     1      35.025 -16.680 -20.951  0.00  0.00    +0.251 C 
ATOM     11  CA  UNL     1      34.325 -15.723 -23.194  0.00  0.00    +0.162 C 
ATOM     12  C   UNL     1      34.614 -17.422 -25.058  0.00  0.00    +0.124 C 
ATOM     13  C   UNL     1      34.199 -16.079 -24.489  0.00  0.00    +0.147 C 
BRANCH  13  14
ATOM     14  O   UNL     1      33.617 -15.223 -25.410  0.00  0.00    -0.473 OA
ATOM     15  C   UNL     1      32.789 -15.940 -26.301  0.00  0.00    +0.252 C 
ENDBRANCH  13  14
BRANCH  11  17
ATOM     16  OXT UNL     1      32.757 -14.337 -22.067  0.00  0.00    -0.244 OA
ATOM     17  C   UNL     1      33.772 -14.445 -22.728  0.00  0.00    +0.355 C 
BRANCH  17  18
ATOM     18  O   UNL     1      34.561 -13.435 -23.146  0.00  0.00    -0.476 OA
ATOM     19  H   UNL     1      34.765 -12.730 -22.564  0.00  0.00    +0.295 HD
ENDBRANCH  17  18
ENDBRANCH  11  17
ENDBRANCH   2   9
BRANCH   3  20
ATOM     20  CA  UNL     1      34.235 -21.435 -19.996  0.00  0.00    +0.036 C 
BRANCH  20  21
ATOM     21  C   UNL     1      34.572 -22.013 -18.663  0.00  0.00    -0.034 C 
ATOM     22  C   UNL     1      33.467 -22.778 -17.972  0.00  0.00    -0.006 C 
ATOM     23  C   UNL     1      35.788 -21.862 -18.108  0.00  0.00    -0.006 C 
ATOM     24  C   UNL     1      36.169 -22.427 -16.770  0.00  0.00    -0.000 C 
ATOM     25  C   UNL     1      33.850 -23.342 -16.635  0.00  0.00    -0.000 C 
ATOM     26  C   UNL     1      35.066 -23.184 -16.094  0.00  0.00    -0.000 C 
ENDBRANCH  20  21
BRANCH  20  27
ATOM     27  N   UNL     1      32.965 -20.712 -19.984  0.00  0.00    +0.390 N 
ATOM     28  H1  UNL     1      32.247 -21.295 -19.553  0.00  0.00    -0.088 HD
ATOM     29  H2  UNL     1      32.693 -20.488 -20.942  0.00  0.00    -0.088 HD
ATOM     30  H3  UNL     1      33.071 -19.850 -19.450  0.00  0.00    -0.088 HD
ENDBRANCH  20  27
ENDBRANCH   3  20
TORSDOF 7
ENDMDL
MODEL 2
REMARK VINA RESULT:      -9.3      5.605     10.711
REMARK  Name = 5284529
REMARK  7 active torsions:
REMARK  status: ('A' for Active; 'I' for Inactive)
REMARK    1  A    between atoms: N_2  and  CA_9
REMARK    2  A    between atoms: C_3  and  CA_20
REMARK    3  A    between atoms: CA_11  and  C_17
REMARK    4  A    between atoms: C_13  and  O_14
REMARK    5  A    between atoms: C_17  and  O_18
REMARK    6  A    between atoms: CA_20  and  C_21
REMARK    7  A    between atoms: CA_20  and  N_27
REMARK                            x       y       z     vdW  Elec       q    Type
REMARK                         _______ _______ _______ _____ _____    ______ ____
ROOT
ATOM      1  O   UNL     1      31.414  -9.302 -19.896  0.00  0.00    -0.277 OA
ATOM      2  N   UNL     1      32.405 -10.017 -21.866  0.00  0.00    -0.298 N 
ATOM      3  C   UNL     1      32.231  -9.134 -20.801  0.00  0.00    +0.206 C 
ATOM      4  H   UNL     1      33.083  -9.805 -22.548  0.00  0.00    +0.150 HD
ENDROOT
BRANCH   2   9
ATOM      5  S   UNL     1      33.541 -11.871 -24.040  0.00  0.00    -0.110 S 
ATOM      6  O   UNL     1      31.809 -12.425 -19.741  0.00  0.00    -0.273 OA
ATOM      7  N   UNL     1      32.542 -13.074 -21.883  0.00  0.00    -0.240 N 
ATOM      8  C   UNL     1      32.100 -12.304 -23.034  0.00  0.00    +0.155 C 
ATOM      9  CA  UNL     1      31.624 -11.244 -22.016  0.00  0.00    +0.178 C 
ATOM     10  C   UNL     1      31.944 -12.321 -20.937  0.00  0.00    +0.251 C 
ATOM     11  CA  UNL     1      33.310 -14.186 -21.981  0.00  0.00    +0.162 C 
ATOM     12  C   UNL     1      33.993 -13.616 -24.359  0.00  0.00    +0.124 C 
ATOM     13  C   UNL     1      33.969 -14.489 -23.118  0.00  0.00    +0.147 C 
BRANCH  13  14
ATOM     14  O   UNL     1      34.735 -15.639 -23.214  0.00  0.00    -0.473 OA
ATOM     15  C   UNL     1      34.388 -16.373 -24.370  0.00  0.00    +0.252 C 
ENDBRANCH  13  14
BRANCH  11  17
ATOM     16  OXT UNL     1      32.556 -15.676 -20.290  0.00  0.00    -0.244 OA
ATOM     17  C   UNL     1      33.460 -15.042 -20.797  0.00  0.00    +0.355 C 
BRANCH  17  18
ATOM     18  O   UNL     1      34.740 -15.008 -20.378  0.00  0.00    -0.476 OA
ATOM     19  H   UNL     1      35.386 -15.537 -20.803  0.00  0.00    +0.295 HD
ENDBRANCH  17  18
ENDBRANCH  11  17
ENDBRANCH   2   9
BRANCH   3  20
ATOM     20  CA  UNL     1      33.156  -7.926 -20.859  0.00  0.00    +0.036 C 
BRANCH  20  21
ATOM     21  C   UNL     1      32.936  -7.221 -22.155  0.00  0.00    -0.034 C 
ATOM     22  C   UNL     1      34.042  -7.347 -23.176  0.00  0.00    -0.006 C 
ATOM     23  C   UNL     1      31.818  -6.515 -22.400  0.00  0.00    -0.006 C 
ATOM     24  C   UNL     1      31.556  -5.791 -23.689  0.00  0.00    -0.000 C 
ATOM     25  C   UNL     1      33.778  -6.623 -24.464  0.00  0.00    -0.000 C 
ATOM     26  C   UNL     1      32.660  -5.923 -24.696  0.00  0.00    -0.000 C 
ENDBRANCH  20  21
BRANCH  20  27
ATOM     27  N   UNL     1      32.842  -7.084 -19.707  0.00  0.00    +0.390 N 
ATOM     28  H1  UNL     1      31.968  -6.585 -19.880  0.00  0.00    -0.088 HD
ATOM     29  H2  UNL     1      33.595  -6.411 -19.562  0.00  0.00    -0.088 HD
ATOM     30  H3  UNL     1      32.742  -7.668 -18.877  0.00  0.00    -0.088 HD
ENDBRANCH  20  27
ENDBRANCH   3  20
TORSDOF 7
ENDMDL
MODEL 3
REMARK VINA RESULT:      -9.3      1.149      1.237
REMARK  Name = 5284529
REMARK  7 active torsions:
REMARK  status: ('A' for Active; 'I' for Inactive)
REMARK    1  A    between atoms: N_2  and  CA_9
REMARK    2  A    between atoms: C_3  and  CA_20
REMARK    3  A    between atoms: CA_11  and  C_17
REMARK    4  A    between atoms: C_13  and  O_14
REMARK    5  A    between atoms: C_17  and  O_18
REMARK    6  A    between atoms: CA_20  and  C_21
REMARK    7  A    between atoms: CA_20  and  N_27
REMARK                            x       y       z     vdW  Elec       q    Type
REMARK                         _______ _______ _______ _____ _____    ______ ____
ROOT
ATOM      1  O   UNL     1      36.240 -19.259 -20.209  0.00  0.00    -0.277 OA
ATOM      2  N   UNL     1      34.909 -18.690 -22.020  0.00  0.00    -0.298 N 
ATOM      3  C   UNL     1      35.286 -19.499 -20.948  0.00  0.00    +0.206 C 
ATOM      4  H   UNL     1      34.132 -18.957 -22.562  0.00  0.00    +0.150 HD
ENDROOT
BRANCH   2   9
ATOM      5  S   UNL     1      34.268 -17.752 -24.878  0.00  0.00    -0.110 S 
ATOM      6  O   UNL     1      34.761 -15.699 -20.714  0.00  0.00    -0.273 OA
ATOM      7  N   UNL     1      34.580 -15.830 -23.058  0.00  0.00    -0.240 N 
ATOM      8  C   UNL     1      35.360 -16.834 -23.763  0.00  0.00    +0.155 C 
ATOM      9  CA  UNL     1      35.619 -17.462 -22.375  0.00  0.00    +0.178 C 
ATOM     10  C   UNL     1      34.954 -16.173 -21.809  0.00  0.00    +0.251 C 
ATOM     11  CA  UNL     1      33.793 -14.922 -23.685  0.00  0.00    +0.162 C 
ATOM     12  C   UNL     1      33.802 -16.266 -25.839  0.00  0.00    +0.124 C 
ATOM     13  C   UNL     1      33.439 -15.071 -24.978  0.00  0.00    +0.147 C 
BRANCH  13  14
ATOM     14  O   UNL     1      32.651 -14.126 -25.615  0.00  0.00    -0.473 OA
ATOM     15  C   UNL     1      33.222 -13.755 -26.853  0.00  0.00    +0.252 C 
ENDBRANCH  13  14
BRANCH  11  17
ATOM     16  OXT UNL     1      32.374 -13.860 -22.102  0.00  0.00    -0.244 OA
ATOM     17  C   UNL     1      33.278 -13.786 -22.911  0.00  0.00    +0.355 C 
BRANCH  17  18
ATOM     18  O   UNL     1      33.963 -12.672 -23.239  0.00  0.00    -0.476 OA
ATOM     19  H   UNL     1      33.835 -11.883 -22.749  0.00  0.00    +0.295 HD
ENDBRANCH  17  18
ENDBRANCH  11  17
ENDBRANCH   2   9
BRANCH   3  20
ATOM     20  CA  UNL     1      34.399 -20.724 -20.774  0.00  0.00    +0.036 C 
BRANCH  20  21
ATOM     21  C   UNL     1      34.773 -21.404 -19.500  0.00  0.00    -0.034 C 
ATOM     22  C   UNL     1      33.669 -22.163 -18.803  0.00  0.00    -0.006 C 
ATOM     23  C   UNL     1      36.021 -21.345 -19.001  0.00  0.00    -0.006 C 
ATOM     24  C   UNL     1      36.440 -22.013 -17.723  0.00  0.00    -0.000 C 
ATOM     25  C   UNL     1      34.089 -22.831 -17.526  0.00  0.00    -0.000 C 
ATOM     26  C   UNL     1      35.336 -22.764 -17.040  0.00  0.00    -0.000 C 
ENDBRANCH  20  21
BRANCH  20  27
ATOM     27  N   UNL     1      33.014 -20.259 -20.771  0.00  0.00    +0.390 N 
ATOM     28  H1  UNL     1      32.892 -19.551 -21.495  0.00  0.00    -0.088 HD
ATOM     29  H2  UNL     1      32.793 -19.855 -19.860  0.00  0.00    -0.088 HD
ATOM     30  H3  UNL     1      32.391 -21.045 -20.955  0.00  0.00    -0.088 HD
ENDBRANCH  20  27
ENDBRANCH   3  20
TORSDOF 7
ENDMDL
MODEL 4
REMARK VINA RESULT:      -8.7      2.901      4.773
REMARK  Name = 5284529
REMARK  7 active torsions:
REMARK  status: ('A' for Active; 'I' for Inactive)
REMARK    1  A    between atoms: N_2  and  CA_9
REMARK    2  A    between atoms: C_3  and  CA_20
REMARK    3  A    between atoms: CA_11  and  C_17
REMARK    4  A    between atoms: C_13  and  O_14
REMARK    5  A    between atoms: C_17  and  O_18
REMARK    6  A    between atoms: CA_20  and  C_21
REMARK    7  A    between atoms: CA_20  and  N_27
REMARK                            x       y       z     vdW  Elec       q    Type
REMARK                         _______ _______ _______ _____ _____    ______ ____
ROOT
ATOM      1  O   UNL     1      34.592 -18.065 -23.894  0.00  0.00    -0.277 OA
ATOM      2  N   UNL     1      34.111 -16.230 -22.561  0.00  0.00    -0.298 N 
ATOM      3  C   UNL     1      34.761 -17.429 -22.855  0.00  0.00    +0.206 C 
ATOM      4  H   UNL     1      34.305 -15.786 -21.704  0.00  0.00    +0.150 HD
ENDROOT
BRANCH   2   9
ATOM      5  S   UNL     1      32.656 -13.848 -21.271  0.00  0.00    -0.110 S 
ATOM      6  O   UNL     1      34.575 -14.742 -25.432  0.00  0.00    -0.273 OA
ATOM      7  N   UNL     1      33.260 -13.590 -23.853  0.00  0.00    -0.240 N 
ATOM      8  C   UNL     1      32.381 -14.357 -22.987  0.00  0.00    +0.155 C 
ATOM      9  CA  UNL     1      33.154 -15.603 -23.472  0.00  0.00    +0.178 C 
ATOM     10  C   UNL     1      33.814 -14.637 -24.499  0.00  0.00    +0.251 C 
ATOM     11  CA  UNL     1      33.322 -12.237 -23.842  0.00  0.00    +0.162 C 
ATOM     12  C   UNL     1      32.173 -12.110 -21.582  0.00  0.00    +0.124 C 
ATOM     13  C   UNL     1      32.802 -11.516 -22.828  0.00  0.00    +0.147 C 
BRANCH  13  14
ATOM     14  O   UNL     1      32.853 -10.131 -22.837  0.00  0.00    -0.473 OA
ATOM     15  C   UNL     1      31.561  -9.586 -22.677  0.00  0.00    +0.252 C 
ENDBRANCH  13  14
BRANCH  11  17
ATOM     16  OXT UNL     1      33.736 -11.679 -26.116  0.00  0.00    -0.244 OA
ATOM     17  C   UNL     1      34.022 -11.558 -24.940  0.00  0.00    +0.355 C 
BRANCH  17  18
ATOM     18  O   UNL     1      35.011 -10.792 -24.437  0.00  0.00    -0.476 OA
ATOM     19  H   UNL     1      35.643 -11.167 -23.856  0.00  0.00    +0.295 HD
ENDBRANCH  17  18
ENDBRANCH  11  17
ENDBRANCH   2   9
BRANCH   3  20
ATOM     20  CA  UNL     1      35.710 -17.887 -21.755  0.00  0.00    +0.036 C 
BRANCH  20  21
ATOM     21  C   UNL     1      35.098 -19.053 -21.054  0.00  0.00    -0.034 C 
ATOM     22  C   UNL     1      36.062 -20.045 -20.447  0.00  0.00    -0.006 C 
ATOM     23  C   UNL     1      33.765 -19.212 -20.968  0.00  0.00    -0.006 C 
ATOM     24  C   UNL     1      33.107 -20.369 -20.273  0.00  0.00    -0.000 C 
ATOM     25  C   UNL     1      35.403 -21.200 -19.752  0.00  0.00    -0.000 C 
ATOM     26  C   UNL     1      34.073 -21.346 -19.673  0.00  0.00    -0.000 C 
ENDBRANCH  20  21
BRANCH  20  27
ATOM     27  N   UNL     1      36.980 -18.226 -22.394  0.00  0.00    +0.390 N 
ATOM     28  H1  UNL     1      36.955 -19.197 -22.706  0.00  0.00    -0.088 HD
ATOM     29  H2  UNL     1      37.740 -18.103 -21.725  0.00  0.00    -0.088 HD
ATOM     30  H3  UNL     1      37.130 -17.615 -23.196  0.00  0.00    -0.088 HD
ENDBRANCH  20  27
ENDBRANCH   3  20
TORSDOF 7
ENDMDL
MODEL 5
REMARK VINA RESULT:      -8.6      4.255      7.043
REMARK  Name = 5284529
REMARK  7 active torsions:
REMARK  status: ('A' for Active; 'I' for Inactive)
REMARK    1  A    between atoms: N_2  and  CA_9
REMARK    2  A    between atoms: C_3  and  CA_20
REMARK    3  A    between atoms: CA_11  and  C_17
REMARK    4  A    between atoms: C_13  and  O_14
REMARK    5  A    between atoms: C_17  and  O_18
REMARK    6  A    between atoms: CA_20  and  C_21
REMARK    7  A    between atoms: CA_20  and  N_27
REMARK                            x       y       z     vdW  Elec       q    Type
REMARK                         _______ _______ _______ _____ _____    ______ ____
ROOT
ATOM      1  O   UNL     1      31.675 -15.392 -21.405  0.00  0.00    -0.277 OA
ATOM      2  N   UNL     1      33.290 -13.890 -22.120  0.00  0.00    -0.298 N 
ATOM      3  C   UNL     1      32.846 -15.016 -21.426  0.00  0.00    +0.206 C 
ATOM      4  H   UNL     1      34.247 -13.661 -22.083  0.00  0.00    +0.150 HD
ENDROOT
BRANCH   2   9
ATOM      5  S   UNL     1      31.922 -11.743 -20.394  0.00  0.00    -0.110 S 
ATOM      6  O   UNL     1      33.922 -11.873 -24.611  0.00  0.00    -0.273 OA
ATOM      7  N   UNL     1      32.620 -10.996 -22.855  0.00  0.00    -0.240 N 
ATOM      8  C   UNL     1      31.675 -11.872 -22.183  0.00  0.00    +0.155 C 
ATOM      9  CA  UNL     1      32.396 -13.035 -22.900  0.00  0.00    +0.178 C 
ATOM     10  C   UNL     1      33.138 -11.918 -23.692  0.00  0.00    +0.251 C 
ATOM     11  CA  UNL     1      32.753  -9.680 -22.563  0.00  0.00    +0.162 C 
ATOM     12  C   UNL     1      31.542  -9.954 -20.349  0.00  0.00    +0.124 C 
ATOM     13  C   UNL     1      32.240  -9.154 -21.431  0.00  0.00    +0.147 C 
BRANCH  13  14
ATOM     14  O   UNL     1      32.364  -7.802 -21.153  0.00  0.00    -0.473 OA
ATOM     15  C   UNL     1      32.232  -7.566 -19.767  0.00  0.00    +0.252 C 
ENDBRANCH  13  14
BRANCH  11  17
ATOM     16  OXT UNL     1      34.723  -8.915 -23.651  0.00  0.00    -0.244 OA
ATOM     17  C   UNL     1      33.521  -8.831 -23.482  0.00  0.00    +0.355 C 
BRANCH  17  18
ATOM     18  O   UNL     1      32.691  -7.965 -24.095  0.00  0.00    -0.476 OA
ATOM     19  H   UNL     1      32.921  -7.058 -24.153  0.00  0.00    +0.295 HD
ENDBRANCH  17  18
ENDBRANCH  11  17
ENDBRANCH   2   9
BRANCH   3  20
ATOM     20  CA  UNL     1      33.958 -15.748 -20.686  0.00  0.00    +0.036 C 
BRANCH  20  21
ATOM     21  C   UNL     1      34.324 -16.967 -21.464  0.00  0.00    -0.034 C 
ATOM     22  C   UNL     1      35.050 -16.730 -22.767  0.00  0.00    -0.006 C 
ATOM     23  C   UNL     1      34.025 -18.204 -21.030  0.00  0.00    -0.006 C 
ATOM     24  C   UNL     1      34.373 -19.457 -21.781  0.00  0.00    -0.000 C 
ATOM     25  C   UNL     1      35.398 -17.983 -23.516  0.00  0.00    -0.000 C 
ATOM     26  C   UNL     1      35.094 -19.211 -23.072  0.00  0.00    -0.000 C 
ENDBRANCH  20  21
BRANCH  20  27
ATOM     27  N   UNL     1      35.075 -14.816 -20.553  0.00  0.00    +0.390 N 
ATOM     28  H1  UNL     1      35.955 -15.327 -20.634  0.00  0.00    -0.088 HD
ATOM     29  H2  UNL     1      35.030 -14.359 -19.642  0.00  0.00    -0.088 HD
ATOM     30  H3  UNL     1      35.020 -14.113 -21.290  0.00  0.00    -0.088 HD
ENDBRANCH  20  27
ENDBRANCH   3  20
TORSDOF 7
ENDMDL
MODEL 6
REMARK VINA RESULT:      -8.4      4.814      9.902
REMARK  Name = 5284529
REMARK  7 active torsions:
REMARK  status: ('A' for Active; 'I' for Inactive)
REMARK    1  A    between atoms: N_2  and  CA_9
REMARK    2  A    between atoms: C_3  and  CA_20
REMARK    3  A    between atoms: CA_11  and  C_17
REMARK    4  A    between atoms: C_13  and  O_14
REMARK    5  A    between atoms: C_17  and  O_18
REMARK    6  A    between atoms: CA_20  and  C_21
REMARK    7  A    between atoms: CA_20  and  N_27
REMARK                            x       y       z     vdW  Elec       q    Type
REMARK                         _______ _______ _______ _____ _____    ______ ____
ROOT
ATOM      1  O   UNL     1      30.739 -10.299 -22.613  0.00  0.00    -0.277 OA
ATOM      2  N   UNL     1      32.542 -11.658 -23.139  0.00  0.00    -0.298 N 
ATOM      3  C   UNL     1      31.891 -10.430 -23.024  0.00  0.00    +0.206 C 
ATOM      4  H   UNL     1      33.466 -11.672 -23.478  0.00  0.00    +0.150 HD
ENDROOT
BRANCH   2   9
ATOM      5  S   UNL     1      33.422 -13.966 -24.971  0.00  0.00    -0.110 S 
ATOM      6  O   UNL     1      32.726 -13.411 -20.388  0.00  0.00    -0.273 OA
ATOM      7  N   UNL     1      33.066 -14.582 -22.403  0.00  0.00    -0.240 N 
ATOM      8  C   UNL     1      32.295 -14.195 -23.573  0.00  0.00    +0.155 C 
ATOM      9  CA  UNL     1      31.912 -12.927 -22.777  0.00  0.00    +0.178 C 
ATOM     10  C   UNL     1      32.590 -13.636 -21.568  0.00  0.00    +0.251 C 
ATOM     11  CA  UNL     1      33.933 -15.623 -22.393  0.00  0.00    +0.162 C 
ATOM     12  C   UNL     1      34.018 -15.696 -24.929  0.00  0.00    +0.124 C 
ATOM     13  C   UNL     1      34.370 -16.187 -23.538  0.00  0.00    +0.147 C 
BRANCH  13  14
ATOM     14  O   UNL     1      35.240 -17.265 -23.515  0.00  0.00    -0.473 OA
ATOM     15  C   UNL     1      34.776 -18.296 -24.362  0.00  0.00    +0.252 C 
ENDBRANCH  13  14
BRANCH  11  17
ATOM     16  OXT UNL     1      35.061 -15.417 -20.312  0.00  0.00    -0.244 OA
ATOM     17  C   UNL     1      34.440 -16.102 -21.101  0.00  0.00    +0.355 C 
BRANCH  17  18
ATOM     18  O   UNL     1      34.107 -17.398 -20.939  0.00  0.00    -0.476 OA
ATOM     19  H   UNL     1      34.708 -18.070 -21.191  0.00  0.00    +0.295 HD
ENDBRANCH  17  18
ENDBRANCH  11  17
ENDBRANCH   2   9
BRANCH   3  20
ATOM     20  CA  UNL     1      32.746  -9.248 -23.462  0.00  0.00    +0.036 C 
BRANCH  20  21
ATOM     21  C   UNL     1      32.459  -8.095 -22.560  0.00  0.00    -0.034 C 
ATOM     22  C   UNL     1      32.781  -8.298 -21.098  0.00  0.00    -0.006 C 
ATOM     23  C   UNL     1      31.944  -6.942 -23.022  0.00  0.00    -0.006 C 
ATOM     24  C   UNL     1      31.639  -5.757 -22.151  0.00  0.00    -0.000 C 
ATOM     25  C   UNL     1      32.476  -7.113 -20.229  0.00  0.00    -0.000 C 
ATOM     26  C   UNL     1      31.963  -5.970 -20.702  0.00  0.00    -0.000 C 
ENDBRANCH  20  21
BRANCH  20  27
ATOM     27  N   UNL     1      34.141  -9.675 -23.392  0.00  0.00    +0.390 N 
ATOM     28  H1  UNL     1      34.489  -9.854 -24.335  0.00  0.00    -0.088 HD
ATOM     29  H2  UNL     1      34.209 -10.529 -22.838  0.00  0.00    -0.088 HD
ATOM     30  H3  UNL     1      34.699  -8.941 -22.957  0.00  0.00    -0.088 HD
ENDBRANCH  20  27
ENDBRANCH   3  20
TORSDOF 7
ENDMDL
MODEL 7
REMARK VINA RESULT:      -8.4      4.684      9.430
REMARK  Name = 5284529
REMARK  7 active torsions:
REMARK  status: ('A' for Active; 'I' for Inactive)
REMARK    1  A    between atoms: N_2  and  CA_9
REMARK    2  A    between atoms: C_3  and  CA_20
REMARK    3  A    between atoms: CA_11  and  C_17
REMARK    4  A    between atoms: C_13  and  O_14
REMARK    5  A    between atoms: C_17  and  O_18
REMARK    6  A    between atoms: CA_20  and  C_21
REMARK    7  A    between atoms: CA_20  and  N_27
REMARK                            x       y       z     vdW  Elec       q    Type
REMARK                         _______ _______ _______ _____ _____    ______ ____
ROOT
ATOM      1  O   UNL     1      33.926 -22.860 -20.211  0.00  0.00    -0.277 OA
ATOM      2  N   UNL     1      33.056 -22.259 -18.148  0.00  0.00    -0.298 N 
ATOM      3  C   UNL     1      33.482 -22.001 -19.450  0.00  0.00    +0.206 C 
ATOM      4  H   UNL     1      32.714 -21.510 -17.607  0.00  0.00    +0.150 HD
ENDROOT
BRANCH   2   9
ATOM      5  S   UNL     1      35.514 -22.661 -16.344  0.00  0.00    -0.110 S 
ATOM      6  O   UNL     1      30.976 -23.728 -16.102  0.00  0.00    -0.273 OA
ATOM      7  N   UNL     1      33.256 -23.806 -15.515  0.00  0.00    -0.240 N 
ATOM      8  C   UNL     1      34.244 -23.930 -16.573  0.00  0.00    +0.155 C 
ATOM      9  CA  UNL     1      33.095 -23.592 -17.549  0.00  0.00    +0.178 C 
ATOM     10  C   UNL     1      32.167 -23.745 -16.309  0.00  0.00    +0.251 C 
ATOM     11  CA  UNL     1      33.573 -23.790 -14.198  0.00  0.00    +0.162 C 
ATOM     12  C   UNL     1      36.010 -23.283 -14.696  0.00  0.00    +0.124 C 
ATOM     13  C   UNL     1      34.839 -23.584 -13.780  0.00  0.00    +0.147 C 
BRANCH  13  14
ATOM     14  O   UNL     1      35.155 -23.591 -12.431  0.00  0.00    -0.473 OA
ATOM     15  C   UNL     1      36.518 -23.277 -12.239  0.00  0.00    +0.252 C 
ENDBRANCH  13  14
BRANCH  11  17
ATOM     16  OXT UNL     1      31.846 -24.964 -13.063  0.00  0.00    -0.244 OA
ATOM     17  C   UNL     1      32.494 -23.947 -13.215  0.00  0.00    +0.355 C 
BRANCH  17  18
ATOM     18  O   UNL     1      32.346 -22.799 -12.522  0.00  0.00    -0.476 OA
ATOM     19  H   UNL     1      31.489 -22.500 -12.290  0.00  0.00    +0.295 HD
ENDBRANCH  17  18
ENDBRANCH  11  17
ENDBRANCH   2   9
BRANCH   3  20
ATOM     20  CA  UNL     1      33.348 -20.538 -19.853  0.00  0.00    +0.036 C 
BRANCH  20  21
ATOM     21  C   UNL     1      34.670 -20.059 -20.351  0.00  0.00    -0.034 C 
ATOM     22  C   UNL     1      34.630 -18.995 -21.423  0.00  0.00    -0.006 C 
ATOM     23  C   UNL     1      35.829 -20.546 -19.874  0.00  0.00    -0.006 C 
ATOM     24  C   UNL     1      37.180 -20.093 -20.347  0.00  0.00    -0.000 C 
ATOM     25  C   UNL     1      35.981 -18.544 -21.894  0.00  0.00    -0.000 C 
ATOM     26  C   UNL     1      37.129 -19.037 -21.410  0.00  0.00    -0.000 C 
ENDBRANCH  20  21
BRANCH  20  27
ATOM     27  N   UNL     1      32.307 -20.465 -20.876  0.00  0.00    +0.390 N 
ATOM     28  H1  UNL     1      32.660 -20.861 -21.748  0.00  0.00    -0.088 HD
ATOM     29  H2  UNL     1      32.047 -19.490 -21.026  0.00  0.00    -0.088 HD
ATOM     30  H3  UNL     1      31.491 -20.992 -20.567  0.00  0.00    -0.088 HD
ENDBRANCH  20  27
ENDBRANCH   3  20
TORSDOF 7
ENDMDL
MODEL 8
REMARK VINA RESULT:      -8.3      2.412      8.102
REMARK  Name = 5284529
REMARK  7 active torsions:
REMARK  status: ('A' for Active; 'I' for Inactive)
REMARK    1  A    between atoms: N_2  and  CA_9
REMARK    2  A    between atoms: C_3  and  CA_20
REMARK    3  A    between atoms: CA_11  and  C_17
REMARK    4  A    between atoms: C_13  and  O_14
REMARK    5  A    between atoms: C_17  and  O_18
REMARK    6  A    between atoms: CA_20  and  C_21
REMARK    7  A    between atoms: CA_20  and  N_27
REMARK                            x       y       z     vdW  Elec       q    Type
REMARK                         _______ _______ _______ _____ _____    ______ ____
ROOT
ATOM      1  O   UNL     1      35.719 -17.387 -23.286  0.00  0.00    -0.277 OA
ATOM      2  N   UNL     1      34.231 -18.057 -21.639  0.00  0.00    -0.298 N 
ATOM      3  C   UNL     1      34.969 -17.111 -22.351  0.00  0.00    +0.206 C 
ATOM      4  H   UNL     1      33.654 -17.749 -20.904  0.00  0.00    +0.150 HD
ENDROOT
BRANCH   2   9
ATOM      5  S   UNL     1      36.593 -19.465 -20.261  0.00  0.00    -0.110 S 
ATOM      6  O   UNL     1      32.084 -20.432 -20.988  0.00  0.00    -0.273 OA
ATOM      7  N   UNL     1      34.327 -20.859 -20.412  0.00  0.00    -0.240 N 
ATOM      8  C   UNL     1      35.378 -20.346 -21.275  0.00  0.00    +0.155 C 
ATOM      9  CA  UNL     1      34.278 -19.488 -21.938  0.00  0.00    +0.178 C 
ATOM     10  C   UNL     1      33.284 -20.334 -21.088  0.00  0.00    +0.251 C 
ATOM     11  CA  UNL     1      34.567 -21.624 -19.320  0.00  0.00    +0.162 C 
ATOM     12  C   UNL     1      37.012 -20.942 -19.265  0.00  0.00    +0.124 C 
ATOM     13  C   UNL     1      35.800 -21.715 -18.780  0.00  0.00    +0.147 C 
BRANCH  13  14
ATOM     14  O   UNL     1      36.038 -22.516 -17.676  0.00  0.00    -0.473 OA
ATOM     15  C   UNL     1      36.924 -21.878 -16.780  0.00  0.00    +0.252 C 
ENDBRANCH  13  14
BRANCH  11  17
ATOM     16  OXT UNL     1      32.436 -21.769 -18.277  0.00  0.00    -0.244 OA
ATOM     17  C   UNL     1      33.438 -22.320 -18.689  0.00  0.00    +0.355 C 
BRANCH  17  18
ATOM     18  O   UNL     1      33.693 -23.643 -18.647  0.00  0.00    -0.476 OA
ATOM     19  H   UNL     1      33.346 -24.165 -17.951  0.00  0.00    +0.295 HD
ENDBRANCH  17  18
ENDBRANCH  11  17
ENDBRANCH   2   9
BRANCH   3  20
ATOM     20  CA  UNL     1      34.759 -15.686 -21.858  0.00  0.00    +0.036 C 
BRANCH  20  21
ATOM     21  C   UNL     1      34.220 -14.869 -22.984  0.00  0.00    -0.034 C 
ATOM     22  C   UNL     1      33.801 -15.633 -24.218  0.00  0.00    -0.006 C 
ATOM     23  C   UNL     1      34.112 -13.530 -22.904  0.00  0.00    -0.006 C 
ATOM     24  C   UNL     1      33.576 -12.670 -24.012  0.00  0.00    -0.000 C 
ATOM     25  C   UNL     1      33.265 -14.772 -25.324  0.00  0.00    -0.000 C 
ATOM     26  C   UNL     1      33.163 -13.439 -25.232  0.00  0.00    -0.000 C 
ENDBRANCH  20  21
BRANCH  20  27
ATOM     27  N   UNL     1      33.839 -15.750 -20.726  0.00  0.00    +0.390 N 
ATOM     28  H1  UNL     1      34.053 -16.571 -20.160  0.00  0.00    -0.088 HD
ATOM     29  H2  UNL     1      32.880 -15.814 -21.070  0.00  0.00    -0.088 HD
ATOM     30  H3  UNL     1      33.941 -14.909 -20.158  0.00  0.00    -0.088 HD
ENDBRANCH  20  27
ENDBRANCH   3  20
TORSDOF 7
ENDMDL
MODEL 9
REMARK VINA RESULT:      -8.1      5.247      8.257
REMARK  Name = 5284529
REMARK  7 active torsions:
REMARK  status: ('A' for Active; 'I' for Inactive)
REMARK    1  A    between atoms: N_2  and  CA_9
REMARK    2  A    between atoms: C_3  and  CA_20
REMARK    3  A    between atoms: CA_11  and  C_17
REMARK    4  A    between atoms: C_13  and  O_14
REMARK    5  A    between atoms: C_17  and  O_18
REMARK    6  A    between atoms: CA_20  and  C_21
REMARK    7  A    between atoms: CA_20  and  N_27
REMARK                            x       y       z     vdW  Elec       q    Type
REMARK                         _______ _______ _______ _____ _____    ______ ____
ROOT
ATOM      1  O   UNL     1      32.076 -25.526 -13.929  0.00  0.00    -0.277 OA
ATOM      2  N   UNL     1      32.854 -23.602 -14.963  0.00  0.00    -0.298 N 
ATOM      3  C   UNL     1      31.943 -24.334 -14.201  0.00  0.00    +0.206 C 
ATOM      4  H   UNL     1      32.670 -22.650 -15.133  0.00  0.00    +0.150 HD
ENDROOT
BRANCH   2   9
ATOM      5  S   UNL     1      33.212 -22.942 -17.945  0.00  0.00    -0.110 S 
ATOM      6  O   UNL     1      35.991 -23.105 -14.197  0.00  0.00    -0.273 OA
ATOM      7  N   UNL     1      35.440 -23.001 -16.485  0.00  0.00    -0.240 N 
ATOM      8  C   UNL     1      34.421 -23.900 -16.998  0.00  0.00    +0.155 C 
ATOM      9  CA  UNL     1      34.073 -24.188 -15.521  0.00  0.00    +0.178 C 
ATOM     10  C   UNL     1      35.360 -23.376 -15.192  0.00  0.00    +0.251 C 
ATOM     11  CA  UNL     1      36.136 -22.140 -17.266  0.00  0.00    +0.162 C 
ATOM     12  C   UNL     1      34.451 -22.347 -19.154  0.00  0.00    +0.124 C 
ATOM     13  C   UNL     1      35.730 -21.837 -18.517  0.00  0.00    +0.147 C 
BRANCH  13  14
ATOM     14  O   UNL     1      36.460 -20.972 -19.314  0.00  0.00    -0.473 OA
ATOM     15  C   UNL     1      35.656 -20.456 -20.355  0.00  0.00    +0.252 C 
ENDBRANCH  13  14
BRANCH  11  17
ATOM     16  OXT UNL     1      38.125 -22.034 -15.969  0.00  0.00    -0.244 OA
ATOM     17  C   UNL     1      37.326 -21.488 -16.705  0.00  0.00    +0.355 C 
BRANCH  17  18
ATOM     18  O   UNL     1      37.384 -20.212 -17.135  0.00  0.00    -0.476 OA
ATOM     19  H   UNL     1      37.076 -19.992 -17.992  0.00  0.00    +0.295 HD
ENDBRANCH  17  18
ENDBRANCH  11  17
ENDBRANCH   2   9
BRANCH   3  20
ATOM     20  CA  UNL     1      30.751 -23.511 -13.730  0.00  0.00    +0.036 C 
BRANCH  20  21
ATOM     21  C   UNL     1      29.767 -23.419 -14.848  0.00  0.00    -0.034 C 
ATOM     22  C   UNL     1      29.531 -24.688 -15.632  0.00  0.00    -0.006 C 
ATOM     23  C   UNL     1      29.127 -22.272 -15.139  0.00  0.00    -0.006 C 
ATOM     24  C   UNL     1      28.131 -22.134 -16.255  0.00  0.00    -0.000 C 
ATOM     25  C   UNL     1      28.534 -24.548 -16.746  0.00  0.00    -0.000 C 
ATOM     26  C   UNL     1      27.904 -23.400 -17.026  0.00  0.00    -0.000 C 
ENDBRANCH  20  21
BRANCH  20  27
ATOM     27  N   UNL     1      30.198 -24.183 -12.557  0.00  0.00    +0.390 N 
ATOM     28  H1  UNL     1      29.501 -24.866 -12.853  0.00  0.00    -0.088 HD
ATOM     29  H2  UNL     1      29.761 -23.494 -11.944  0.00  0.00    -0.088 HD
ATOM     30  H3  UNL     1      30.948 -24.658 -12.054  0.00  0.00    -0.088 HD
ENDBRANCH  20  27
ENDBRANCH   3  20
TORSDOF 7
ENDMDL
