MODEL 1
REMARK VINA RESULT:     -11.0      0.000      0.000
REMARK  Name = 123631
REMARK  7 active torsions:
REMARK  status: ('A' for Active; 'I' for Inactive)
REMARK    1  A    between atoms: N_1  and  C_15
REMARK    2  A    between atoms: C_4  and  O_23
REMARK    3  A    between atoms: C_7  and  O_21
REMARK    4  A    between atoms: O_23  and  C_24
REMARK    5  A    between atoms: C_24  and  C_25
REMARK    6  A    between atoms: C_25  and  C_26
REMARK    7  A    between atoms: C_26  and  N_28
REMARK                            x       y       z     vdW  Elec       q    Type
REMARK                         _______ _______ _______ _____ _____    ______ ____
ROOT
ATOM      1  N   UNL     1      34.644 -17.789 -21.768  0.00  0.00    -0.298 N 
ATOM      2  N   UNL     1      34.267 -16.874 -25.787  0.00  0.00    -0.248 NA
ATOM      3  N   UNL     1      34.763 -18.442 -24.026  0.00  0.00    -0.230 NA
ATOM      4  C   UNL     1      33.506 -13.893 -22.987  0.00  0.00    +0.169 C 
ATOM      5  C   UNL     1      34.135 -16.168 -23.499  0.00  0.00    +0.048 C 
ATOM      6  C   UNL     1      33.876 -15.158 -22.555  0.00  0.00    +0.044 C 
ATOM      7  C   UNL     1      33.391 -13.625 -24.341  0.00  0.00    +0.156 C 
ATOM      8  C   UNL     1      34.023 -15.915 -24.876  0.00  0.00    +0.066 C 
ATOM      9  C   UNL     1      33.649 -14.634 -25.273  0.00  0.00    +0.112 C 
ATOM     10  C   UNL     1      34.511 -17.459 -23.140  0.00  0.00    +0.131 C 
ATOM     11  C   UNL     1      34.625 -18.084 -25.312  0.00  0.00    +0.252 C 
ATOM     12  H   UNL     1      34.913 -17.030 -21.202  0.00  0.00    +0.154 HD
ENDROOT
BRANCH   1  15
ATOM     13 CL   UNL     1      36.766 -21.738 -19.277  0.00  0.00    -0.080 Cl
ATOM     14  F   UNL     1      33.922 -22.521 -18.979  0.00  0.00    -0.203 F 
ATOM     15  C   UNL     1      34.466 -18.988 -21.061  0.00  0.00    +0.050 C 
ATOM     16  C   UNL     1      35.572 -19.691 -20.574  0.00  0.00    +0.028 C 
ATOM     17  C   UNL     1      33.179 -19.489 -20.839  0.00  0.00    +0.017 C 
ATOM     18  C   UNL     1      35.395 -20.882 -19.872  0.00  0.00    +0.086 C 
ATOM     19  C   UNL     1      33.001 -20.682 -20.135  0.00  0.00    +0.032 C 
ATOM     20  C   UNL     1      34.109 -21.378 -19.652  0.00  0.00    +0.151 C 
ENDBRANCH   1  15
BRANCH   7  21
ATOM     21  O   UNL     1      33.028 -12.387 -24.780  0.00  0.00    -0.472 OA
ATOM     22  C   UNL     1      34.078 -11.497 -25.150  0.00  0.00    +0.252 C 
ENDBRANCH   7  21
BRANCH   4  23
ATOM     23  O   UNL     1      33.255 -12.914 -22.061  0.00  0.00    -0.473 OA
BRANCH  23  24
ATOM     24  C   UNL     1      32.288 -13.210 -21.062  0.00  0.00    +0.203 C 
BRANCH  24  25
ATOM     25  C   UNL     1      31.508 -11.942 -20.742  0.00  0.00    +0.025 C 
BRANCH  25  26
ATOM     26  C   UNL     1      31.223 -11.128 -22.000  0.00  0.00    -0.073 C 
BRANCH  26  28
ATOM     27  O   UNL     1      32.278  -7.076 -21.700  0.00  0.00    -0.358 OA
ATOM     28  N   UNL     1      32.007  -9.894 -21.995  0.00  0.00    +0.390 N 
ATOM     29  C   UNL     1      31.523  -8.963 -23.024  0.00  0.00    -0.045 C 
ATOM     30  C   UNL     1      31.962  -9.253 -20.674  0.00  0.00    -0.045 C 
ATOM     31  C   UNL     1      32.348  -7.680 -22.992  0.00  0.00    +0.119 C 
ATOM     32  C   UNL     1      32.777  -7.962 -20.697  0.00  0.00    +0.119 C 
ATOM     33  H   UNL     1      32.975 -10.139 -22.206  0.00  0.00    -0.079 HD
ENDBRANCH  26  28
ENDBRANCH  25  26
ENDBRANCH  24  25
ENDBRANCH  23  24
ENDBRANCH   4  23
TORSDOF 7
ENDMDL
MODEL 2
REMARK VINA RESULT:     -10.7      4.958      9.613
REMARK  Name = 123631
REMARK  7 active torsions:
REMARK  status: ('A' for Active; 'I' for Inactive)
REMARK    1  A    between atoms: N_1  and  C_15
REMARK    2  A    between atoms: C_4  and  O_23
REMARK    3  A    between atoms: C_7  and  O_21
REMARK    4  A    between atoms: O_23  and  C_24
REMARK    5  A    between atoms: C_24  and  C_25
REMARK    6  A    between atoms: C_25  and  C_26
REMARK    7  A    between atoms: C_26  and  N_28
REMARK                            x       y       z     vdW  Elec       q    Type
REMARK                         _______ _______ _______ _____ _____    ______ ____
ROOT
ATOM      1  N   UNL     1      33.488 -12.219 -23.778  0.00  0.00    -0.298 N 
ATOM      2  N   UNL     1      33.470 -14.916 -26.917  0.00  0.00    -0.248 NA
ATOM      3  N   UNL     1      33.033 -12.719 -26.032  0.00  0.00    -0.230 NA
ATOM      4  C   UNL     1      34.861 -16.188 -23.209  0.00  0.00    +0.169 C 
ATOM      5  C   UNL     1      33.947 -14.450 -24.614  0.00  0.00    +0.048 C 
ATOM      6  C   UNL     1      34.418 -14.883 -23.362  0.00  0.00    +0.044 C 
ATOM      7  C   UNL     1      34.839 -17.062 -24.283  0.00  0.00    +0.156 C 
ATOM      8  C   UNL     1      33.918 -15.320 -25.716  0.00  0.00    +0.066 C 
ATOM      9  C   UNL     1      34.370 -16.624 -25.525  0.00  0.00    +0.112 C 
ATOM     10  C   UNL     1      33.488 -13.156 -24.843  0.00  0.00    +0.131 C 
ATOM     11  C   UNL     1      33.051 -13.638 -27.010  0.00  0.00    +0.252 C 
ATOM     12  H   UNL     1      33.367 -12.628 -22.891  0.00  0.00    +0.154 HD
ENDROOT
BRANCH   1  15
ATOM     13 CL   UNL     1      31.534  -7.675 -22.425  0.00  0.00    -0.080 Cl
ATOM     14  F   UNL     1      34.053  -6.709 -23.655  0.00  0.00    -0.203 F 
ATOM     15  C   UNL     1      33.627 -10.823 -23.744  0.00  0.00    +0.050 C 
ATOM     16  C   UNL     1      32.630 -10.029 -23.169  0.00  0.00    +0.028 C 
ATOM     17  C   UNL     1      34.764 -10.217 -24.287  0.00  0.00    +0.017 C 
ATOM     18  C   UNL     1      32.768  -8.642 -23.137  0.00  0.00    +0.086 C 
ATOM     19  C   UNL     1      34.903  -8.828 -24.254  0.00  0.00    +0.032 C 
ATOM     20  C   UNL     1      33.905  -8.041 -23.679  0.00  0.00    +0.151 C 
ENDBRANCH   1  15
BRANCH   7  21
ATOM     21  O   UNL     1      35.270 -18.347 -24.148  0.00  0.00    -0.472 OA
ATOM     22  C   UNL     1      34.503 -19.361 -24.792  0.00  0.00    +0.252 C 
ENDBRANCH   7  21
BRANCH   4  23
ATOM     23  O   UNL     1      35.319 -16.603 -21.986  0.00  0.00    -0.473 OA
BRANCH  23  24
ATOM     24  C   UNL     1      34.346 -16.796 -20.968  0.00  0.00    +0.203 C 
BRANCH  24  25
ATOM     25  C   UNL     1      33.837 -18.229 -21.040  0.00  0.00    +0.025 C 
BRANCH  25  26
ATOM     26  C   UNL     1      34.985 -19.233 -21.030  0.00  0.00    -0.073 C 
BRANCH  26  28
ATOM     27  O   UNL     1      34.719 -22.798 -18.829  0.00  0.00    -0.358 OA
ATOM     28  N   UNL     1      34.830 -20.170 -19.919  0.00  0.00    +0.390 N 
ATOM     29  C   UNL     1      33.665 -21.040 -20.128  0.00  0.00    -0.045 C 
ATOM     30  C   UNL     1      36.042 -20.983 -19.749  0.00  0.00    -0.045 C 
ATOM     31  C   UNL     1      33.531 -22.016 -18.963  0.00  0.00    +0.119 C 
ATOM     32  C   UNL     1      35.852 -21.961 -18.593  0.00  0.00    +0.119 C 
ATOM     33  H   UNL     1      34.682 -19.625 -19.069  0.00  0.00    -0.079 HD
ENDBRANCH  26  28
ENDBRANCH  25  26
ENDBRANCH  24  25
ENDBRANCH  23  24
ENDBRANCH   4  23
TORSDOF 7
ENDMDL
MODEL 3
REMARK VINA RESULT:     -10.5      8.124     12.282
REMARK  Name = 123631
REMARK  7 active torsions:
REMARK  status: ('A' for Active; 'I' for Inactive)
REMARK    1  A    between atoms: N_1  and  C_15
REMARK    2  A    between atoms: C_4  and  O_23
REMARK    3  A    between atoms: C_7  and  O_21
REMARK    4  A    between atoms: O_23  and  C_24
REMARK    5  A    between atoms: C_24  and  C_25
REMARK    6  A    between atoms: C_25  and  C_26
REMARK    7  A    between atoms: C_26  and  N_28
REMARK                            x       y       z     vdW  Elec       q    Type
REMARK                         _______ _______ _______ _____ _____    ______ ____
ROOT
ATOM      1  N   UNL     1      34.646 -22.415 -17.836  0.00  0.00    -0.298 N 
ATOM      2  N   UNL     1      37.736 -22.910 -15.126  0.00  0.00    -0.248 NA
ATOM      3  N   UNL     1      36.943 -22.332 -17.326  0.00  0.00    -0.230 NA
ATOM      4  C   UNL     1      33.846 -23.686 -13.873  0.00  0.00    +0.169 C 
ATOM      5  C   UNL     1      35.388 -23.009 -15.603  0.00  0.00    +0.048 C 
ATOM      6  C   UNL     1      34.074 -23.271 -15.177  0.00  0.00    +0.044 C 
ATOM      7  C   UNL     1      34.906 -23.841 -12.995  0.00  0.00    +0.156 C 
ATOM      8  C   UNL     1      36.476 -23.159 -14.728  0.00  0.00    +0.066 C 
ATOM      9  C   UNL     1      36.209 -23.577 -13.427  0.00  0.00    +0.112 C 
ATOM     10  C   UNL     1      35.693 -22.590 -16.895  0.00  0.00    +0.131 C 
ATOM     11  C   UNL     1      37.901 -22.510 -16.403  0.00  0.00    +0.252 C 
ATOM     12  H   UNL     1      33.877 -23.010 -17.687  0.00  0.00    +0.154 HD
ENDROOT
BRANCH   1  15
ATOM     13 CL   UNL     1      36.835 -19.269 -21.243  0.00  0.00    -0.080 Cl
ATOM     14  F   UNL     1      34.032 -19.032 -22.180  0.00  0.00    -0.203 F 
ATOM     15  C   UNL     1      34.496 -21.557 -18.936  0.00  0.00    +0.050 C 
ATOM     16  C   UNL     1      35.608 -20.911 -19.484  0.00  0.00    +0.028 C 
ATOM     17  C   UNL     1      33.231 -21.343 -19.492  0.00  0.00    +0.017 C 
ATOM     18  C   UNL     1      35.457 -20.058 -20.577  0.00  0.00    +0.086 C 
ATOM     19  C   UNL     1      33.080 -20.490 -20.587  0.00  0.00    +0.032 C 
ATOM     20  C   UNL     1      34.193 -19.847 -21.129  0.00  0.00    +0.151 C 
ENDBRANCH   1  15
BRANCH   7  21
ATOM     21  O   UNL     1      34.697 -24.248 -11.712  0.00  0.00    -0.472 OA
ATOM     22  C   UNL     1      35.826 -24.259 -10.842  0.00  0.00    +0.252 C 
ENDBRANCH   7  21
BRANCH   4  23
ATOM     23  O   UNL     1      32.563 -23.940 -13.464  0.00  0.00    -0.473 OA
BRANCH  23  24
ATOM     24  C   UNL     1      31.975 -25.155 -13.911  0.00  0.00    +0.203 C 
BRANCH  24  25
ATOM     25  C   UNL     1      30.465 -25.060 -13.748  0.00  0.00    +0.025 C 
BRANCH  25  26
ATOM     26  C   UNL     1      29.737 -25.449 -15.031  0.00  0.00    -0.073 C 
BRANCH  26  28
ATOM     27  O   UNL     1      28.256 -21.937 -16.789  0.00  0.00    -0.358 OA
ATOM     28  N   UNL     1      28.831 -24.379 -15.445  0.00  0.00    +0.390 N 
ATOM     29  C   UNL     1      29.272 -23.084 -14.908  0.00  0.00    -0.045 C 
ATOM     30  C   UNL     1      28.738 -24.313 -16.909  0.00  0.00    -0.045 C 
ATOM     31  C   UNL     1      28.318 -21.984 -15.363  0.00  0.00    +0.119 C 
ATOM     32  C   UNL     1      27.797 -23.183 -17.318  0.00  0.00    +0.119 C 
ATOM     33  H   UNL     1      27.906 -24.591 -15.069  0.00  0.00    -0.079 HD
ENDBRANCH  26  28
ENDBRANCH  25  26
ENDBRANCH  24  25
ENDBRANCH  23  24
ENDBRANCH   4  23
TORSDOF 7
ENDMDL
MODEL 4
REMARK VINA RESULT:     -10.4      4.796      9.437
REMARK  Name = 123631
REMARK  7 active torsions:
REMARK  status: ('A' for Active; 'I' for Inactive)
REMARK    1  A    between atoms: N_1  and  C_15
REMARK    2  A    between atoms: C_4  and  O_23
REMARK    3  A    between atoms: C_7  and  O_21
REMARK    4  A    between atoms: O_23  and  C_24
REMARK    5  A    between atoms: C_24  and  C_25
REMARK    6  A    between atoms: C_25  and  C_26
REMARK    7  A    between atoms: C_26  and  N_28
REMARK                            x       y       z     vdW  Elec       q    Type
REMARK                         _______ _______ _______ _____ _____    ______ ____
ROOT
ATOM      1  N   UNL     1      32.825 -13.131 -23.213  0.00  0.00    -0.298 N 
ATOM      2  N   UNL     1      33.421 -15.367 -26.644  0.00  0.00    -0.248 NA
ATOM      3  N   UNL     1      32.592 -13.393 -25.540  0.00  0.00    -0.230 NA
ATOM      4  C   UNL     1      34.766 -16.893 -23.016  0.00  0.00    +0.169 C 
ATOM      5  C   UNL     1      33.679 -15.140 -24.271  0.00  0.00    +0.048 C 
ATOM      6  C   UNL     1      34.135 -15.659 -23.046  0.00  0.00    +0.044 C 
ATOM      7  C   UNL     1      34.948 -17.612 -24.186  0.00  0.00    +0.156 C 
ATOM      8  C   UNL     1      33.853 -15.854 -25.468  0.00  0.00    +0.066 C 
ATOM      9  C   UNL     1      34.491 -17.090 -25.400  0.00  0.00    +0.112 C 
ATOM     10  C   UNL     1      33.037 -13.910 -24.379  0.00  0.00    +0.131 C 
ATOM     11  C   UNL     1      32.814 -14.163 -26.616  0.00  0.00    +0.252 C 
ATOM     12  H   UNL     1      32.716 -13.666 -22.394  0.00  0.00    +0.154 HD
ENDROOT
BRANCH   1  15
ATOM     13 CL   UNL     1      34.661  -8.449 -24.215  0.00  0.00    -0.080 Cl
ATOM     14  F   UNL     1      32.480  -7.667 -22.365  0.00  0.00    -0.203 F 
ATOM     15  C   UNL     1      32.741 -11.746 -23.001  0.00  0.00    +0.050 C 
ATOM     16  C   UNL     1      33.636 -10.880 -23.636  0.00  0.00    +0.028 C 
ATOM     17  C   UNL     1      31.762 -11.223 -22.151  0.00  0.00    +0.017 C 
ATOM     18  C   UNL     1      33.553  -9.505 -23.425  0.00  0.00    +0.086 C 
ATOM     19  C   UNL     1      31.678  -9.845 -21.941  0.00  0.00    +0.032 C 
ATOM     20  C   UNL     1      32.574  -8.986 -22.577  0.00  0.00    +0.151 C 
ENDBRANCH   1  15
BRANCH   7  21
ATOM     21  O   UNL     1      35.566 -18.826 -24.171  0.00  0.00    -0.472 OA
ATOM     22  C   UNL     1      34.872 -19.915 -24.775  0.00  0.00    +0.252 C 
ENDBRANCH   7  21
BRANCH   4  23
ATOM     23  O   UNL     1      35.209 -17.392 -21.819  0.00  0.00    -0.473 OA
BRANCH  23  24
ATOM     24  C   UNL     1      34.216 -17.769 -20.875  0.00  0.00    +0.203 C 
BRANCH  24  25
ATOM     25  C   UNL     1      33.799 -19.207 -21.148  0.00  0.00    +0.025 C 
BRANCH  25  26
ATOM     26  C   UNL     1      34.983 -20.163 -21.045  0.00  0.00    -0.073 C 
BRANCH  26  28
ATOM     27  O   UNL     1      35.686 -22.763 -17.826  0.00  0.00    -0.358 OA
ATOM     28  N   UNL     1      35.090 -20.694 -19.687  0.00  0.00    +0.390 N 
ATOM     29  C   UNL     1      34.195 -21.846 -19.505  0.00  0.00    -0.045 C 
ATOM     30  C   UNL     1      36.475 -21.080 -19.386  0.00  0.00    -0.045 C 
ATOM     31  C   UNL     1      34.333 -22.389 -18.086  0.00  0.00    +0.119 C 
ATOM     32  C   UNL     1      36.560 -21.642 -17.970  0.00  0.00    +0.119 C 
ATOM     33  H   UNL     1      34.808 -19.957 -19.041  0.00  0.00    -0.079 HD
ENDBRANCH  26  28
ENDBRANCH  25  26
ENDBRANCH  24  25
ENDBRANCH  23  24
ENDBRANCH   4  23
TORSDOF 7
ENDMDL
MODEL 5
REMARK VINA RESULT:      -9.6      5.241      8.883
REMARK  Name = 123631
REMARK  7 active torsions:
REMARK  status: ('A' for Active; 'I' for Inactive)
REMARK    1  A    between atoms: N_1  and  C_15
REMARK    2  A    between atoms: C_4  and  O_23
REMARK    3  A    between atoms: C_7  and  O_21
REMARK    4  A    between atoms: O_23  and  C_24
REMARK    5  A    between atoms: C_24  and  C_25
REMARK    6  A    between atoms: C_25  and  C_26
REMARK    7  A    between atoms: C_26  and  N_28
REMARK                            x       y       z     vdW  Elec       q    Type
REMARK                         _______ _______ _______ _____ _____    ______ ____
ROOT
ATOM      1  N   UNL     1      36.007 -23.549 -16.255  0.00  0.00    -0.298 N 
ATOM      2  N   UNL     1      32.075 -22.741 -17.263  0.00  0.00    -0.248 NA
ATOM      3  N   UNL     1      33.706 -23.745 -15.802  0.00  0.00    -0.230 NA
ATOM      4  C   UNL     1      35.099 -21.289 -19.723  0.00  0.00    +0.169 C 
ATOM      5  C   UNL     1      34.409 -22.518 -17.762  0.00  0.00    +0.048 C 
ATOM      6  C   UNL     1      35.429 -22.025 -18.595  0.00  0.00    +0.044 C 
ATOM      7  C   UNL     1      33.771 -21.039 -20.027  0.00  0.00    +0.156 C 
ATOM      8  C   UNL     1      33.057 -22.275 -18.054  0.00  0.00    +0.066 C 
ATOM      9  C   UNL     1      32.762 -21.532 -19.194  0.00  0.00    +0.112 C 
ATOM     10  C   UNL     1      34.665 -23.264 -16.615  0.00  0.00    +0.131 C 
ATOM     11  C   UNL     1      32.452 -23.451 -16.181  0.00  0.00    +0.252 C 
ATOM     12  H   UNL     1      36.617 -23.616 -17.024  0.00  0.00    +0.154 HD
ENDROOT
BRANCH   1  15
ATOM     13 CL   UNL     1      39.805 -25.743 -13.598  0.00  0.00    -0.080 Cl
ATOM     14  F   UNL     1      38.461 -24.350 -11.353  0.00  0.00    -0.203 F 
ATOM     15  C   UNL     1      36.632 -23.755 -15.016  0.00  0.00    +0.050 C 
ATOM     16  C   UNL     1      37.776 -24.554 -14.926  0.00  0.00    +0.028 C 
ATOM     17  C   UNL     1      36.113 -23.162 -13.860  0.00  0.00    +0.017 C 
ATOM     18  C   UNL     1      38.396 -24.758 -13.695  0.00  0.00    +0.086 C 
ATOM     19  C   UNL     1      36.735 -23.366 -12.626  0.00  0.00    +0.032 C 
ATOM     20  C   UNL     1      37.876 -24.164 -12.544  0.00  0.00    +0.151 C 
ENDBRANCH   1  15
BRANCH   7  21
ATOM     21  O   UNL     1      33.431 -20.317 -21.132  0.00  0.00    -0.472 OA
ATOM     22  C   UNL     1      32.415 -19.330 -20.974  0.00  0.00    +0.252 C 
ENDBRANCH   7  21
BRANCH   4  23
ATOM     23  O   UNL     1      36.098 -20.811 -20.530  0.00  0.00    -0.473 OA
BRANCH  23  24
ATOM     24  C   UNL     1      36.496 -19.462 -20.327  0.00  0.00    +0.203 C 
BRANCH  24  25
ATOM     25  C   UNL     1      36.431 -18.725 -21.657  0.00  0.00    +0.025 C 
BRANCH  25  26
ATOM     26  C   UNL     1      35.473 -17.539 -21.594  0.00  0.00    -0.073 C 
BRANCH  26  28
ATOM     27  O   UNL     1      34.580 -17.078 -25.669  0.00  0.00    -0.358 OA
ATOM     28  N   UNL     1      34.731 -17.419 -22.847  0.00  0.00    +0.390 N 
ATOM     29  C   UNL     1      34.980 -16.115 -23.479  0.00  0.00    -0.045 C 
ATOM     30  C   UNL     1      35.088 -18.503 -23.771  0.00  0.00    -0.045 C 
ATOM     31  C   UNL     1      34.205 -16.018 -24.789  0.00  0.00    +0.119 C 
ATOM     32  C   UNL     1      34.311 -18.349 -25.076  0.00  0.00    +0.119 C 
ATOM     33  H   UNL     1      33.736 -17.490 -22.629  0.00  0.00    -0.079 HD
ENDBRANCH  26  28
ENDBRANCH  25  26
ENDBRANCH  24  25
ENDBRANCH  23  24
ENDBRANCH   4  23
TORSDOF 7
ENDMDL
MODEL 6
REMARK VINA RESULT:      -9.3      5.623     11.143
REMARK  Name = 123631
REMARK  7 active torsions:
REMARK  status: ('A' for Active; 'I' for Inactive)
REMARK    1  A    between atoms: N_1  and  C_15
REMARK    2  A    between atoms: C_4  and  O_23
REMARK    3  A    between atoms: C_7  and  O_21
REMARK    4  A    between atoms: O_23  and  C_24
REMARK    5  A    between atoms: C_24  and  C_25
REMARK    6  A    between atoms: C_25  and  C_26
REMARK    7  A    between atoms: C_26  and  N_28
REMARK                            x       y       z     vdW  Elec       q    Type
REMARK                         _______ _______ _______ _____ _____    ______ ____
ROOT
ATOM      1  N   UNL     1      32.710  -7.677 -23.575  0.00  0.00    -0.298 N 
ATOM      2  N   UNL     1      31.948  -8.738 -19.648  0.00  0.00    -0.248 NA
ATOM      3  N   UNL     1      32.397  -7.067 -21.324  0.00  0.00    -0.230 NA
ATOM      4  C   UNL     1      32.126 -11.740 -22.522  0.00  0.00    +0.169 C 
ATOM      5  C   UNL     1      32.262  -9.403 -21.930  0.00  0.00    +0.048 C 
ATOM      6  C   UNL     1      32.321 -10.420 -22.899  0.00  0.00    +0.044 C 
ATOM      7  C   UNL     1      31.873 -12.056 -21.197  0.00  0.00    +0.156 C 
ATOM      8  C   UNL     1      32.007  -9.703 -20.582  0.00  0.00    +0.066 C 
ATOM      9  C   UNL     1      31.816 -11.039 -20.239  0.00  0.00    +0.112 C 
ATOM     10  C   UNL     1      32.449  -8.058 -22.234  0.00  0.00    +0.131 C 
ATOM     11  C   UNL     1      32.146  -7.473 -20.069  0.00  0.00    +0.252 C 
ATOM     12  H   UNL     1      33.186  -8.363 -24.096  0.00  0.00    +0.154 HD
ENDROOT
BRANCH   1  15
ATOM     13 CL   UNL     1      34.196  -4.255 -27.093  0.00  0.00    -0.080 Cl
ATOM     14  F   UNL     1      31.555  -3.077 -26.438  0.00  0.00    -0.203 F 
ATOM     15  C   UNL     1      32.422  -6.512 -24.303  0.00  0.00    +0.050 C 
ATOM     16  C   UNL     1      33.342  -6.014 -25.230  0.00  0.00    +0.028 C 
ATOM     17  C   UNL     1      31.212  -5.840 -24.103  0.00  0.00    +0.017 C 
ATOM     18  C   UNL     1      33.055  -4.857 -25.952  0.00  0.00    +0.086 C 
ATOM     19  C   UNL     1      30.924  -4.682 -24.827  0.00  0.00    +0.032 C 
ATOM     20  C   UNL     1      31.846  -4.190 -25.751  0.00  0.00    +0.151 C 
ENDBRANCH   1  15
BRANCH   7  21
ATOM     21  O   UNL     1      31.679 -13.349 -20.811  0.00  0.00    -0.472 OA
ATOM     22  C   UNL     1      32.825 -14.074 -20.374  0.00  0.00    +0.252 C 
ENDBRANCH   7  21
BRANCH   4  23
ATOM     23  O   UNL     1      32.184 -12.726 -23.472  0.00  0.00    -0.473 OA
BRANCH  23  24
ATOM     24  C   UNL     1      33.478 -13.128 -23.900  0.00  0.00    +0.203 C 
BRANCH  24  25
ATOM     25  C   UNL     1      33.508 -14.646 -24.016  0.00  0.00    +0.025 C 
BRANCH  25  26
ATOM     26  C   UNL     1      34.674 -15.245 -23.235  0.00  0.00    -0.073 C 
BRANCH  26  28
ATOM     27  O   UNL     1      35.262 -19.311 -22.375  0.00  0.00    -0.358 OA
ATOM     28  N   UNL     1      34.415 -16.652 -22.936  0.00  0.00    +0.390 N 
ATOM     29  C   UNL     1      34.969 -17.519 -23.985  0.00  0.00    -0.045 C 
ATOM     30  C   UNL     1      34.976 -17.019 -21.629  0.00  0.00    -0.045 C 
ATOM     31  C   UNL     1      34.697 -18.981 -23.645  0.00  0.00    +0.119 C 
ATOM     32  C   UNL     1      34.705 -18.493 -21.344  0.00  0.00    +0.119 C 
ATOM     33  H   UNL     1      33.403 -16.783 -22.905  0.00  0.00    -0.079 HD
ENDBRANCH  26  28
ENDBRANCH  25  26
ENDBRANCH  24  25
ENDBRANCH  23  24
ENDBRANCH   4  23
TORSDOF 7
ENDMDL
MODEL 7
REMARK VINA RESULT:      -9.3      4.643      9.375
REMARK  Name = 123631
REMARK  7 active torsions:
REMARK  status: ('A' for Active; 'I' for Inactive)
REMARK    1  A    between atoms: N_1  and  C_15
REMARK    2  A    between atoms: C_4  and  O_23
REMARK    3  A    between atoms: C_7  and  O_21
REMARK    4  A    between atoms: O_23  and  C_24
REMARK    5  A    between atoms: C_24  and  C_25
REMARK    6  A    between atoms: C_25  and  C_26
REMARK    7  A    between atoms: C_26  and  N_28
REMARK                            x       y       z     vdW  Elec       q    Type
REMARK                         _______ _______ _______ _____ _____    ______ ____
ROOT
ATOM      1  N   UNL     1      32.456 -13.572 -22.829  0.00  0.00    -0.298 N 
ATOM      2  N   UNL     1      33.830 -15.218 -26.370  0.00  0.00    -0.248 NA
ATOM      3  N   UNL     1      32.752 -13.435 -25.160  0.00  0.00    -0.230 NA
ATOM      4  C   UNL     1      34.348 -17.364 -22.844  0.00  0.00    +0.169 C 
ATOM      5  C   UNL     1      33.548 -15.398 -23.995  0.00  0.00    +0.048 C 
ATOM      6  C   UNL     1      33.725 -16.126 -22.805  0.00  0.00    +0.044 C 
ATOM      7  C   UNL     1      34.795 -17.882 -24.049  0.00  0.00    +0.156 C 
ATOM      8  C   UNL     1      33.994 -15.906 -25.226  0.00  0.00    +0.066 C 
ATOM      9  C   UNL     1      34.615 -17.153 -25.227  0.00  0.00    +0.112 C 
ATOM     10  C   UNL     1      32.932 -14.150 -24.033  0.00  0.00    +0.131 C 
ATOM     11  C   UNL     1      33.217 -14.021 -26.275  0.00  0.00    +0.252 C 
ATOM     12  H   UNL     1      32.173 -14.233 -22.157  0.00  0.00    +0.154 HD
ENDROOT
BRANCH   1  15
ATOM     13 CL   UNL     1      30.887 -10.282 -19.222  0.00  0.00    -0.080 Cl
ATOM     14  F   UNL     1      31.890  -8.309 -21.194  0.00  0.00    -0.203 F 
ATOM     15  C   UNL     1      32.311 -12.240 -22.411  0.00  0.00    +0.050 C 
ATOM     16  C   UNL     1      31.738 -11.950 -21.169  0.00  0.00    +0.028 C 
ATOM     17  C   UNL     1      32.737 -11.194 -23.235  0.00  0.00    +0.017 C 
ATOM     18  C   UNL     1      31.593 -10.627 -20.754  0.00  0.00    +0.086 C 
ATOM     19  C   UNL     1      32.593  -9.869 -22.819  0.00  0.00    +0.032 C 
ATOM     20  C   UNL     1      32.021  -9.586 -21.579  0.00  0.00    +0.151 C 
ENDBRANCH   1  15
BRANCH   7  21
ATOM     21  O   UNL     1      35.408 -19.098 -24.102  0.00  0.00    -0.472 OA
ATOM     22  C   UNL     1      34.857 -20.064 -24.992  0.00  0.00    +0.252 C 
ENDBRANCH   7  21
BRANCH   4  23
ATOM     23  O   UNL     1      34.518 -18.067 -21.680  0.00  0.00    -0.473 OA
BRANCH  23  24
ATOM     24  C   UNL     1      35.791 -17.972 -21.054  0.00  0.00    +0.203 C 
BRANCH  24  25
ATOM     25  C   UNL     1      36.330 -19.377 -20.821  0.00  0.00    +0.025 C 
BRANCH  25  26
ATOM     26  C   UNL     1      35.219 -20.420 -20.880  0.00  0.00    -0.073 C 
BRANCH  26  28
ATOM     27  O   UNL     1      35.442 -22.392 -17.181  0.00  0.00    -0.358 OA
ATOM     28  N   UNL     1      35.437 -21.452 -19.868  0.00  0.00    +0.390 N 
ATOM     29  C   UNL     1      36.470 -21.034 -18.909  0.00  0.00    -0.045 C 
ATOM     30  C   UNL     1      34.187 -21.760 -19.160  0.00  0.00    -0.045 C 
ATOM     31  C   UNL     1      36.670 -22.121 -17.858  0.00  0.00    +0.119 C 
ATOM     32  C   UNL     1      34.441 -22.830 -18.102  0.00  0.00    +0.119 C 
ATOM     33  H   UNL     1      35.757 -22.295 -20.346  0.00  0.00    -0.079 HD
ENDBRANCH  26  28
ENDBRANCH  25  26
ENDBRANCH  24  25
ENDBRANCH  23  24
ENDBRANCH   4  23
TORSDOF 7
ENDMDL
MODEL 8
REMARK VINA RESULT:      -9.0      6.852     11.115
REMARK  Name = 123631
REMARK  7 active torsions:
REMARK  status: ('A' for Active; 'I' for Inactive)
REMARK    1  A    between atoms: N_1  and  C_15
REMARK    2  A    between atoms: C_4  and  O_23
REMARK    3  A    between atoms: C_7  and  O_21
REMARK    4  A    between atoms: O_23  and  C_24
REMARK    5  A    between atoms: C_24  and  C_25
REMARK    6  A    between atoms: C_25  and  C_26
REMARK    7  A    between atoms: C_26  and  N_28
REMARK                            x       y       z     vdW  Elec       q    Type
REMARK                         _______ _______ _______ _____ _____    ______ ____
ROOT
ATOM      1  N   UNL     1      34.636 -24.257 -14.521  0.00  0.00    -0.298 N 
ATOM      2  N   UNL     1      30.681 -24.606 -13.352  0.00  0.00    -0.248 NA
ATOM      3  N   UNL     1      33.028 -24.986 -12.965  0.00  0.00    -0.230 NA
ATOM      4  C   UNL     1      31.531 -22.712 -16.956  0.00  0.00    +0.169 C 
ATOM      5  C   UNL     1      32.286 -23.848 -14.964  0.00  0.00    +0.048 C 
ATOM      6  C   UNL     1      32.570 -23.206 -16.182  0.00  0.00    +0.044 C 
ATOM      7  C   UNL     1      30.219 -22.848 -16.531  0.00  0.00    +0.156 C 
ATOM      8  C   UNL     1      30.963 -23.996 -14.516  0.00  0.00    +0.066 C 
ATOM      9  C   UNL     1      29.945 -23.487 -15.318  0.00  0.00    +0.112 C 
ATOM     10  C   UNL     1      33.276 -24.369 -14.135  0.00  0.00    +0.131 C 
ATOM     11  C   UNL     1      31.728 -25.069 -12.640  0.00  0.00    +0.252 C 
ATOM     12  H   UNL     1      34.772 -24.251 -15.496  0.00  0.00    +0.154 HD
ENDROOT
BRANCH   1  15
ATOM     13 CL   UNL     1      39.534 -25.654 -13.926  0.00  0.00    -0.080 Cl
ATOM     14  F   UNL     1      39.319 -23.839 -11.591  0.00  0.00    -0.203 F 
ATOM     15  C   UNL     1      35.824 -24.154 -13.782  0.00  0.00    +0.050 C 
ATOM     16  C   UNL     1      36.961 -24.870 -14.171  0.00  0.00    +0.028 C 
ATOM     17  C   UNL     1      35.880 -23.335 -12.650  0.00  0.00    +0.017 C 
ATOM     18  C   UNL     1      38.141 -24.768 -13.436  0.00  0.00    +0.086 C 
ATOM     19  C   UNL     1      37.062 -23.232 -11.915  0.00  0.00    +0.032 C 
ATOM     20  C   UNL     1      38.192 -23.948 -12.308  0.00  0.00    +0.151 C 
ENDBRANCH   1  15
BRANCH   7  21
ATOM     21  O   UNL     1      29.188 -22.367 -17.281  0.00  0.00    -0.472 OA
ATOM     22  C   UNL     1      27.947 -23.063 -17.200  0.00  0.00    +0.252 C 
ENDBRANCH   7  21
BRANCH   4  23
ATOM     23  O   UNL     1      31.815 -22.087 -18.143  0.00  0.00    -0.473 OA
BRANCH  23  24
ATOM     24  C   UNL     1      33.142 -22.219 -18.634  0.00  0.00    +0.203 C 
BRANCH  24  25
ATOM     25  C   UNL     1      33.395 -21.127 -19.664  0.00  0.00    +0.025 C 
BRANCH  25  26
ATOM     26  C   UNL     1      34.887 -20.912 -19.898  0.00  0.00    -0.073 C 
BRANCH  26  28
ATOM     27  O   UNL     1      35.277 -17.757 -22.640  0.00  0.00    -0.358 OA
ATOM     28  N   UNL     1      35.127 -19.585 -20.463  0.00  0.00    +0.390 N 
ATOM     29  C   UNL     1      36.242 -19.618 -21.419  0.00  0.00    -0.045 C 
ATOM     30  C   UNL     1      33.917 -19.071 -21.118  0.00  0.00    -0.045 C 
ATOM     31  C   UNL     1      36.465 -18.227 -22.002  0.00  0.00    +0.119 C 
ATOM     32  C   UNL     1      34.194 -17.692 -21.709  0.00  0.00    +0.119 C 
ATOM     33  H   UNL     1      35.373 -18.960 -19.695  0.00  0.00    -0.079 HD
ENDBRANCH  26  28
ENDBRANCH  25  26
ENDBRANCH  24  25
ENDBRANCH  23  24
ENDBRANCH   4  23
TORSDOF 7
ENDMDL
MODEL 9
REMARK VINA RESULT:      -8.5      4.012      7.015
REMARK  Name = 123631
REMARK  7 active torsions:
REMARK  status: ('A' for Active; 'I' for Inactive)
REMARK    1  A    between atoms: N_1  and  C_15
REMARK    2  A    between atoms: C_4  and  O_23
REMARK    3  A    between atoms: C_7  and  O_21
REMARK    4  A    between atoms: O_23  and  C_24
REMARK    5  A    between atoms: C_24  and  C_25
REMARK    6  A    between atoms: C_25  and  C_26
REMARK    7  A    between atoms: C_26  and  N_28
REMARK                            x       y       z     vdW  Elec       q    Type
REMARK                         _______ _______ _______ _____ _____    ______ ____
ROOT
ATOM      1  N   UNL     1      32.483 -12.273 -23.546  0.00  0.00    -0.298 N 
ATOM      2  N   UNL     1      31.578 -10.504 -19.915  0.00  0.00    -0.248 NA
ATOM      3  N   UNL     1      31.861 -12.466 -21.285  0.00  0.00    -0.230 NA
ATOM      4  C   UNL     1      32.560  -8.056 -23.132  0.00  0.00    +0.169 C 
ATOM      5  C   UNL     1      32.212 -10.263 -22.215  0.00  0.00    +0.048 C 
ATOM      6  C   UNL     1      32.544  -9.433 -23.300  0.00  0.00    +0.044 C 
ATOM      7  C   UNL     1      32.251  -7.501 -21.901  0.00  0.00    +0.156 C 
ATOM      8  C   UNL     1      31.896  -9.719 -20.959  0.00  0.00    +0.066 C 
ATOM      9  C   UNL     1      31.922  -8.333 -20.827  0.00  0.00    +0.112 C 
ATOM     10  C   UNL     1      32.175 -11.651 -22.310  0.00  0.00    +0.131 C 
ATOM     11  C   UNL     1      31.577 -11.835 -20.135  0.00  0.00    +0.252 C 
ATOM     12  H   UNL     1      32.254 -11.727 -24.332  0.00  0.00    +0.154 HD
ENDROOT
BRANCH   1  15
ATOM     13 CL   UNL     1      35.103 -16.398 -21.992  0.00  0.00    -0.080 Cl
ATOM     14  F   UNL     1      34.718 -17.179 -24.826  0.00  0.00    -0.203 F 
ATOM     15  C   UNL     1      33.050 -13.516 -23.866  0.00  0.00    +0.050 C 
ATOM     16  C   UNL     1      33.719 -14.259 -22.888  0.00  0.00    +0.028 C 
ATOM     17  C   UNL     1      32.952 -14.021 -25.166  0.00  0.00    +0.017 C 
ATOM     18  C   UNL     1      34.283 -15.493 -23.205  0.00  0.00    +0.086 C 
ATOM     19  C   UNL     1      33.516 -15.257 -25.485  0.00  0.00    +0.032 C 
ATOM     20  C   UNL     1      34.182 -15.993 -24.504  0.00  0.00    +0.151 C 
ENDBRANCH   1  15
BRANCH   7  21
ATOM     21  O   UNL     1      32.263  -6.150 -21.721  0.00  0.00    -0.472 OA
ATOM     22  C   UNL     1      31.000  -5.490 -21.690  0.00  0.00    +0.252 C 
ENDBRANCH   7  21
BRANCH   4  23
ATOM     23  O   UNL     1      32.885  -7.253 -24.194  0.00  0.00    -0.473 OA
BRANCH  23  24
ATOM     24  C   UNL     1      34.269  -7.031 -24.429  0.00  0.00    +0.203 C 
BRANCH  24  25
ATOM     25  C   UNL     1      34.420  -6.011 -25.549  0.00  0.00    +0.025 C 
BRANCH  25  26
ATOM     26  C   UNL     1      33.064  -5.574 -26.095  0.00  0.00    -0.073 C 
BRANCH  26  28
ATOM     27  O   UNL     1      31.152  -1.877 -25.553  0.00  0.00    -0.358 OA
ATOM     28  N   UNL     1      32.694  -4.269 -25.549  0.00  0.00    +0.390 N 
ATOM     29  C   UNL     1      32.928  -3.205 -26.536  0.00  0.00    -0.045 C 
ATOM     30  C   UNL     1      31.289  -4.262 -25.123  0.00  0.00    -0.045 C 
ATOM     31  C   UNL     1      32.524  -1.857 -25.948  0.00  0.00    +0.119 C 
ATOM     32  C   UNL     1      30.922  -2.888 -24.569  0.00  0.00    +0.119 C 
ATOM     33  H   UNL     1      33.283  -4.094 -24.734  0.00  0.00    -0.079 HD
ENDBRANCH  26  28
ENDBRANCH  25  26
ENDBRANCH  24  25
ENDBRANCH  23  24
ENDBRANCH   4  23
TORSDOF 7
ENDMDL
