MODEL 1
REMARK VINA RESULT:      -7.2      0.000      0.000
REMARK  Name = 5289197
REMARK  2 active torsions:
REMARK  status: ('A' for Active; 'I' for Inactive)
REMARK    1  A    between atoms: C_2  and  C_11
REMARK    2  A    between atoms: N_10  and  C_13
REMARK                            x       y       z     vdW  Elec       q    Type
REMARK                         _______ _______ _______ _____ _____    ______ ____
ROOT
ATOM      1  N   UNL     1      34.309 -14.767 -23.043  0.00  0.00    +0.391 N 
ATOM      2  C   UNL     1      34.254 -14.873 -21.585  0.00  0.00    +0.017 C 
ATOM      3  C   UNL     1      32.835 -14.658 -21.055  0.00  0.00    -0.013 C 
ATOM      4  C   UNL     1      32.268 -13.323 -21.528  0.00  0.00    -0.004 C 
ATOM      5  C   UNL     1      32.396 -13.197 -23.043  0.00  0.00    -0.023 C 
ATOM      6  C   UNL     1      33.829 -13.462 -23.502  0.00  0.00    -0.081 C 
ATOM      7  H   UNL     1      33.726 -15.498 -23.451  0.00  0.00    -0.084 HD
ATOM      8  H   UNL     1      35.280 -14.874 -23.336  0.00  0.00    -0.084 HD
ENDROOT
BRANCH   2  11
ATOM      9  O   UNL     1      35.218 -16.520 -20.155  0.00  0.00    -0.277 OA
ATOM     10  N   UNL     1      34.543 -17.139 -22.295  0.00  0.00    -0.309 N 
ATOM     11  C   UNL     1      34.720 -16.254 -21.245  0.00  0.00    +0.202 C 
ATOM     12  H   UNL     1      34.130 -16.805 -23.124  0.00  0.00    +0.149 HD
BRANCH  10  13
ATOM     13  C   UNL     1      34.932 -18.529 -22.231  0.00  0.00    +0.057 C 
ATOM     14  C   UNL     1      33.989 -19.262 -21.273  0.00  0.00    +0.020 C 
ATOM     15  C   UNL     1      34.832 -19.127 -23.636  0.00  0.00    +0.020 C 
ATOM     16  C   UNL     1      36.373 -18.615 -21.718  0.00  0.00    +0.020 C 
ENDBRANCH  10  13
ENDBRANCH   2  11
TORSDOF 2
ENDMDL
MODEL 2
REMARK VINA RESULT:      -6.9      1.955      5.461
REMARK  Name = 5289197
REMARK  2 active torsions:
REMARK  status: ('A' for Active; 'I' for Inactive)
REMARK    1  A    between atoms: C_2  and  C_11
REMARK    2  A    between atoms: N_10  and  C_13
REMARK                            x       y       z     vdW  Elec       q    Type
REMARK                         _______ _______ _______ _____ _____    ______ ____
ROOT
ATOM      1  N   UNL     1      35.864 -19.707 -20.526  0.00  0.00    +0.391 N 
ATOM      2  C   UNL     1      34.717 -19.415 -21.386  0.00  0.00    +0.017 C 
ATOM      3  C   UNL     1      33.391 -19.700 -20.678  0.00  0.00    -0.013 C 
ATOM      4  C   UNL     1      33.340 -21.137 -20.167  0.00  0.00    -0.004 C 
ATOM      5  C   UNL     1      34.576 -21.449 -19.330  0.00  0.00    -0.023 C 
ATOM      6  C   UNL     1      35.858 -21.103 -20.085  0.00  0.00    -0.081 C 
ATOM      7  H   UNL     1      35.828 -19.100 -19.707  0.00  0.00    -0.084 HD
ATOM      8  H   UNL     1      36.716 -19.542 -21.061  0.00  0.00    -0.084 HD
ENDROOT
BRANCH   2  11
ATOM      9  O   UNL     1      35.742 -17.507 -22.385  0.00  0.00    -0.277 OA
ATOM     10  N   UNL     1      33.754 -17.232 -21.206  0.00  0.00    -0.309 N 
ATOM     11  C   UNL     1      34.808 -17.961 -21.729  0.00  0.00    +0.202 C 
ATOM     12  H   UNL     1      33.062 -17.711 -20.695  0.00  0.00    +0.149 HD
BRANCH  10  13
ATOM     13  C   UNL     1      33.620 -15.804 -21.375  0.00  0.00    +0.057 C 
ATOM     14  C   UNL     1      32.259 -15.367 -20.825  0.00  0.00    +0.020 C 
ATOM     15  C   UNL     1      34.750 -15.115 -20.605  0.00  0.00    +0.020 C 
ATOM     16  C   UNL     1      33.715 -15.472 -22.867  0.00  0.00    +0.020 C 
ENDBRANCH  10  13
ENDBRANCH   2  11
TORSDOF 2
ENDMDL
MODEL 3
REMARK VINA RESULT:      -6.6      6.365      8.791
REMARK  Name = 5289197
REMARK  2 active torsions:
REMARK  status: ('A' for Active; 'I' for Inactive)
REMARK    1  A    between atoms: C_2  and  C_11
REMARK    2  A    between atoms: N_10  and  C_13
REMARK                            x       y       z     vdW  Elec       q    Type
REMARK                         _______ _______ _______ _____ _____    ______ ____
ROOT
ATOM      1  N   UNL     1      32.651 -21.665 -18.873  0.00  0.00    +0.391 N 
ATOM      2  C   UNL     1      33.434 -22.777 -18.335  0.00  0.00    +0.017 C 
ATOM      3  C   UNL     1      34.893 -22.380 -18.099  0.00  0.00    -0.013 C 
ATOM      4  C   UNL     1      35.525 -21.830 -19.374  0.00  0.00    -0.004 C 
ATOM      5  C   UNL     1      34.661 -20.719 -19.962  0.00  0.00    -0.023 C 
ATOM      6  C   UNL     1      33.214 -21.175 -20.132  0.00  0.00    -0.081 C 
ATOM      7  H   UNL     1      32.644 -20.904 -18.194  0.00  0.00    -0.084 HD
ATOM      8  H   UNL     1      31.703 -21.997 -19.052  0.00  0.00    -0.084 HD
ENDROOT
BRANCH   2  11
ATOM      9  O   UNL     1      33.435 -23.660 -16.120  0.00  0.00    -0.277 OA
ATOM     10  N   UNL     1      31.434 -22.891 -17.028  0.00  0.00    -0.309 N 
ATOM     11  C   UNL     1      32.793 -23.155 -17.038  0.00  0.00    +0.202 C 
ATOM     12  H   UNL     1      31.032 -22.482 -17.828  0.00  0.00    +0.149 HD
BRANCH  10  13
ATOM     13  C   UNL     1      30.579 -23.184 -15.901  0.00  0.00    +0.057 C 
ATOM     14  C   UNL     1      31.213 -22.598 -14.635  0.00  0.00    +0.020 C 
ATOM     15  C   UNL     1      29.209 -22.549 -16.152  0.00  0.00    +0.020 C 
ATOM     16  C   UNL     1      30.444 -24.704 -15.766  0.00  0.00    +0.020 C 
ENDBRANCH  10  13
ENDBRANCH   2  11
TORSDOF 2
ENDMDL
MODEL 4
REMARK VINA RESULT:      -6.2      3.720      6.977
REMARK  Name = 5289197
REMARK  2 active torsions:
REMARK  status: ('A' for Active; 'I' for Inactive)
REMARK    1  A    between atoms: C_2  and  C_11
REMARK    2  A    between atoms: N_10  and  C_13
REMARK                            x       y       z     vdW  Elec       q    Type
REMARK                         _______ _______ _______ _____ _____    ______ ____
ROOT
ATOM      1  N   UNL     1      33.425 -12.558 -23.360  0.00  0.00    +0.391 N 
ATOM      2  C   UNL     1      32.184 -12.652 -22.591  0.00  0.00    +0.017 C 
ATOM      3  C   UNL     1      32.375 -13.457 -21.305  0.00  0.00    -0.013 C 
ATOM      4  C   UNL     1      32.941 -14.842 -21.603  0.00  0.00    -0.004 C 
ATOM      5  C   UNL     1      34.196 -14.731 -22.464  0.00  0.00    -0.023 C 
ATOM      6  C   UNL     1      33.939 -13.883 -23.708  0.00  0.00    -0.081 C 
ATOM      7  H   UNL     1      34.124 -12.065 -22.803  0.00  0.00    -0.084 HD
ATOM      8  H   UNL     1      33.229 -12.051 -24.224  0.00  0.00    -0.084 HD
ENDROOT
BRANCH   2  11
ATOM      9  O   UNL     1      30.759 -10.996 -21.635  0.00  0.00    -0.277 OA
ATOM     10  N   UNL     1      32.686 -10.319 -22.753  0.00  0.00    -0.309 N 
ATOM     11  C   UNL     1      31.786 -11.249 -22.259  0.00  0.00    +0.202 C 
ATOM     12  H   UNL     1      33.477 -10.646 -23.239  0.00  0.00    +0.149 HD
BRANCH  10  13
ATOM     13  C   UNL     1      32.520  -8.893 -22.587  0.00  0.00    +0.057 C 
ATOM     14  C   UNL     1      33.755  -8.184 -23.149  0.00  0.00    +0.020 C 
ATOM     15  C   UNL     1      31.265  -8.459 -23.348  0.00  0.00    +0.020 C 
ATOM     16  C   UNL     1      32.370  -8.584 -21.094  0.00  0.00    +0.020 C 
ENDBRANCH  10  13
ENDBRANCH   2  11
TORSDOF 2
ENDMDL
MODEL 5
REMARK VINA RESULT:      -6.2     10.567     11.739
REMARK  Name = 5289197
REMARK  2 active torsions:
REMARK  status: ('A' for Active; 'I' for Inactive)
REMARK    1  A    between atoms: C_2  and  C_11
REMARK    2  A    between atoms: N_10  and  C_13
REMARK                            x       y       z     vdW  Elec       q    Type
REMARK                         _______ _______ _______ _____ _____    ______ ____
ROOT
ATOM      1  N   UNL     1      32.929 -25.072 -13.766  0.00  0.00    +0.391 N 
ATOM      2  C   UNL     1      33.286 -24.406 -15.019  0.00  0.00    +0.017 C 
ATOM      3  C   UNL     1      32.813 -22.951 -15.041  0.00  0.00    -0.013 C 
ATOM      4  C   UNL     1      31.312 -22.858 -14.779  0.00  0.00    -0.004 C 
ATOM      5  C   UNL     1      30.945 -23.616 -13.507  0.00  0.00    -0.023 C 
ATOM      6  C   UNL     1      31.483 -25.045 -13.540  0.00  0.00    -0.081 C 
ATOM      7  H   UNL     1      33.395 -24.597 -12.992  0.00  0.00    -0.084 HD
ATOM      8  H   UNL     1      33.227 -26.045 -13.823  0.00  0.00    -0.084 HD
ENDROOT
BRANCH   2  11
ATOM      9  O   UNL     1      35.385 -23.970 -16.062  0.00  0.00    -0.277 OA
ATOM     10  N   UNL     1      35.347 -25.121 -14.039  0.00  0.00    -0.309 N 
ATOM     11  C   UNL     1      34.778 -24.457 -15.112  0.00  0.00    +0.202 C 
ATOM     12  H   UNL     1      34.753 -25.469 -13.335  0.00  0.00    +0.149 HD
BRANCH  10  13
ATOM     13  C   UNL     1      36.771 -25.327 -13.902  0.00  0.00    +0.057 C 
ATOM     14  C   UNL     1      37.053 -25.920 -12.518  0.00  0.00    +0.020 C 
ATOM     15  C   UNL     1      37.229 -26.292 -14.998  0.00  0.00    +0.020 C 
ATOM     16  C   UNL     1      37.482 -23.978 -14.051  0.00  0.00    +0.020 C 
ENDBRANCH  10  13
ENDBRANCH   2  11
TORSDOF 2
ENDMDL
MODEL 6
REMARK VINA RESULT:      -6.1     10.253     11.582
REMARK  Name = 5289197
REMARK  2 active torsions:
REMARK  status: ('A' for Active; 'I' for Inactive)
REMARK    1  A    between atoms: C_2  and  C_11
REMARK    2  A    between atoms: N_10  and  C_13
REMARK                            x       y       z     vdW  Elec       q    Type
REMARK                         _______ _______ _______ _____ _____    ______ ____
ROOT
ATOM      1  N   UNL     1      32.437 -23.497 -15.845  0.00  0.00    +0.391 N 
ATOM      2  C   UNL     1      33.155 -23.827 -14.613  0.00  0.00    +0.017 C 
ATOM      3  C   UNL     1      32.472 -24.961 -13.847  0.00  0.00    -0.013 C 
ATOM      4  C   UNL     1      31.012 -24.626 -13.557  0.00  0.00    -0.004 C 
ATOM      5  C   UNL     1      30.294 -24.217 -14.840  0.00  0.00    -0.023 C 
ATOM      6  C   UNL     1      31.053 -23.110 -15.569  0.00  0.00    -0.081 C 
ATOM      7  H   UNL     1      32.439 -24.313 -16.458  0.00  0.00    -0.084 HD
ATOM      8  H   UNL     1      32.909 -22.710 -16.290  0.00  0.00    -0.084 HD
ENDROOT
BRANCH   2  11
ATOM      9  O   UNL     1      34.945 -24.072 -16.169  0.00  0.00    -0.277 OA
ATOM     10  N   UNL     1      35.224 -24.857 -13.995  0.00  0.00    -0.309 N 
ATOM     11  C   UNL     1      34.530 -24.248 -15.027  0.00  0.00    +0.202 C 
ATOM     12  H   UNL     1      34.782 -24.940 -13.119  0.00  0.00    +0.149 HD
BRANCH  10  13
ATOM     13  C   UNL     1      36.565 -25.374 -14.142  0.00  0.00    +0.057 C 
ATOM     14  C   UNL     1      37.479 -24.246 -14.630  0.00  0.00    +0.020 C 
ATOM     15  C   UNL     1      37.038 -25.890 -12.781  0.00  0.00    +0.020 C 
ATOM     16  C   UNL     1      36.545 -26.514 -15.165  0.00  0.00    +0.020 C 
ENDBRANCH  10  13
ENDBRANCH   2  11
TORSDOF 2
ENDMDL
MODEL 7
REMARK VINA RESULT:      -6.1      2.259      3.048
REMARK  Name = 5289197
REMARK  2 active torsions:
REMARK  status: ('A' for Active; 'I' for Inactive)
REMARK    1  A    between atoms: C_2  and  C_11
REMARK    2  A    between atoms: N_10  and  C_13
REMARK                            x       y       z     vdW  Elec       q    Type
REMARK                         _______ _______ _______ _____ _____    ______ ____
ROOT
ATOM      1  N   UNL     1      34.344 -14.496 -23.664  0.00  0.00    +0.391 N 
ATOM      2  C   UNL     1      33.618 -15.427 -24.528  0.00  0.00    +0.017 C 
ATOM      3  C   UNL     1      33.563 -14.930 -25.974  0.00  0.00    -0.013 C 
ATOM      4  C   UNL     1      32.962 -13.530 -26.051  0.00  0.00    -0.004 C 
ATOM      5  C   UNL     1      33.683 -12.587 -25.092  0.00  0.00    -0.023 C 
ATOM      6  C   UNL     1      33.733 -13.166 -23.680  0.00  0.00    -0.081 C 
ATOM      7  H   UNL     1      35.308 -14.423 -23.989  0.00  0.00    -0.084 HD
ATOM      8  H   UNL     1      34.311 -14.853 -22.709  0.00  0.00    -0.084 HD
ENDROOT
BRANCH   2  11
ATOM      9  O   UNL     1      34.909 -17.207 -25.451  0.00  0.00    -0.277 OA
ATOM     10  N   UNL     1      34.318 -17.290 -23.201  0.00  0.00    -0.309 N 
ATOM     11  C   UNL     1      34.359 -16.725 -24.464  0.00  0.00    +0.202 C 
ATOM     12  H   UNL     1      33.844 -16.805 -22.487  0.00  0.00    +0.149 HD
BRANCH  10  13
ATOM     13  C   UNL     1      34.938 -18.555 -22.880  0.00  0.00    +0.057 C 
ATOM     14  C   UNL     1      34.835 -19.478 -24.098  0.00  0.00    +0.020 C 
ATOM     15  C   UNL     1      36.405 -18.301 -22.528  0.00  0.00    +0.020 C 
ATOM     16  C   UNL     1      34.204 -19.176 -21.687  0.00  0.00    +0.020 C 
ENDBRANCH  10  13
ENDBRANCH   2  11
TORSDOF 2
ENDMDL
MODEL 8
REMARK VINA RESULT:      -6.0      5.854      8.089
REMARK  Name = 5289197
REMARK  2 active torsions:
REMARK  status: ('A' for Active; 'I' for Inactive)
REMARK    1  A    between atoms: C_2  and  C_11
REMARK    2  A    between atoms: N_10  and  C_13
REMARK                            x       y       z     vdW  Elec       q    Type
REMARK                         _______ _______ _______ _____ _____    ______ ____
ROOT
ATOM      1  N   UNL     1      32.911 -21.306 -19.275  0.00  0.00    +0.391 N 
ATOM      2  C   UNL     1      33.941 -22.329 -19.098  0.00  0.00    +0.017 C 
ATOM      3  C   UNL     1      35.346 -21.723 -19.089  0.00  0.00    -0.013 C 
ATOM      4  C   UNL     1      35.598 -20.904 -20.352  0.00  0.00    -0.004 C 
ATOM      5  C   UNL     1      34.479 -19.889 -20.561  0.00  0.00    -0.023 C 
ATOM      6  C   UNL     1      33.108 -20.559 -20.519  0.00  0.00    -0.081 C 
ATOM      7  H   UNL     1      32.949 -20.657 -18.488  0.00  0.00    -0.084 HD
ATOM      8  H   UNL     1      32.003 -21.768 -19.318  0.00  0.00    -0.084 HD
ENDROOT
BRANCH   2  11
ATOM      9  O   UNL     1      32.586 -23.528 -17.545  0.00  0.00    -0.277 OA
ATOM     10  N   UNL     1      34.728 -22.876 -16.906  0.00  0.00    -0.309 N 
ATOM     11  C   UNL     1      33.662 -22.985 -17.783  0.00  0.00    +0.202 C 
ATOM     12  H   UNL     1      35.541 -22.415 -17.214  0.00  0.00    +0.149 HD
BRANCH  10  13
ATOM     13  C   UNL     1      34.703 -23.406 -15.562  0.00  0.00    +0.057 C 
ATOM     14  C   UNL     1      34.975 -24.912 -15.620  0.00  0.00    +0.020 C 
ATOM     15  C   UNL     1      35.788 -22.701 -14.743  0.00  0.00    +0.020 C 
ATOM     16  C   UNL     1      33.323 -23.144 -14.953  0.00  0.00    +0.020 C 
ENDBRANCH  10  13
ENDBRANCH   2  11
TORSDOF 2
ENDMDL
MODEL 9
REMARK VINA RESULT:      -6.0      5.962      9.039
REMARK  Name = 5289197
REMARK  2 active torsions:
REMARK  status: ('A' for Active; 'I' for Inactive)
REMARK    1  A    between atoms: C_2  and  C_11
REMARK    2  A    between atoms: N_10  and  C_13
REMARK                            x       y       z     vdW  Elec       q    Type
REMARK                         _______ _______ _______ _____ _____    ______ ____
ROOT
ATOM      1  N   UNL     1      32.013 -10.574 -22.015  0.00  0.00    +0.391 N 
ATOM      2  C   UNL     1      31.566  -9.507 -21.120  0.00  0.00    +0.017 C 
ATOM      3  C   UNL     1      31.976  -9.775 -19.671  0.00  0.00    -0.013 C 
ATOM      4  C   UNL     1      31.468 -11.134 -19.199  0.00  0.00    -0.004 C 
ATOM      5  C   UNL     1      31.882 -12.228 -20.179  0.00  0.00    -0.023 C 
ATOM      6  C   UNL     1      31.475 -11.873 -21.608  0.00  0.00    -0.081 C 
ATOM      7  H   UNL     1      33.032 -10.617 -21.998  0.00  0.00    -0.084 HD
ATOM      8  H   UNL     1      31.676 -10.367 -22.955  0.00  0.00    -0.084 HD
ENDROOT
BRANCH   2  11
ATOM      9  O   UNL     1      33.152  -7.729 -21.009  0.00  0.00    -0.277 OA
ATOM     10  N   UNL     1      31.618  -7.767 -22.761  0.00  0.00    -0.309 N 
ATOM     11  C   UNL     1      32.214  -8.250 -21.608  0.00  0.00    +0.202 C 
ATOM     12  H   UNL     1      30.871  -8.275 -23.149  0.00  0.00    +0.149 HD
BRANCH  10  13
ATOM     13  C   UNL     1      32.043  -6.554 -23.421  0.00  0.00    +0.057 C 
ATOM     14  C   UNL     1      31.991  -5.400 -22.415  0.00  0.00    +0.020 C 
ATOM     15  C   UNL     1      33.473  -6.753 -23.929  0.00  0.00    +0.020 C 
ATOM     16  C   UNL     1      31.097  -6.273 -24.593  0.00  0.00    +0.020 C 
ENDBRANCH  10  13
ENDBRANCH   2  11
TORSDOF 2
ENDMDL
