MODEL 1
REMARK VINA RESULT:     -10.1      0.000      0.000
REMARK  Name = 2585
REMARK  11 active torsions:
REMARK  status: ('A' for Active; 'I' for Inactive)
REMARK    1  A    between atoms: C_1  and  O_2
REMARK    2  A    between atoms: C_1  and  C_4
REMARK    3  A    between atoms: C_1  and  C_20
REMARK    4  A    between atoms: C_4  and  O_5
REMARK    5  A    between atoms: O_5  and  C_11
REMARK    6  A    between atoms: C_20  and  N_21
REMARK    7  A    between atoms: N_21  and  C_24
REMARK    8  A    between atoms: C_24  and  C_25
REMARK    9  A    between atoms: C_25  and  O_26
REMARK   10  A    between atoms: O_26  and  C_27
REMARK   11  A    between atoms: C_28  and  O_33
REMARK                            x       y       z     vdW  Elec       q    Type
REMARK                         _______ _______ _______ _____ _____    ______ ____
ROOT
ATOM      1  C   UNL     1      36.502 -21.601 -19.157  0.00  0.00    +0.133 C 
ENDROOT
BRANCH   1   2
ATOM      2  O   UNL     1      36.552 -20.203 -19.456  0.00  0.00    -0.383 OA
ATOM      3  H   UNL     1      36.713 -20.081 -20.405  0.00  0.00    +0.210 HD
ENDBRANCH   1   2
BRANCH   1   4
ATOM      4  C   UNL     1      36.745 -21.787 -17.661  0.00  0.00    +0.232 C 
BRANCH   4   5
ATOM      5  O   UNL     1      35.688 -22.568 -17.117  0.00  0.00    -0.473 OA
BRANCH   5  11
ATOM      6  N   UNL     1      34.010 -24.671 -13.317  0.00  0.00    -0.353 N 
ATOM      7  C   UNL     1      34.875 -23.672 -15.111  0.00  0.00    +0.051 A 
ATOM      8  C   UNL     1      33.452 -23.712 -15.250  0.00  0.00    +0.020 A 
ATOM      9  C   UNL     1      35.192 -24.278 -13.895  0.00  0.00    +0.060 A 
ATOM     10  C   UNL     1      32.940 -24.342 -14.116  0.00  0.00    +0.057 A 
ATOM     11  C   UNL     1      35.926 -23.173 -15.911  0.00  0.00    +0.140 C 
ATOM     12  C   UNL     1      36.508 -24.411 -13.437  0.00  0.00    +0.017 C 
ATOM     13  C   UNL     1      32.549 -23.270 -16.241  0.00  0.00    +0.002 C 
ATOM     14  C   UNL     1      37.247 -23.300 -15.465  0.00  0.00    +0.037 C 
ATOM     15  C   UNL     1      31.571 -24.552 -13.919  0.00  0.00    +0.017 C 
ATOM     16  C   UNL     1      37.530 -23.909 -14.246  0.00  0.00    +0.005 C 
ATOM     17  C   UNL     1      31.177 -23.473 -16.059  0.00  0.00    +0.000 C 
ATOM     18  C   UNL     1      30.696 -24.105 -14.914  0.00  0.00    +0.001 C 
ATOM     19  H   UNL     1      33.938 -25.127 -12.447  0.00  0.00    +0.166 HD
ENDBRANCH   5  11
ENDBRANCH   4   5
ENDBRANCH   1   4
BRANCH   1  20
ATOM     20  C   UNL     1      35.147 -22.140 -19.622  0.00  0.00    -0.048 C 
BRANCH  20  21
ATOM     21  N   UNL     1      34.047 -21.268 -19.229  0.00  0.00    +0.388 N 
ATOM     22  H   UNL     1      34.427 -20.389 -18.879  0.00  0.00    -0.084 HD
ATOM     23  H   UNL     1      33.504 -21.736 -18.504  0.00  0.00    -0.084 HD
BRANCH  21  24
ATOM     24  C   UNL     1      33.172 -20.992 -20.361  0.00  0.00    -0.033 C 
BRANCH  24  25
ATOM     25  C   UNL     1      33.221 -19.517 -20.729  0.00  0.00    +0.182 C 
BRANCH  25  26
ATOM     26  O   UNL     1      34.540 -19.197 -21.155  0.00  0.00    -0.475 OA
BRANCH  26  27
ATOM     27  C   UNL     1      34.654 -18.381 -22.250  0.00  0.00    +0.172 C 
ATOM     28  C   UNL     1      34.815 -17.005 -22.095  0.00  0.00    +0.172 C 
ATOM     29  C   UNL     1      34.609 -18.938 -23.528  0.00  0.00    +0.040 C 
ATOM     30  C   UNL     1      34.930 -16.185 -23.218  0.00  0.00    +0.040 C 
ATOM     31  C   UNL     1      34.724 -18.119 -24.652  0.00  0.00    +0.003 C 
ATOM     32  C   UNL     1      34.884 -16.743 -24.496  0.00  0.00    +0.003 C 
BRANCH  28  33
ATOM     33  O   UNL     1      34.862 -16.449 -20.852  0.00  0.00    -0.468 OA
ATOM     34  C   UNL     1      34.531 -15.065 -20.748  0.00  0.00    +0.253 C 
ENDBRANCH  28  33
ENDBRANCH  26  27
ENDBRANCH  25  26
ENDBRANCH  24  25
ENDBRANCH  21  24
ENDBRANCH  20  21
ENDBRANCH   1  20
TORSDOF 11
ENDMDL
MODEL 2
REMARK VINA RESULT:      -9.9      1.470      3.810
REMARK  Name = 2585
REMARK  11 active torsions:
REMARK  status: ('A' for Active; 'I' for Inactive)
REMARK    1  A    between atoms: C_1  and  O_2
REMARK    2  A    between atoms: C_1  and  C_4
REMARK    3  A    between atoms: C_1  and  C_20
REMARK    4  A    between atoms: C_4  and  O_5
REMARK    5  A    between atoms: O_5  and  C_11
REMARK    6  A    between atoms: C_20  and  N_21
REMARK    7  A    between atoms: N_21  and  C_24
REMARK    8  A    between atoms: C_24  and  C_25
REMARK    9  A    between atoms: C_25  and  O_26
REMARK   10  A    between atoms: O_26  and  C_27
REMARK   11  A    between atoms: C_28  and  O_33
REMARK                            x       y       z     vdW  Elec       q    Type
REMARK                         _______ _______ _______ _____ _____    ______ ____
ROOT
ATOM      1  C   UNL     1      35.359 -21.866 -19.523  0.00  0.00    +0.133 C 
ENDROOT
BRANCH   1   2
ATOM      2  O   UNL     1      36.263 -21.596 -18.448  0.00  0.00    -0.383 OA
ATOM      3  H   UNL     1      35.765 -21.280 -17.678  0.00  0.00    +0.210 HD
ENDBRANCH   1   2
BRANCH   1   4
ATOM      4  C   UNL     1      34.067 -22.434 -18.940  0.00  0.00    +0.232 C 
BRANCH   4   5
ATOM      5  O   UNL     1      34.393 -23.315 -17.870  0.00  0.00    -0.473 OA
BRANCH   5  11
ATOM      6  N   UNL     1      33.851 -23.649 -13.258  0.00  0.00    -0.353 N 
ATOM      7  C   UNL     1      34.044 -23.480 -15.472  0.00  0.00    +0.051 A 
ATOM      8  C   UNL     1      35.344 -23.698 -14.914  0.00  0.00    +0.020 A 
ATOM      9  C   UNL     1      33.135 -23.454 -14.415  0.00  0.00    +0.060 A 
ATOM     10  C   UNL     1      35.191 -23.799 -13.531  0.00  0.00    +0.057 A 
ATOM     11  C   UNL     1      33.557 -23.303 -16.785  0.00  0.00    +0.140 C 
ATOM     12  C   UNL     1      31.762 -23.260 -14.602  0.00  0.00    +0.017 C 
ATOM     13  C   UNL     1      36.639 -23.819 -15.460  0.00  0.00    +0.002 C 
ATOM     14  C   UNL     1      32.186 -23.107 -16.987  0.00  0.00    +0.037 C 
ATOM     15  C   UNL     1      36.268 -24.015 -12.664  0.00  0.00    +0.017 C 
ATOM     16  C   UNL     1      31.304 -23.087 -15.910  0.00  0.00    +0.005 C 
ATOM     17  C   UNL     1      37.726 -24.034 -14.606  0.00  0.00    +0.000 C 
ATOM     18  C   UNL     1      37.541 -24.132 -13.228  0.00  0.00    +0.001 C 
ATOM     19  H   UNL     1      33.459 -23.678 -12.356  0.00  0.00    +0.166 HD
ENDBRANCH   5  11
ENDBRANCH   4   5
ENDBRANCH   1   4
BRANCH   1  20
ATOM     20  C   UNL     1      35.151 -20.570 -20.310  0.00  0.00    -0.048 C 
BRANCH  20  21
ATOM     21  N   UNL     1      36.326 -19.710 -20.267  0.00  0.00    +0.388 N 
ATOM     22  H   UNL     1      37.157 -20.270 -20.454  0.00  0.00    -0.084 HD
ATOM     23  H   UNL     1      36.384 -19.283 -19.343  0.00  0.00    -0.084 HD
BRANCH  21  24
ATOM     24  C   UNL     1      36.232 -18.651 -21.264  0.00  0.00    -0.033 C 
BRANCH  24  25
ATOM     25  C   UNL     1      34.924 -17.889 -21.115  0.00  0.00    +0.182 C 
BRANCH  25  26
ATOM     26  O   UNL     1      35.219 -16.527 -20.832  0.00  0.00    -0.475 OA
BRANCH  26  27
ATOM     27  C   UNL     1      34.349 -15.591 -21.327  0.00  0.00    +0.172 C 
ATOM     28  C   UNL     1      34.405 -15.210 -22.667  0.00  0.00    +0.172 C 
ATOM     29  C   UNL     1      33.401 -15.019 -20.479  0.00  0.00    +0.040 C 
ATOM     30  C   UNL     1      33.514 -14.256 -23.159  0.00  0.00    +0.040 C 
ATOM     31  C   UNL     1      32.510 -14.065 -20.969  0.00  0.00    +0.003 C 
ATOM     32  C   UNL     1      32.566 -13.683 -22.309  0.00  0.00    +0.003 C 
BRANCH  28  33
ATOM     33  O   UNL     1      35.325 -15.762 -23.507  0.00  0.00    -0.468 OA
ATOM     34  C   UNL     1      34.827 -16.547 -24.589  0.00  0.00    +0.253 C 
ENDBRANCH  28  33
ENDBRANCH  26  27
ENDBRANCH  25  26
ENDBRANCH  24  25
ENDBRANCH  21  24
ENDBRANCH  20  21
ENDBRANCH   1  20
TORSDOF 11
ENDMDL
MODEL 3
REMARK VINA RESULT:      -9.8      7.194     11.569
REMARK  Name = 2585
REMARK  11 active torsions:
REMARK  status: ('A' for Active; 'I' for Inactive)
REMARK    1  A    between atoms: C_1  and  O_2
REMARK    2  A    between atoms: C_1  and  C_4
REMARK    3  A    between atoms: C_1  and  C_20
REMARK    4  A    between atoms: C_4  and  O_5
REMARK    5  A    between atoms: O_5  and  C_11
REMARK    6  A    between atoms: C_20  and  N_21
REMARK    7  A    between atoms: N_21  and  C_24
REMARK    8  A    between atoms: C_24  and  C_25
REMARK    9  A    between atoms: C_25  and  O_26
REMARK   10  A    between atoms: O_26  and  C_27
REMARK   11  A    between atoms: C_28  and  O_33
REMARK                            x       y       z     vdW  Elec       q    Type
REMARK                         _______ _______ _______ _____ _____    ______ ____
ROOT
ATOM      1  C   UNL     1      31.689 -12.294 -21.706  0.00  0.00    +0.133 C 
ENDROOT
BRANCH   1   2
ATOM      2  O   UNL     1      32.411 -11.363 -22.517  0.00  0.00    -0.383 OA
ATOM      3  H   UNL     1      31.862 -10.580 -22.677  0.00  0.00    +0.210 HD
ENDBRANCH   1   2
BRANCH   1   4
ATOM      4  C   UNL     1      32.357 -13.662 -21.824  0.00  0.00    +0.232 C 
BRANCH   4   5
ATOM      5  O   UNL     1      33.508 -13.541 -22.653  0.00  0.00    -0.473 OA
BRANCH   5  11
ATOM      6  N   UNL     1      34.374 -17.421 -25.078  0.00  0.00    -0.353 N 
ATOM      7  C   UNL     1      33.936 -15.535 -23.974  0.00  0.00    +0.051 A 
ATOM      8  C   UNL     1      34.495 -16.483 -23.059  0.00  0.00    +0.020 A 
ATOM      9  C   UNL     1      33.873 -16.149 -25.224  0.00  0.00    +0.060 A 
ATOM     10  C   UNL     1      34.757 -17.649 -23.778  0.00  0.00    +0.057 A 
ATOM     11  C   UNL     1      33.477 -14.206 -23.851  0.00  0.00    +0.140 C 
ATOM     12  C   UNL     1      33.374 -15.503 -26.361  0.00  0.00    +0.017 C 
ATOM     13  C   UNL     1      34.803 -16.455 -21.682  0.00  0.00    +0.002 C 
ATOM     14  C   UNL     1      32.975 -13.547 -24.979  0.00  0.00    +0.037 C 
ATOM     15  C   UNL     1      35.313 -18.792 -23.190  0.00  0.00    +0.017 C 
ATOM     16  C   UNL     1      32.926 -14.188 -26.214  0.00  0.00    +0.005 C 
ATOM     17  C   UNL     1      35.358 -17.590 -21.080  0.00  0.00    +0.000 C 
ATOM     18  C   UNL     1      35.609 -18.740 -21.825  0.00  0.00    +0.001 C 
ATOM     19  H   UNL     1      34.449 -18.079 -25.807  0.00  0.00    +0.166 HD
ENDBRANCH   5  11
ENDBRANCH   4   5
ENDBRANCH   1   4
BRANCH   1  20
ATOM     20  C   UNL     1      31.659 -11.756 -20.273  0.00  0.00    -0.048 C 
BRANCH  20  21
ATOM     21  N   UNL     1      31.163 -10.388 -20.212  0.00  0.00    +0.388 N 
ATOM     22  H   UNL     1      30.266 -10.380 -19.726  0.00  0.00    -0.084 HD
ATOM     23  H   UNL     1      31.056 -10.037 -21.164  0.00  0.00    -0.084 HD
BRANCH  21  24
ATOM     24  C   UNL     1      32.098  -9.526 -19.501  0.00  0.00    -0.033 C 
BRANCH  24  25
ATOM     25  C   UNL     1      32.509  -8.348 -20.370  0.00  0.00    +0.182 C 
BRANCH  25  26
ATOM     26  O   UNL     1      32.074  -8.590 -21.702  0.00  0.00    -0.475 OA
BRANCH  26  27
ATOM     27  C   UNL     1      32.701  -7.883 -22.695  0.00  0.00    +0.172 C 
ATOM     28  C   UNL     1      32.036  -6.855 -23.362  0.00  0.00    +0.172 C 
ATOM     29  C   UNL     1      34.017  -8.198 -23.035  0.00  0.00    +0.040 C 
ATOM     30  C   UNL     1      32.685  -6.143 -24.370  0.00  0.00    +0.040 C 
ATOM     31  C   UNL     1      34.667  -7.486 -24.043  0.00  0.00    +0.003 C 
ATOM     32  C   UNL     1      34.001  -6.459 -24.711  0.00  0.00    +0.003 C 
BRANCH  28  33
ATOM     33  O   UNL     1      30.751  -6.536 -23.037  0.00  0.00    -0.468 OA
ATOM     34  C   UNL     1      30.561  -5.441 -22.144  0.00  0.00    +0.253 C 
ENDBRANCH  28  33
ENDBRANCH  26  27
ENDBRANCH  25  26
ENDBRANCH  24  25
ENDBRANCH  21  24
ENDBRANCH  20  21
ENDBRANCH   1  20
TORSDOF 11
ENDMDL
MODEL 4
REMARK VINA RESULT:      -9.8      2.761     10.286
REMARK  Name = 2585
REMARK  11 active torsions:
REMARK  status: ('A' for Active; 'I' for Inactive)
REMARK    1  A    between atoms: C_1  and  O_2
REMARK    2  A    between atoms: C_1  and  C_4
REMARK    3  A    between atoms: C_1  and  C_20
REMARK    4  A    between atoms: C_4  and  O_5
REMARK    5  A    between atoms: O_5  and  C_11
REMARK    6  A    between atoms: C_20  and  N_21
REMARK    7  A    between atoms: N_21  and  C_24
REMARK    8  A    between atoms: C_24  and  C_25
REMARK    9  A    between atoms: C_25  and  O_26
REMARK   10  A    between atoms: O_26  and  C_27
REMARK   11  A    between atoms: C_28  and  O_33
REMARK                            x       y       z     vdW  Elec       q    Type
REMARK                         _______ _______ _______ _____ _____    ______ ____
ROOT
ATOM      1  C   UNL     1      34.251 -19.700 -21.179  0.00  0.00    +0.133 C 
ENDROOT
BRANCH   1   2
ATOM      2  O   UNL     1      33.079 -19.077 -20.644  0.00  0.00    -0.383 OA
ATOM      3  H   UNL     1      32.472 -19.758 -20.315  0.00  0.00    +0.210 HD
ENDBRANCH   1   2
BRANCH   1   4
ATOM      4  C   UNL     1      35.297 -18.619 -21.445  0.00  0.00    +0.232 C 
BRANCH   4   5
ATOM      5  O   UNL     1      34.641 -17.361 -21.551  0.00  0.00    -0.473 OA
BRANCH   5  11
ATOM      6  N   UNL     1      32.970 -14.002 -24.309  0.00  0.00    -0.353 N 
ATOM      7  C   UNL     1      33.791 -15.643 -23.044  0.00  0.00    +0.051 A 
ATOM      8  C   UNL     1      33.196 -14.660 -22.191  0.00  0.00    +0.020 A 
ATOM      9  C   UNL     1      33.635 -15.204 -24.358  0.00  0.00    +0.060 A 
ATOM     10  C   UNL     1      32.693 -13.649 -23.010  0.00  0.00    +0.057 A 
ATOM     11  C   UNL     1      34.451 -16.870 -22.816  0.00  0.00    +0.140 C 
ATOM     12  C   UNL     1      34.104 -15.930 -25.459  0.00  0.00    +0.017 C 
ATOM     13  C   UNL     1      33.039 -14.538 -20.794  0.00  0.00    +0.002 C 
ATOM     14  C   UNL     1      34.926 -17.606 -23.908  0.00  0.00    +0.037 C 
ATOM     15  C   UNL     1      32.039 -12.520 -22.503  0.00  0.00    +0.017 C 
ATOM     16  C   UNL     1      34.753 -17.141 -25.208  0.00  0.00    +0.005 C 
ATOM     17  C   UNL     1      32.388 -13.414 -20.273  0.00  0.00    +0.000 C 
ATOM     18  C   UNL     1      31.896 -12.421 -21.116  0.00  0.00    +0.001 C 
ATOM     19  H   UNL     1      32.725 -13.466 -25.098  0.00  0.00    +0.166 HD
ENDBRANCH   5  11
ENDBRANCH   4   5
ENDBRANCH   1   4
BRANCH   1  20
ATOM     20  C   UNL     1      34.720 -20.766 -20.186  0.00  0.00    -0.048 C 
BRANCH  20  21
ATOM     21  N   UNL     1      33.604 -21.408 -19.504  0.00  0.00    +0.388 N 
ATOM     22  H   UNL     1      32.776 -21.355 -20.097  0.00  0.00    -0.084 HD
ATOM     23  H   UNL     1      33.442 -20.926 -18.620  0.00  0.00    -0.084 HD
BRANCH  21  24
ATOM     24  C   UNL     1      33.900 -22.807 -19.224  0.00  0.00    -0.033 C 
BRANCH  24  25
ATOM     25  C   UNL     1      33.497 -23.166 -17.802  0.00  0.00    +0.182 C 
BRANCH  25  26
ATOM     26  O   UNL     1      32.134 -22.807 -17.610  0.00  0.00    -0.475 OA
BRANCH  26  27
ATOM     27  C   UNL     1      31.599 -23.054 -16.373  0.00  0.00    +0.172 C 
ATOM     28  C   UNL     1      30.234 -22.884 -16.144  0.00  0.00    +0.172 C 
ATOM     29  C   UNL     1      32.432 -23.482 -15.339  0.00  0.00    +0.040 C 
ATOM     30  C   UNL     1      29.702 -23.139 -14.880  0.00  0.00    +0.040 C 
ATOM     31  C   UNL     1      31.900 -23.737 -14.074  0.00  0.00    +0.003 C 
ATOM     32  C   UNL     1      30.536 -23.566 -13.846  0.00  0.00    +0.003 C 
BRANCH  28  33
ATOM     33  O   UNL     1      29.410 -22.469 -17.146  0.00  0.00    -0.468 OA
ATOM     34  C   UNL     1      28.075 -22.971 -17.138  0.00  0.00    +0.253 C 
ENDBRANCH  28  33
ENDBRANCH  26  27
ENDBRANCH  25  26
ENDBRANCH  24  25
ENDBRANCH  21  24
ENDBRANCH  20  21
ENDBRANCH   1  20
TORSDOF 11
ENDMDL
MODEL 5
REMARK VINA RESULT:      -9.8      0.725      1.720
REMARK  Name = 2585
REMARK  11 active torsions:
REMARK  status: ('A' for Active; 'I' for Inactive)
REMARK    1  A    between atoms: C_1  and  O_2
REMARK    2  A    between atoms: C_1  and  C_4
REMARK    3  A    between atoms: C_1  and  C_20
REMARK    4  A    between atoms: C_4  and  O_5
REMARK    5  A    between atoms: O_5  and  C_11
REMARK    6  A    between atoms: C_20  and  N_21
REMARK    7  A    between atoms: N_21  and  C_24
REMARK    8  A    between atoms: C_24  and  C_25
REMARK    9  A    between atoms: C_25  and  O_26
REMARK   10  A    between atoms: O_26  and  C_27
REMARK   11  A    between atoms: C_28  and  O_33
REMARK                            x       y       z     vdW  Elec       q    Type
REMARK                         _______ _______ _______ _____ _____    ______ ____
ROOT
ATOM      1  C   UNL     1      36.390 -21.518 -19.255  0.00  0.00    +0.133 C 
ENDROOT
BRANCH   1   2
ATOM      2  O   UNL     1      36.455 -20.108 -19.494  0.00  0.00    -0.383 OA
ATOM      3  H   UNL     1      35.575 -19.781 -19.735  0.00  0.00    +0.210 HD
ENDBRANCH   1   2
BRANCH   1   4
ATOM      4  C   UNL     1      36.688 -21.774 -17.778  0.00  0.00    +0.232 C 
BRANCH   4   5
ATOM      5  O   UNL     1      35.623 -22.536 -17.221  0.00  0.00    -0.473 OA
BRANCH   5  11
ATOM      6  N   UNL     1      33.914 -24.524 -13.373  0.00  0.00    -0.353 N 
ATOM      7  C   UNL     1      34.794 -23.580 -15.190  0.00  0.00    +0.051 A 
ATOM      8  C   UNL     1      33.371 -23.608 -15.332  0.00  0.00    +0.020 A 
ATOM      9  C   UNL     1      35.102 -24.158 -13.959  0.00  0.00    +0.060 A 
ATOM     10  C   UNL     1      32.850 -24.204 -14.183  0.00  0.00    +0.057 A 
ATOM     11  C   UNL     1      35.852 -23.113 -16.000  0.00  0.00    +0.140 C 
ATOM     12  C   UNL     1      36.415 -24.294 -13.494  0.00  0.00    +0.017 C 
ATOM     13  C   UNL     1      32.475 -23.182 -16.336  0.00  0.00    +0.002 C 
ATOM     14  C   UNL     1      37.170 -23.243 -15.548  0.00  0.00    +0.037 C 
ATOM     15  C   UNL     1      31.477 -24.394 -13.985  0.00  0.00    +0.017 C 
ATOM     16  C   UNL     1      37.445 -23.824 -14.313  0.00  0.00    +0.005 C 
ATOM     17  C   UNL     1      31.100 -23.366 -16.152  0.00  0.00    +0.000 C 
ATOM     18  C   UNL     1      30.610 -23.962 -14.993  0.00  0.00    +0.001 C 
ATOM     19  H   UNL     1      33.835 -24.957 -12.493  0.00  0.00    +0.166 HD
ENDBRANCH   5  11
ENDBRANCH   4   5
ENDBRANCH   1   4
BRANCH   1  20
ATOM     20  C   UNL     1      35.009 -22.013 -19.690  0.00  0.00    -0.048 C 
BRANCH  20  21
ATOM     21  N   UNL     1      33.963 -21.043 -19.397  0.00  0.00    +0.388 N 
ATOM     22  H   UNL     1      34.385 -20.212 -18.981  0.00  0.00    -0.084 HD
ATOM     23  H   UNL     1      33.297 -21.466 -18.750  0.00  0.00    -0.084 HD
BRANCH  21  24
ATOM     24  C   UNL     1      33.253 -20.659 -20.611  0.00  0.00    -0.033 C 
BRANCH  24  25
ATOM     25  C   UNL     1      33.158 -19.146 -20.720  0.00  0.00    +0.182 C 
BRANCH  25  26
ATOM     26  O   UNL     1      34.440 -18.630 -21.057  0.00  0.00    -0.475 OA
BRANCH  26  27
ATOM     27  C   UNL     1      34.485 -17.341 -21.518  0.00  0.00    +0.172 C 
ATOM     28  C   UNL     1      34.627 -17.079 -22.880  0.00  0.00    +0.172 C 
ATOM     29  C   UNL     1      34.387 -16.285 -20.612  0.00  0.00    +0.040 C 
ATOM     30  C   UNL     1      34.672 -15.762 -23.337  0.00  0.00    +0.040 C 
ATOM     31  C   UNL     1      34.432 -14.967 -21.067  0.00  0.00    +0.003 C 
ATOM     32  C   UNL     1      34.575 -14.706 -22.429  0.00  0.00    +0.003 C 
BRANCH  28  33
ATOM     33  O   UNL     1      34.722 -18.102 -23.776  0.00  0.00    -0.468 OA
ATOM     34  C   UNL     1      34.556 -17.774 -25.154  0.00  0.00    +0.253 C 
ENDBRANCH  28  33
ENDBRANCH  26  27
ENDBRANCH  25  26
ENDBRANCH  24  25
ENDBRANCH  21  24
ENDBRANCH  20  21
ENDBRANCH   1  20
TORSDOF 11
ENDMDL
MODEL 6
REMARK VINA RESULT:      -9.7      7.937     14.719
REMARK  Name = 2585
REMARK  11 active torsions:
REMARK  status: ('A' for Active; 'I' for Inactive)
REMARK    1  A    between atoms: C_1  and  O_2
REMARK    2  A    between atoms: C_1  and  C_4
REMARK    3  A    between atoms: C_1  and  C_20
REMARK    4  A    between atoms: C_4  and  O_5
REMARK    5  A    between atoms: O_5  and  C_11
REMARK    6  A    between atoms: C_20  and  N_21
REMARK    7  A    between atoms: N_21  and  C_24
REMARK    8  A    between atoms: C_24  and  C_25
REMARK    9  A    between atoms: C_25  and  O_26
REMARK   10  A    between atoms: O_26  and  C_27
REMARK   11  A    between atoms: C_28  and  O_33
REMARK                            x       y       z     vdW  Elec       q    Type
REMARK                         _______ _______ _______ _____ _____    ______ ____
ROOT
ATOM      1  C   UNL     1      34.932 -10.209 -24.393  0.00  0.00    +0.133 C 
ENDROOT
BRANCH   1   2
ATOM      2  O   UNL     1      35.566 -10.246 -25.675  0.00  0.00    -0.383 OA
ATOM      3  H   UNL     1      34.947 -10.603 -26.331  0.00  0.00    +0.210 HD
ENDBRANCH   1   2
BRANCH   1   4
ATOM      4  C   UNL     1      34.531  -8.767 -24.090  0.00  0.00    +0.232 C 
BRANCH   4   5
ATOM      5  O   UNL     1      33.125  -8.717 -23.871  0.00  0.00    -0.473 OA
BRANCH   5  11
ATOM      6  N   UNL     1      31.543  -4.820 -21.874  0.00  0.00    -0.353 N 
ATOM      7  C   UNL     1      32.298  -6.716 -22.770  0.00  0.00    +0.051 A 
ATOM      8  C   UNL     1      32.209  -5.726 -23.800  0.00  0.00    +0.020 A 
ATOM      9  C   UNL     1      31.875  -6.121 -21.582  0.00  0.00    +0.060 A 
ATOM     10  C   UNL     1      31.735  -4.554 -23.210  0.00  0.00    +0.057 A 
ATOM     11  C   UNL     1      32.701  -8.069 -22.742  0.00  0.00    +0.140 C 
ATOM     12  C   UNL     1      31.835  -6.809 -20.363  0.00  0.00    +0.017 C 
ATOM     13  C   UNL     1      32.489  -5.720 -25.183  0.00  0.00    +0.002 C 
ATOM     14  C   UNL     1      32.665  -8.769 -21.530  0.00  0.00    +0.037 C 
ATOM     15  C   UNL     1      31.526  -3.374 -23.933  0.00  0.00    +0.017 C 
ATOM     16  C   UNL     1      32.239  -8.146 -20.361  0.00  0.00    +0.005 C 
ATOM     17  C   UNL     1      32.285  -4.548 -25.918  0.00  0.00    +0.000 C 
ATOM     18  C   UNL     1      31.811  -3.392 -25.301  0.00  0.00    +0.001 C 
ATOM     19  H   UNL     1      31.212  -4.166 -21.217  0.00  0.00    +0.166 HD
ENDBRANCH   5  11
ENDBRANCH   4   5
ENDBRANCH   1   4
BRANCH   1  20
ATOM     20  C   UNL     1      33.746 -11.176 -24.419  0.00  0.00    -0.048 C 
BRANCH  20  21
ATOM     21  N   UNL     1      34.152 -12.548 -24.145  0.00  0.00    +0.388 N 
ATOM     22  H   UNL     1      35.119 -12.551 -23.821  0.00  0.00    -0.084 HD
ATOM     23  H   UNL     1      34.061 -13.092 -25.003  0.00  0.00    -0.084 HD
BRANCH  21  24
ATOM     24  C   UNL     1      33.305 -13.147 -23.122  0.00  0.00    -0.033 C 
BRANCH  24  25
ATOM     25  C   UNL     1      33.985 -14.358 -22.504  0.00  0.00    +0.182 C 
BRANCH  25  26
ATOM     26  O   UNL     1      34.897 -14.902 -23.451  0.00  0.00    -0.475 OA
BRANCH  26  27
ATOM     27  C   UNL     1      34.842 -16.256 -23.653  0.00  0.00    +0.172 C 
ATOM     28  C   UNL     1      34.561 -16.773 -24.917  0.00  0.00    +0.172 C 
ATOM     29  C   UNL     1      35.073 -17.119 -22.582  0.00  0.00    +0.040 C 
ATOM     30  C   UNL     1      34.508 -18.154 -25.110  0.00  0.00    +0.040 C 
ATOM     31  C   UNL     1      35.020 -18.500 -22.774  0.00  0.00    +0.003 C 
ATOM     32  C   UNL     1      34.738 -19.017 -24.038  0.00  0.00    +0.003 C 
BRANCH  28  33
ATOM     33  O   UNL     1      34.336 -15.941 -25.972  0.00  0.00    -0.468 OA
ATOM     34  C   UNL     1      33.021 -15.405 -26.106  0.00  0.00    +0.253 C 
ENDBRANCH  28  33
ENDBRANCH  26  27
ENDBRANCH  25  26
ENDBRANCH  24  25
ENDBRANCH  21  24
ENDBRANCH  20  21
ENDBRANCH   1  20
TORSDOF 11
ENDMDL
MODEL 7
REMARK VINA RESULT:      -9.7      7.929     14.752
REMARK  Name = 2585
REMARK  11 active torsions:
REMARK  status: ('A' for Active; 'I' for Inactive)
REMARK    1  A    between atoms: C_1  and  O_2
REMARK    2  A    between atoms: C_1  and  C_4
REMARK    3  A    between atoms: C_1  and  C_20
REMARK    4  A    between atoms: C_4  and  O_5
REMARK    5  A    between atoms: O_5  and  C_11
REMARK    6  A    between atoms: C_20  and  N_21
REMARK    7  A    between atoms: N_21  and  C_24
REMARK    8  A    between atoms: C_24  and  C_25
REMARK    9  A    between atoms: C_25  and  O_26
REMARK   10  A    between atoms: O_26  and  C_27
REMARK   11  A    between atoms: C_28  and  O_33
REMARK                            x       y       z     vdW  Elec       q    Type
REMARK                         _______ _______ _______ _____ _____    ______ ____
ROOT
ATOM      1  C   UNL     1      34.196 -10.912 -24.166  0.00  0.00    +0.133 C 
ENDROOT
BRANCH   1   2
ATOM      2  O   UNL     1      35.344 -10.096 -24.418  0.00  0.00    -0.383 OA
ATOM      3  H   UNL     1      35.392  -9.891 -25.365  0.00  0.00    +0.210 HD
ENDBRANCH   1   2
BRANCH   1   4
ATOM      4  C   UNL     1      33.041 -10.008 -23.742  0.00  0.00    +0.232 C 
BRANCH   4   5
ATOM      5  O   UNL     1      33.524  -8.676 -23.610  0.00  0.00    -0.473 OA
BRANCH   5  11
ATOM      6  N   UNL     1      31.554  -4.635 -22.398  0.00  0.00    -0.353 N 
ATOM      7  C   UNL     1      32.488  -6.592 -22.915  0.00  0.00    +0.051 A 
ATOM      8  C   UNL     1      32.485  -5.763 -24.081  0.00  0.00    +0.020 A 
ATOM      9  C   UNL     1      31.901  -5.861 -21.882  0.00  0.00    +0.060 A 
ATOM     10  C   UNL     1      31.895  -4.549 -23.727  0.00  0.00    +0.057 A 
ATOM     11  C   UNL     1      32.939  -7.901 -22.643  0.00  0.00    +0.140 C 
ATOM     12  C   UNL     1      31.741  -6.372 -20.589  0.00  0.00    +0.017 C 
ATOM     13  C   UNL     1      32.930  -5.934 -25.409  0.00  0.00    +0.002 C 
ATOM     14  C   UNL     1      32.785  -8.426 -21.355  0.00  0.00    +0.037 C 
ATOM     15  C   UNL     1      31.728  -3.496 -24.634  0.00  0.00    +0.017 C 
ATOM     16  C   UNL     1      32.196  -7.671 -20.345  0.00  0.00    +0.005 C 
ATOM     17  C   UNL     1      32.770  -4.890 -26.327  0.00  0.00    +0.000 C 
ATOM     18  C   UNL     1      32.178  -3.689 -25.943  0.00  0.00    +0.001 C 
ATOM     19  H   UNL     1      31.120  -3.916 -21.885  0.00  0.00    +0.166 HD
ENDBRANCH   5  11
ENDBRANCH   4   5
ENDBRANCH   1   4
BRANCH   1  20
ATOM     20  C   UNL     1      33.899 -11.723 -25.430  0.00  0.00    -0.048 C 
BRANCH  20  21
ATOM     21  N   UNL     1      33.531 -13.099 -25.124  0.00  0.00    +0.388 N 
ATOM     22  H   UNL     1      32.782 -13.097 -24.431  0.00  0.00    -0.084 HD
ATOM     23  H   UNL     1      34.352 -13.583 -24.761  0.00  0.00    -0.084 HD
BRANCH  21  24
ATOM     24  C   UNL     1      33.072 -13.793 -26.319  0.00  0.00    -0.033 C 
BRANCH  24  25
ATOM     25  C   UNL     1      33.039 -15.296 -26.088  0.00  0.00    +0.182 C 
BRANCH  25  26
ATOM     26  O   UNL     1      34.371 -15.757 -25.896  0.00  0.00    -0.475 OA
BRANCH  26  27
ATOM     27  C   UNL     1      34.563 -16.701 -24.922  0.00  0.00    +0.172 C 
ATOM     28  C   UNL     1      34.890 -16.321 -23.621  0.00  0.00    +0.172 C 
ATOM     29  C   UNL     1      34.429 -18.052 -25.241  0.00  0.00    +0.040 C 
ATOM     30  C   UNL     1      35.083 -17.292 -22.638  0.00  0.00    +0.040 C 
ATOM     31  C   UNL     1      34.622 -19.024 -24.259  0.00  0.00    +0.003 C 
ATOM     32  C   UNL     1      34.949 -18.644 -22.958  0.00  0.00    +0.003 C 
BRANCH  28  33
ATOM     33  O   UNL     1      35.022 -15.005 -23.296  0.00  0.00    -0.468 OA
ATOM     34  C   UNL     1      34.363 -14.559 -22.112  0.00  0.00    +0.253 C 
ENDBRANCH  28  33
ENDBRANCH  26  27
ENDBRANCH  25  26
ENDBRANCH  24  25
ENDBRANCH  21  24
ENDBRANCH  20  21
ENDBRANCH   1  20
TORSDOF 11
ENDMDL
MODEL 8
REMARK VINA RESULT:      -9.7      1.421      3.388
REMARK  Name = 2585
REMARK  11 active torsions:
REMARK  status: ('A' for Active; 'I' for Inactive)
REMARK    1  A    between atoms: C_1  and  O_2
REMARK    2  A    between atoms: C_1  and  C_4
REMARK    3  A    between atoms: C_1  and  C_20
REMARK    4  A    between atoms: C_4  and  O_5
REMARK    5  A    between atoms: O_5  and  C_11
REMARK    6  A    between atoms: C_20  and  N_21
REMARK    7  A    between atoms: N_21  and  C_24
REMARK    8  A    between atoms: C_24  and  C_25
REMARK    9  A    between atoms: C_25  and  O_26
REMARK   10  A    between atoms: O_26  and  C_27
REMARK   11  A    between atoms: C_28  and  O_33
REMARK                            x       y       z     vdW  Elec       q    Type
REMARK                         _______ _______ _______ _____ _____    ______ ____
ROOT
ATOM      1  C   UNL     1      35.308 -21.924 -19.410  0.00  0.00    +0.133 C 
ENDROOT
BRANCH   1   2
ATOM      2  O   UNL     1      36.242 -21.724 -18.345  0.00  0.00    -0.383 OA
ATOM      3  H   UNL     1      36.738 -22.543 -18.192  0.00  0.00    +0.210 HD
ENDBRANCH   1   2
BRANCH   1   4
ATOM      4  C   UNL     1      33.988 -22.408 -18.814  0.00  0.00    +0.232 C 
BRANCH   4   5
ATOM      5  O   UNL     1      34.267 -23.362 -17.795  0.00  0.00    -0.473 OA
BRANCH   5  11
ATOM      6  N   UNL     1      33.825 -23.686 -13.171  0.00  0.00    -0.353 N 
ATOM      7  C   UNL     1      33.970 -23.521 -15.389  0.00  0.00    +0.051 A 
ATOM      8  C   UNL     1      35.278 -23.756 -14.860  0.00  0.00    +0.020 A 
ATOM      9  C   UNL     1      33.085 -23.483 -14.311  0.00  0.00    +0.060 A 
ATOM     10  C   UNL     1      35.155 -23.854 -13.474  0.00  0.00    +0.057 A 
ATOM     11  C   UNL     1      33.456 -23.338 -16.691  0.00  0.00    +0.140 C 
ATOM     12  C   UNL     1      31.711 -23.270 -14.468  0.00  0.00    +0.017 C 
ATOM     13  C   UNL     1      36.559 -23.894 -15.435  0.00  0.00    +0.002 C 
ATOM     14  C   UNL     1      32.083 -23.123 -16.862  0.00  0.00    +0.037 C 
ATOM     15  C   UNL     1      36.249 -24.084 -12.632  0.00  0.00    +0.017 C 
ATOM     16  C   UNL     1      31.226 -23.091 -15.766  0.00  0.00    +0.005 C 
ATOM     17  C   UNL     1      37.662 -24.124 -14.606  0.00  0.00    +0.000 C 
ATOM     18  C   UNL     1      37.507 -24.218 -13.224  0.00  0.00    +0.001 C 
ATOM     19  H   UNL     1      33.452 -23.710 -12.260  0.00  0.00    +0.166 HD
ENDBRANCH   5  11
ENDBRANCH   4   5
ENDBRANCH   1   4
BRANCH   1  20
ATOM     20  C   UNL     1      35.178 -20.610 -20.184  0.00  0.00    -0.048 C 
BRANCH  20  21
ATOM     21  N   UNL     1      36.389 -19.804 -20.102  0.00  0.00    +0.388 N 
ATOM     22  H   UNL     1      37.202 -20.413 -20.196  0.00  0.00    -0.084 HD
ATOM     23  H   UNL     1      36.402 -19.328 -19.200  0.00  0.00    -0.084 HD
BRANCH  21  24
ATOM     24  C   UNL     1      36.420 -18.801 -21.159  0.00  0.00    -0.033 C 
BRANCH  24  25
ATOM     25  C   UNL     1      35.050 -18.167 -21.337  0.00  0.00    +0.182 C 
BRANCH  25  26
ATOM     26  O   UNL     1      35.221 -16.819 -21.756  0.00  0.00    -0.475 OA
BRANCH  26  27
ATOM     27  C   UNL     1      34.732 -16.491 -22.994  0.00  0.00    +0.172 C 
ATOM     28  C   UNL     1      34.062 -15.285 -23.194  0.00  0.00    +0.172 C 
ATOM     29  C   UNL     1      34.912 -17.374 -24.058  0.00  0.00    +0.040 C 
ATOM     30  C   UNL     1      33.569 -14.962 -24.459  0.00  0.00    +0.040 C 
ATOM     31  C   UNL     1      34.419 -17.052 -25.323  0.00  0.00    +0.003 C 
ATOM     32  C   UNL     1      33.748 -15.847 -25.523  0.00  0.00    +0.003 C 
BRANCH  28  33
ATOM     33  O   UNL     1      33.882 -14.412 -22.163  0.00  0.00    -0.468 OA
ATOM     34  C   UNL     1      32.589 -14.375 -21.563  0.00  0.00    +0.253 C 
ENDBRANCH  28  33
ENDBRANCH  26  27
ENDBRANCH  25  26
ENDBRANCH  24  25
ENDBRANCH  21  24
ENDBRANCH  20  21
ENDBRANCH   1  20
TORSDOF 11
ENDMDL
MODEL 9
REMARK VINA RESULT:      -9.7      7.692     12.553
REMARK  Name = 2585
REMARK  11 active torsions:
REMARK  status: ('A' for Active; 'I' for Inactive)
REMARK    1  A    between atoms: C_1  and  O_2
REMARK    2  A    between atoms: C_1  and  C_4
REMARK    3  A    between atoms: C_1  and  C_20
REMARK    4  A    between atoms: C_4  and  O_5
REMARK    5  A    between atoms: O_5  and  C_11
REMARK    6  A    between atoms: C_20  and  N_21
REMARK    7  A    between atoms: N_21  and  C_24
REMARK    8  A    between atoms: C_24  and  C_25
REMARK    9  A    between atoms: C_25  and  O_26
REMARK   10  A    between atoms: O_26  and  C_27
REMARK   11  A    between atoms: C_28  and  O_33
REMARK                            x       y       z     vdW  Elec       q    Type
REMARK                         _______ _______ _______ _____ _____    ______ ____
ROOT
ATOM      1  C   UNL     1      33.427 -12.357 -24.378  0.00  0.00    +0.133 C 
ENDROOT
BRANCH   1   2
ATOM      2  O   UNL     1      34.434 -13.069 -23.653  0.00  0.00    -0.383 OA
ATOM      3  H   UNL     1      34.302 -12.938 -22.702  0.00  0.00    +0.210 HD
ENDBRANCH   1   2
BRANCH   1   4
ATOM      4  C   UNL     1      33.175 -11.023 -23.677  0.00  0.00    +0.232 C 
BRANCH   4   5
ATOM      5  O   UNL     1      31.889 -11.059 -23.070  0.00  0.00    -0.473 OA
BRANCH   5  11
ATOM      6  N   UNL     1      31.853  -7.984 -19.574  0.00  0.00    -0.353 N 
ATOM      7  C   UNL     1      31.867  -9.506 -21.202  0.00  0.00    +0.051 A 
ATOM      8  C   UNL     1      31.949  -8.204 -21.790  0.00  0.00    +0.020 A 
ATOM      9  C   UNL     1      31.809  -9.335 -19.819  0.00  0.00    +0.060 A 
ATOM     10  C   UNL     1      31.938  -7.275 -20.749  0.00  0.00    +0.057 A 
ATOM     11  C   UNL     1      31.837 -10.817 -21.722  0.00  0.00    +0.140 C 
ATOM     12  C   UNL     1      31.723 -10.410 -18.927  0.00  0.00    +0.017 C 
ATOM     13  C   UNL     1      32.030  -7.729 -23.117  0.00  0.00    +0.002 C 
ATOM     14  C   UNL     1      31.751 -11.902 -20.842  0.00  0.00    +0.037 C 
ATOM     15  C   UNL     1      32.005  -5.894 -20.966  0.00  0.00    +0.017 C 
ATOM     16  C   UNL     1      31.695 -11.699 -19.466  0.00  0.00    +0.005 C 
ATOM     17  C   UNL     1      32.098  -6.351 -23.349  0.00  0.00    +0.000 C 
ATOM     18  C   UNL     1      32.086  -5.448 -22.288  0.00  0.00    +0.001 C 
ATOM     19  H   UNL     1      31.829  -7.577 -18.677  0.00  0.00    +0.166 HD
ENDBRANCH   5  11
ENDBRANCH   4   5
ENDBRANCH   1   4
BRANCH   1  20
ATOM     20  C   UNL     1      33.899 -12.202 -25.825  0.00  0.00    -0.048 C 
BRANCH  20  21
ATOM     21  N   UNL     1      33.397 -13.269 -26.682  0.00  0.00    +0.388 N 
ATOM     22  H   UNL     1      34.187 -13.746 -27.117  0.00  0.00    -0.084 HD
ATOM     23  H   UNL     1      32.792 -12.858 -27.393  0.00  0.00    -0.084 HD
BRANCH  21  24
ATOM     24  C   UNL     1      32.623 -14.234 -25.912  0.00  0.00    -0.033 C 
BRANCH  24  25
ATOM     25  C   UNL     1      33.268 -15.610 -25.974  0.00  0.00    +0.182 C 
BRANCH  25  26
ATOM     26  O   UNL     1      34.358 -15.644 -25.063  0.00  0.00    -0.475 OA
BRANCH  26  27
ATOM     27  C   UNL     1      34.522 -16.795 -24.338  0.00  0.00    +0.172 C 
ATOM     28  C   UNL     1      34.639 -16.748 -22.949  0.00  0.00    +0.172 C 
ATOM     29  C   UNL     1      34.568 -18.022 -25.000  0.00  0.00    +0.040 C 
ATOM     30  C   UNL     1      34.805 -17.927 -22.223  0.00  0.00    +0.040 C 
ATOM     31  C   UNL     1      34.734 -19.202 -24.274  0.00  0.00    +0.003 C 
ATOM     32  C   UNL     1      34.852 -19.154 -22.886  0.00  0.00    +0.003 C 
BRANCH  28  33
ATOM     33  O   UNL     1      34.594 -15.557 -22.290  0.00  0.00    -0.468 OA
ATOM     34  C   UNL     1      34.656 -15.601 -20.866  0.00  0.00    +0.253 C 
ENDBRANCH  28  33
ENDBRANCH  26  27
ENDBRANCH  25  26
ENDBRANCH  24  25
ENDBRANCH  21  24
ENDBRANCH  20  21
ENDBRANCH   1  20
TORSDOF 11
ENDMDL
