MODEL 1
REMARK VINA RESULT:      -9.0      0.000      0.000
REMARK  Name = 5359
REMARK  5 active torsions:
REMARK  status: ('A' for Active; 'I' for Inactive)
REMARK    1  A    between atoms: C_1  and  C_14
REMARK    2  A    between atoms: C_4  and  C_8
REMARK    3  A    between atoms: C_8  and  C_10
REMARK    4  A    between atoms: C_14  and  C_17
REMARK    5  A    between atoms: C_17  and  O_18
REMARK                            x       y       z     vdW  Elec       q    Type
REMARK                         _______ _______ _______ _____ _____    ______ ____
ROOT
ATOM      1  C   UNL     1      34.204 -19.393 -20.933  0.00  0.00    -0.012 C 
ATOM      2  C   UNL     1      35.355 -20.094 -20.574  0.00  0.00    -0.004 C 
ATOM      3  C   UNL     1      32.947 -19.890 -20.586  0.00  0.00    -0.004 C 
ATOM      4  C   UNL     1      33.993 -21.790 -19.522  0.00  0.00    +0.039 C 
ATOM      5  C   UNL     1      35.249 -21.293 -19.869  0.00  0.00    +0.003 C 
ATOM      6  C   UNL     1      32.842 -21.088 -19.881  0.00  0.00    +0.003 C 
ENDROOT
BRANCH   4   8
ATOM      7  O   UNL     1      33.891 -24.123 -19.389  0.00  0.00    -0.286 OA
ATOM      8  C   UNL     1      33.883 -23.040 -18.786  0.00  0.00    +0.201 C 
BRANCH   8  10
ATOM      9  S   UNL     1      32.206 -23.205 -16.663  0.00  0.00    -0.083 S 
ATOM     10  C   UNL     1      33.758 -23.084 -17.298  0.00  0.00    +0.068 C 
ATOM     11  C   UNL     1      34.757 -23.039 -16.413  0.00  0.00    +0.010 C 
ATOM     12  C   UNL     1      34.235 -23.107 -15.089  0.00  0.00    +0.008 C 
ATOM     13  C   UNL     1      32.860 -23.199 -15.080  0.00  0.00    +0.036 C 
ENDBRANCH   8  10
ENDBRANCH   4   8
BRANCH   1  14
ATOM     14  C   UNL     1      34.316 -18.111 -21.687  0.00  0.00    +0.121 C 
ATOM     15  C   UNL     1      35.033 -16.988 -20.907  0.00  0.00    +0.016 C 
BRANCH  14  17
ATOM     16  O   UNL     1      34.625 -19.015 -23.934  0.00  0.00    -0.250 OA
ATOM     17  C   UNL     1      35.017 -18.277 -23.040  0.00  0.00    +0.317 C 
BRANCH  17  18
ATOM     18  O   UNL     1      36.141 -17.521 -23.155  0.00  0.00    -0.480 OA
ATOM     19  H   UNL     1      36.502 -17.345 -24.001  0.00  0.00    +0.295 HD
ENDBRANCH  17  18
ENDBRANCH  14  17
ENDBRANCH   1  14
TORSDOF 5
ENDMDL
MODEL 2
REMARK VINA RESULT:      -8.9      1.372      2.208
REMARK  Name = 5359
REMARK  5 active torsions:
REMARK  status: ('A' for Active; 'I' for Inactive)
REMARK    1  A    between atoms: C_1  and  C_14
REMARK    2  A    between atoms: C_4  and  C_8
REMARK    3  A    between atoms: C_8  and  C_10
REMARK    4  A    between atoms: C_14  and  C_17
REMARK    5  A    between atoms: C_17  and  O_18
REMARK                            x       y       z     vdW  Elec       q    Type
REMARK                         _______ _______ _______ _____ _____    ______ ____
ROOT
ATOM      1  C   UNL     1      35.254 -19.520 -20.813  0.00  0.00    -0.012 C 
ATOM      2  C   UNL     1      33.888 -19.777 -20.694  0.00  0.00    -0.004 C 
ATOM      3  C   UNL     1      36.183 -20.427 -20.300  0.00  0.00    -0.004 C 
ATOM      4  C   UNL     1      34.378 -21.847 -19.548  0.00  0.00    +0.039 C 
ATOM      5  C   UNL     1      33.451 -20.941 -20.061  0.00  0.00    +0.003 C 
ATOM      6  C   UNL     1      35.744 -21.590 -19.667  0.00  0.00    +0.003 C 
ENDROOT
BRANCH   4   8
ATOM      7  O   UNL     1      33.886 -24.134 -19.508  0.00  0.00    -0.286 OA
ATOM      8  C   UNL     1      33.922 -23.060 -18.889  0.00  0.00    +0.201 C 
BRANCH   8  10
ATOM      9  S   UNL     1      34.688 -23.143 -16.289  0.00  0.00    -0.083 S 
ATOM     10  C   UNL     1      33.483 -23.078 -17.461  0.00  0.00    +0.068 C 
ATOM     11  C   UNL     1      32.225 -23.048 -17.013  0.00  0.00    +0.010 C 
ATOM     12  C   UNL     1      32.217 -23.080 -15.589  0.00  0.00    +0.008 C 
ATOM     13  C   UNL     1      33.490 -23.132 -15.065  0.00  0.00    +0.036 C 
ENDBRANCH   8  10
ENDBRANCH   4   8
BRANCH   1  14
ATOM     14  C   UNL     1      35.723 -18.277 -21.490  0.00  0.00    +0.121 C 
ATOM     15  C   UNL     1      35.724 -18.366 -23.031  0.00  0.00    +0.016 C 
BRANCH  14  17
ATOM     16  O   UNL     1      35.119 -16.385 -20.067  0.00  0.00    -0.250 OA
ATOM     17  C   UNL     1      34.917 -17.039 -21.083  0.00  0.00    +0.317 C 
BRANCH  17  18
ATOM     18  O   UNL     1      33.929 -16.732 -21.965  0.00  0.00    -0.480 OA
ATOM     19  H   UNL     1      33.844 -15.856 -22.286  0.00  0.00    +0.295 HD
ENDBRANCH  17  18
ENDBRANCH  14  17
ENDBRANCH   1  14
TORSDOF 5
ENDMDL
MODEL 3
REMARK VINA RESULT:      -8.8      1.194      1.651
REMARK  Name = 5359
REMARK  5 active torsions:
REMARK  status: ('A' for Active; 'I' for Inactive)
REMARK    1  A    between atoms: C_1  and  C_14
REMARK    2  A    between atoms: C_4  and  C_8
REMARK    3  A    between atoms: C_8  and  C_10
REMARK    4  A    between atoms: C_14  and  C_17
REMARK    5  A    between atoms: C_17  and  O_18
REMARK                            x       y       z     vdW  Elec       q    Type
REMARK                         _______ _______ _______ _____ _____    ______ ____
ROOT
ATOM      1  C   UNL     1      35.177 -19.322 -20.974  0.00  0.00    -0.012 C 
ATOM      2  C   UNL     1      36.176 -20.153 -20.466  0.00  0.00    -0.004 C 
ATOM      3  C   UNL     1      33.834 -19.659 -20.804  0.00  0.00    -0.004 C 
ATOM      4  C   UNL     1      34.488 -21.660 -19.618  0.00  0.00    +0.039 C 
ATOM      5  C   UNL     1      35.831 -21.322 -19.789  0.00  0.00    +0.003 C 
ATOM      6  C   UNL     1      33.490 -20.828 -20.126  0.00  0.00    +0.003 C 
ENDROOT
BRANCH   4   8
ATOM      7  O   UNL     1      33.862 -23.913 -19.543  0.00  0.00    -0.286 OA
ATOM      8  C   UNL     1      34.129 -22.879 -18.912  0.00  0.00    +0.201 C 
BRANCH   8  10
ATOM      9  S   UNL     1      32.560 -23.256 -16.733  0.00  0.00    -0.083 S 
ATOM     10  C   UNL     1      34.064 -22.951 -17.421  0.00  0.00    +0.068 C 
ATOM     11  C   UNL     1      35.082 -22.797 -16.570  0.00  0.00    +0.010 C 
ATOM     12  C   UNL     1      34.619 -22.936 -15.230  0.00  0.00    +0.008 C 
ATOM     13  C   UNL     1      33.266 -23.188 -15.174  0.00  0.00    +0.036 C 
ENDBRANCH   8  10
ENDBRANCH   4   8
BRANCH   1  14
ATOM     14  C   UNL     1      35.545 -18.071 -21.699  0.00  0.00    +0.121 C 
ATOM     15  C   UNL     1      35.283 -18.129 -23.218  0.00  0.00    +0.016 C 
BRANCH  14  17
ATOM     16  O   UNL     1      35.089 -16.329 -20.049  0.00  0.00    -0.250 OA
ATOM     17  C   UNL     1      34.841 -16.831 -21.138  0.00  0.00    +0.317 C 
BRANCH  17  18
ATOM     18  O   UNL     1      33.889 -16.334 -21.972  0.00  0.00    -0.480 OA
ATOM     19  H   UNL     1      33.286 -15.688 -21.663  0.00  0.00    +0.295 HD
ENDBRANCH  17  18
ENDBRANCH  14  17
ENDBRANCH   1  14
TORSDOF 5
ENDMDL
MODEL 4
REMARK VINA RESULT:      -8.7      1.274      1.456
REMARK  Name = 5359
REMARK  5 active torsions:
REMARK  status: ('A' for Active; 'I' for Inactive)
REMARK    1  A    between atoms: C_1  and  C_14
REMARK    2  A    between atoms: C_4  and  C_8
REMARK    3  A    between atoms: C_8  and  C_10
REMARK    4  A    between atoms: C_14  and  C_17
REMARK    5  A    between atoms: C_17  and  O_18
REMARK                            x       y       z     vdW  Elec       q    Type
REMARK                         _______ _______ _______ _____ _____    ______ ____
ROOT
ATOM      1  C   UNL     1      34.401 -19.163 -21.284  0.00  0.00    -0.012 C 
ATOM      2  C   UNL     1      35.623 -19.715 -20.899  0.00  0.00    -0.004 C 
ATOM      3  C   UNL     1      33.207 -19.715 -20.818  0.00  0.00    -0.004 C 
ATOM      4  C   UNL     1      34.458 -21.370 -19.579  0.00  0.00    +0.039 C 
ATOM      5  C   UNL     1      35.651 -20.818 -20.046  0.00  0.00    +0.003 C 
ATOM      6  C   UNL     1      33.237 -20.819 -19.965  0.00  0.00    +0.003 C 
ENDROOT
BRANCH   4   8
ATOM      7  O   UNL     1      33.831 -23.537 -18.960  0.00  0.00    -0.286 OA
ATOM      8  C   UNL     1      34.488 -22.521 -18.690  0.00  0.00    +0.201 C 
BRANCH   8  10
ATOM      9  S   UNL     1      34.584 -23.236 -16.077  0.00  0.00    -0.083 S 
ATOM     10  C   UNL     1      35.295 -22.541 -17.433  0.00  0.00    +0.068 C 
ATOM     11  C   UNL     1      36.531 -22.061 -17.272  0.00  0.00    +0.010 C 
ATOM     12  C   UNL     1      36.959 -22.267 -15.929  0.00  0.00    +0.008 C 
ATOM     13  C   UNL     1      35.996 -22.897 -15.170  0.00  0.00    +0.036 C 
ENDBRANCH   8  10
ENDBRANCH   4   8
BRANCH   1  14
ATOM     14  C   UNL     1      34.370 -17.983 -22.195  0.00  0.00    +0.121 C 
ATOM     15  C   UNL     1      35.095 -16.742 -21.635  0.00  0.00    +0.016 C 
BRANCH  14  17
ATOM     16  O   UNL     1      34.916 -19.389 -24.116  0.00  0.00    -0.250 OA
ATOM     17  C   UNL     1      34.945 -18.288 -23.583  0.00  0.00    +0.317 C 
BRANCH  17  18
ATOM     18  O   UNL     1      35.511 -17.203 -24.176  0.00  0.00    -0.480 OA
ATOM     19  H   UNL     1      34.976 -16.484 -24.443  0.00  0.00    +0.295 HD
ENDBRANCH  17  18
ENDBRANCH  14  17
ENDBRANCH   1  14
TORSDOF 5
ENDMDL
MODEL 5
REMARK VINA RESULT:      -8.7      3.264      7.324
REMARK  Name = 5359
REMARK  5 active torsions:
REMARK  status: ('A' for Active; 'I' for Inactive)
REMARK    1  A    between atoms: C_1  and  C_14
REMARK    2  A    between atoms: C_4  and  C_8
REMARK    3  A    between atoms: C_8  and  C_10
REMARK    4  A    between atoms: C_14  and  C_17
REMARK    5  A    between atoms: C_17  and  O_18
REMARK                            x       y       z     vdW  Elec       q    Type
REMARK                         _______ _______ _______ _____ _____    ______ ____
ROOT
ATOM      1  C   UNL     1      35.180 -20.735 -20.050  0.00  0.00    -0.012 C 
ATOM      2  C   UNL     1      33.919 -20.237 -20.377  0.00  0.00    -0.004 C 
ATOM      3  C   UNL     1      36.322 -19.984 -20.331  0.00  0.00    -0.004 C 
ATOM      4  C   UNL     1      34.940 -18.237 -21.267  0.00  0.00    +0.039 C 
ATOM      5  C   UNL     1      33.799 -18.988 -20.986  0.00  0.00    +0.003 C 
ATOM      6  C   UNL     1      36.201 -18.735 -20.940  0.00  0.00    +0.003 C 
ENDROOT
BRANCH   4   8
ATOM      7  O   UNL     1      34.923 -15.898 -21.231  0.00  0.00    -0.286 OA
ATOM      8  C   UNL     1      34.816 -16.935 -21.903  0.00  0.00    +0.201 C 
BRANCH   8  10
ATOM      9  S   UNL     1      33.833 -15.349 -23.869  0.00  0.00    -0.083 S 
ATOM     10  C   UNL     1      34.560 -16.779 -23.366  0.00  0.00    +0.068 C 
ATOM     11  C   UNL     1      34.849 -17.664 -24.325  0.00  0.00    +0.010 C 
ATOM     12  C   UNL     1      34.452 -17.150 -25.593  0.00  0.00    +0.008 C 
ATOM     13  C   UNL     1      33.884 -15.899 -25.490  0.00  0.00    +0.036 C 
ENDBRANCH   8  10
ENDBRANCH   4   8
BRANCH   1  14
ATOM     14  C   UNL     1      35.308 -22.070 -19.398  0.00  0.00    +0.121 C 
ATOM     15  C   UNL     1      35.978 -22.025 -18.008  0.00  0.00    +0.016 C 
BRANCH  14  17
ATOM     16  O   UNL     1      32.984 -22.329 -18.694  0.00  0.00    -0.250 OA
ATOM     17  C   UNL     1      33.965 -22.795 -19.259  0.00  0.00    +0.317 C 
BRANCH  17  18
ATOM     18  O   UNL     1      33.965 -24.032 -19.822  0.00  0.00    -0.480 OA
ATOM     19  H   UNL     1      34.665 -24.288 -20.389  0.00  0.00    +0.295 HD
ENDBRANCH  17  18
ENDBRANCH  14  17
ENDBRANCH   1  14
TORSDOF 5
ENDMDL
MODEL 6
REMARK VINA RESULT:      -8.7      3.078      6.923
REMARK  Name = 5359
REMARK  5 active torsions:
REMARK  status: ('A' for Active; 'I' for Inactive)
REMARK    1  A    between atoms: C_1  and  C_14
REMARK    2  A    between atoms: C_4  and  C_8
REMARK    3  A    between atoms: C_8  and  C_10
REMARK    4  A    between atoms: C_14  and  C_17
REMARK    5  A    between atoms: C_17  and  O_18
REMARK                            x       y       z     vdW  Elec       q    Type
REMARK                         _______ _______ _______ _____ _____    ______ ____
ROOT
ATOM      1  C   UNL     1      35.292 -20.685 -20.158  0.00  0.00    -0.012 C 
ATOM      2  C   UNL     1      34.027 -20.294 -20.597  0.00  0.00    -0.004 C 
ATOM      3  C   UNL     1      36.406 -19.897 -20.450  0.00  0.00    -0.004 C 
ATOM      4  C   UNL     1      34.989 -18.328 -21.620  0.00  0.00    +0.039 C 
ATOM      5  C   UNL     1      33.876 -19.116 -21.328  0.00  0.00    +0.003 C 
ATOM      6  C   UNL     1      36.254 -18.718 -21.180  0.00  0.00    +0.003 C 
ENDROOT
BRANCH   4   8
ATOM      7  O   UNL     1      35.400 -16.964 -23.475  0.00  0.00    -0.286 OA
ATOM      8  C   UNL     1      34.832 -17.099 -22.382  0.00  0.00    +0.201 C 
BRANCH   8  10
ATOM      9  S   UNL     1      33.384 -14.911 -23.064  0.00  0.00    -0.083 S 
ATOM     10  C   UNL     1      33.994 -15.960 -21.900  0.00  0.00    +0.068 C 
ATOM     11  C   UNL     1      33.676 -15.685 -20.632  0.00  0.00    +0.010 C 
ATOM     12  C   UNL     1      32.862 -14.517 -20.579  0.00  0.00    +0.008 C 
ATOM     13  C   UNL     1      32.626 -13.995 -21.832  0.00  0.00    +0.036 C 
ENDBRANCH   8  10
ENDBRANCH   4   8
BRANCH   1  14
ATOM     14  C   UNL     1      35.455 -21.944 -19.376  0.00  0.00    +0.121 C 
ATOM     15  C   UNL     1      36.221 -21.761 -18.049  0.00  0.00    +0.016 C 
BRANCH  14  17
ATOM     16  O   UNL     1      33.262 -22.167 -18.323  0.00  0.00    -0.250 OA
ATOM     17  C   UNL     1      34.118 -22.628 -19.067  0.00  0.00    +0.317 C 
BRANCH  17  18
ATOM     18  O   UNL     1      33.971 -23.822 -19.699  0.00  0.00    -0.480 OA
ATOM     19  H   UNL     1      33.370 -23.903 -20.413  0.00  0.00    +0.295 HD
ENDBRANCH  17  18
ENDBRANCH  14  17
ENDBRANCH   1  14
TORSDOF 5
ENDMDL
MODEL 7
REMARK VINA RESULT:      -8.5      3.346      5.519
REMARK  Name = 5359
REMARK  5 active torsions:
REMARK  status: ('A' for Active; 'I' for Inactive)
REMARK    1  A    between atoms: C_1  and  C_14
REMARK    2  A    between atoms: C_4  and  C_8
REMARK    3  A    between atoms: C_8  and  C_10
REMARK    4  A    between atoms: C_14  and  C_17
REMARK    5  A    between atoms: C_17  and  O_18
REMARK                            x       y       z     vdW  Elec       q    Type
REMARK                         _______ _______ _______ _____ _____    ______ ____
ROOT
ATOM      1  C   UNL     1      33.838 -15.557 -24.086  0.00  0.00    -0.012 C 
ATOM      2  C   UNL     1      34.009 -15.379 -22.713  0.00  0.00    -0.004 C 
ATOM      3  C   UNL     1      34.305 -16.718 -24.703  0.00  0.00    -0.004 C 
ATOM      4  C   UNL     1      35.116 -17.522 -22.574  0.00  0.00    +0.039 C 
ATOM      5  C   UNL     1      34.649 -16.362 -21.958  0.00  0.00    +0.003 C 
ATOM      6  C   UNL     1      34.944 -17.700 -23.947  0.00  0.00    +0.003 C 
ENDROOT
BRANCH   4   8
ATOM      7  O   UNL     1      37.021 -18.596 -21.744  0.00  0.00    -0.286 OA
ATOM      8  C   UNL     1      35.783 -18.547 -21.786  0.00  0.00    +0.201 C 
BRANCH   8  10
ATOM      9  S   UNL     1      35.933 -20.734 -20.192  0.00  0.00    -0.083 S 
ATOM     10  C   UNL     1      35.029 -19.571 -21.002  0.00  0.00    +0.068 C 
ATOM     11  C   UNL     1      33.702 -19.662 -20.877  0.00  0.00    +0.010 C 
ATOM     12  C   UNL     1      33.368 -20.772 -20.049  0.00  0.00    +0.008 C 
ATOM     13  C   UNL     1      34.488 -21.443 -19.608  0.00  0.00    +0.036 C 
ENDBRANCH   8  10
ENDBRANCH   4   8
BRANCH   1  14
ATOM     14  C   UNL     1      33.153 -14.507 -24.894  0.00  0.00    +0.121 C 
ATOM     15  C   UNL     1      33.733 -13.091 -24.698  0.00  0.00    +0.016 C 
BRANCH  14  17
ATOM     16  O   UNL     1      33.858 -14.255 -27.219  0.00  0.00    -0.250 OA
ATOM     17  C   UNL     1      33.152 -14.820 -26.395  0.00  0.00    +0.317 C 
BRANCH  17  18
ATOM     18  O   UNL     1      32.269 -15.797 -26.735  0.00  0.00    -0.480 OA
ATOM     19  H   UNL     1      31.400 -15.570 -27.000  0.00  0.00    +0.295 HD
ENDBRANCH  17  18
ENDBRANCH  14  17
ENDBRANCH   1  14
TORSDOF 5
ENDMDL
MODEL 8
REMARK VINA RESULT:      -8.5      2.889      4.850
REMARK  Name = 5359
REMARK  5 active torsions:
REMARK  status: ('A' for Active; 'I' for Inactive)
REMARK    1  A    between atoms: C_1  and  C_14
REMARK    2  A    between atoms: C_4  and  C_8
REMARK    3  A    between atoms: C_8  and  C_10
REMARK    4  A    between atoms: C_14  and  C_17
REMARK    5  A    between atoms: C_17  and  O_18
REMARK                            x       y       z     vdW  Elec       q    Type
REMARK                         _______ _______ _______ _____ _____    ______ ____
ROOT
ATOM      1  C   UNL     1      34.651 -16.140 -23.591  0.00  0.00    -0.012 C 
ATOM      2  C   UNL     1      34.713 -15.916 -22.216  0.00  0.00    -0.004 C 
ATOM      3  C   UNL     1      34.985 -17.391 -24.111  0.00  0.00    -0.004 C 
ATOM      4  C   UNL     1      35.444 -18.195 -21.880  0.00  0.00    +0.039 C 
ATOM      5  C   UNL     1      35.110 -16.944 -21.360  0.00  0.00    +0.003 C 
ATOM      6  C   UNL     1      35.381 -18.418 -23.255  0.00  0.00    +0.003 C 
ENDROOT
BRANCH   4   8
ATOM      7  O   UNL     1      37.052 -19.397 -20.680  0.00  0.00    -0.286 OA
ATOM      8  C   UNL     1      35.858 -19.266 -20.988  0.00  0.00    +0.201 C 
BRANCH   8  10
ATOM      9  S   UNL     1      35.529 -21.529 -19.533  0.00  0.00    -0.083 S 
ATOM     10  C   UNL     1      34.889 -20.244 -20.407  0.00  0.00    +0.068 C 
ATOM     11  C   UNL     1      33.557 -20.204 -20.510  0.00  0.00    +0.010 C 
ATOM     12  C   UNL     1      32.985 -21.311 -19.822  0.00  0.00    +0.008 C 
ATOM     13  C   UNL     1      33.945 -22.113 -19.244  0.00  0.00    +0.036 C 
ENDBRANCH   8  10
ENDBRANCH   4   8
BRANCH   1  14
ATOM     14  C   UNL     1      34.226 -15.042 -24.506  0.00  0.00    +0.121 C 
ATOM     15  C   UNL     1      33.332 -15.511 -25.673  0.00  0.00    +0.016 C 
BRANCH  14  17
ATOM     16  O   UNL     1      32.354 -13.977 -23.353  0.00  0.00    -0.250 OA
ATOM     17  C   UNL     1      33.501 -13.906 -23.775  0.00  0.00    +0.317 C 
BRANCH  17  18
ATOM     18  O   UNL     1      34.260 -12.785 -23.645  0.00  0.00    -0.480 OA
ATOM     19  H   UNL     1      35.189 -12.858 -23.554  0.00  0.00    +0.295 HD
ENDBRANCH  17  18
ENDBRANCH  14  17
ENDBRANCH   1  14
TORSDOF 5
ENDMDL
MODEL 9
REMARK VINA RESULT:      -8.3      3.213      5.221
REMARK  Name = 5359
REMARK  5 active torsions:
REMARK  status: ('A' for Active; 'I' for Inactive)
REMARK    1  A    between atoms: C_1  and  C_14
REMARK    2  A    between atoms: C_4  and  C_8
REMARK    3  A    between atoms: C_8  and  C_10
REMARK    4  A    between atoms: C_14  and  C_17
REMARK    5  A    between atoms: C_17  and  O_18
REMARK                            x       y       z     vdW  Elec       q    Type
REMARK                         _______ _______ _______ _____ _____    ______ ____
ROOT
ATOM      1  C   UNL     1      34.365 -15.481 -23.293  0.00  0.00    -0.012 C 
ATOM      2  C   UNL     1      34.716 -16.635 -23.993  0.00  0.00    -0.004 C 
ATOM      3  C   UNL     1      34.500 -15.439 -21.905  0.00  0.00    -0.004 C 
ATOM      4  C   UNL     1      35.339 -17.704 -21.918  0.00  0.00    +0.039 C 
ATOM      5  C   UNL     1      35.203 -17.747 -23.306  0.00  0.00    +0.003 C 
ATOM      6  C   UNL     1      34.987 -16.550 -21.218  0.00  0.00    +0.003 C 
ENDROOT
BRANCH   4   8
ATOM      7  O   UNL     1      37.067 -19.028 -21.062  0.00  0.00    -0.286 OA
ATOM      8  C   UNL     1      35.846 -18.864 -21.202  0.00  0.00    +0.201 C 
BRANCH   8  10
ATOM      9  S   UNL     1      35.672 -21.170 -19.788  0.00  0.00    -0.083 S 
ATOM     10  C   UNL     1      34.944 -19.895 -20.607  0.00  0.00    +0.068 C 
ATOM     11  C   UNL     1      33.609 -19.911 -20.658  0.00  0.00    +0.010 C 
ATOM     12  C   UNL     1      33.112 -21.058 -19.974  0.00  0.00    +0.008 C 
ATOM     13  C   UNL     1      34.128 -21.829 -19.452  0.00  0.00    +0.036 C 
ENDBRANCH   8  10
ENDBRANCH   4   8
BRANCH   1  14
ATOM     14  C   UNL     1      33.845 -14.292 -24.027  0.00  0.00    +0.121 C 
ATOM     15  C   UNL     1      33.125 -14.638 -25.348  0.00  0.00    +0.016 C 
BRANCH  14  17
ATOM     16  O   UNL     1      31.994 -13.883 -22.487  0.00  0.00    -0.250 OA
ATOM     17  C   UNL     1      32.900 -13.435 -23.177  0.00  0.00    +0.317 C 
BRANCH  17  18
ATOM     18  O   UNL     1      33.159 -12.103 -23.270  0.00  0.00    -0.480 OA
ATOM     19  H   UNL     1      32.479 -11.511 -23.521  0.00  0.00    +0.295 HD
ENDBRANCH  17  18
ENDBRANCH  14  17
ENDBRANCH   1  14
TORSDOF 5
ENDMDL
