MODEL 1
REMARK VINA RESULT:      -8.0      0.000      0.000
REMARK  Name = 102146
REMARK  1 active torsions:
REMARK  status: ('A' for Active; 'I' for Inactive)
REMARK    1  A    between atoms: C_6  and  O_23
REMARK                            x       y       z     vdW  Elec       q    Type
REMARK                         _______ _______ _______ _____ _____    ______ ____
ROOT
ATOM      1  O   UNL     1      33.660 -19.004 -21.246  0.00  0.00    -0.291 OA
ATOM      2  C   UNL     1      36.427 -23.233 -15.481  0.00  0.00    +0.002 C 
ATOM      3  C   UNL     1      35.479 -24.282 -14.858  0.00  0.00    +0.023 C 
ATOM      4  C   UNL     1      36.183 -23.009 -16.982  0.00  0.00    +0.001 C 
ATOM      5  C   UNL     1      34.706 -22.542 -17.199  0.00  0.00    +0.003 C 
ATOM      6  C   UNL     1      36.052 -24.363 -13.409  0.00  0.00    +0.088 C 
ATOM      7  C   UNL     1      34.356 -22.288 -18.718  0.00  0.00    +0.016 C 
ATOM      8  C   UNL     1      34.044 -23.754 -15.008  0.00  0.00    +0.002 C 
ATOM      9  C   UNL     1      33.689 -23.473 -16.479  0.00  0.00    +0.000 C 
ATOM     10  C   UNL     1      37.809 -23.698 -15.034  0.00  0.00    +0.002 C 
ATOM     11  C   UNL     1      37.195 -22.028 -17.628  0.00  0.00    +0.004 C 
ATOM     12  C   UNL     1      37.586 -24.291 -13.630  0.00  0.00    +0.027 C 
ATOM     13  C   UNL     1      36.881 -21.884 -19.123  0.00  0.00    +0.022 C 
ATOM     14  C   UNL     1      35.457 -21.449 -19.379  0.00  0.00    -0.042 C 
ATOM     15  C   UNL     1      35.573 -25.684 -15.529  0.00  0.00    +0.002 C 
ATOM     16  C   UNL     1      32.999 -21.526 -18.782  0.00  0.00    +0.012 C 
ATOM     17  C   UNL     1      35.598 -23.256 -12.449  0.00  0.00    +0.029 C 
ATOM     18  C   UNL     1      34.226 -23.609 -19.511  0.00  0.00    +0.004 C 
ATOM     19  C   UNL     1      37.277 -20.650 -16.956  0.00  0.00    +0.000 C 
ATOM     20  C   UNL     1      32.713 -20.904 -20.141  0.00  0.00    +0.069 C 
ATOM     21  C   UNL     1      35.222 -20.391 -20.173  0.00  0.00    +0.029 C 
ATOM     22  C   UNL     1      33.846 -20.001 -20.552  0.00  0.00    +0.173 C 
ENDROOT
BRANCH   6  23
ATOM     23  O   UNL     1      35.731 -25.602 -12.780  0.00  0.00    -0.387 OA
ATOM     24  H   UNL     1      35.953 -25.554 -11.837  0.00  0.00    +0.210 HD
ENDBRANCH   6  23
TORSDOF 1
ENDMDL
MODEL 2
REMARK VINA RESULT:      -7.8     15.938     20.515
REMARK  Name = 102146
REMARK  1 active torsions:
REMARK  status: ('A' for Active; 'I' for Inactive)
REMARK    1  A    between atoms: C_6  and  O_23
REMARK                            x       y       z     vdW  Elec       q    Type
REMARK                         _______ _______ _______ _____ _____    ______ ____
ROOT
ATOM      1  O   UNL     1      32.331  -7.459 -19.527  0.00  0.00    -0.291 OA
ATOM      2  C   UNL     1      32.736  -3.472 -26.064  0.00  0.00    +0.002 C 
ATOM      3  C   UNL     1      33.494  -4.124 -27.241  0.00  0.00    +0.023 C 
ATOM      4  C   UNL     1      32.028  -4.493 -25.158  0.00  0.00    +0.001 C 
ATOM      5  C   UNL     1      33.086  -5.491 -24.582  0.00  0.00    +0.003 C 
ATOM      6  C   UNL     1      33.977  -2.855 -28.010  0.00  0.00    +0.088 C 
ATOM      7  C   UNL     1      32.452  -6.585 -23.636  0.00  0.00    +0.016 C 
ATOM      8  C   UNL     1      34.583  -5.029 -26.644  0.00  0.00    +0.002 C 
ATOM      9  C   UNL     1      33.991  -6.088 -25.697  0.00  0.00    +0.000 C 
ATOM     10  C   UNL     1      31.891  -2.398 -26.741  0.00  0.00    +0.002 C 
ATOM     11  C   UNL     1      31.188  -3.835 -24.032  0.00  0.00    +0.004 C 
ATOM     12  C   UNL     1      32.760  -1.896 -27.908  0.00  0.00    +0.027 C 
ATOM     13  C   UNL     1      30.511  -4.929 -23.196  0.00  0.00    +0.022 C 
ATOM     14  C   UNL     1      31.497  -5.925 -22.633  0.00  0.00    -0.042 C 
ATOM     15  C   UNL     1      32.585  -4.978 -28.173  0.00  0.00    +0.002 C 
ATOM     16  C   UNL     1      33.609  -7.299 -22.876  0.00  0.00    +0.012 C 
ATOM     17  C   UNL     1      35.238  -2.180 -27.458  0.00  0.00    +0.029 C 
ATOM     18  C   UNL     1      31.650  -7.642 -24.430  0.00  0.00    +0.004 C 
ATOM     19  C   UNL     1      31.965  -2.867 -23.129  0.00  0.00    +0.000 C 
ATOM     20  C   UNL     1      33.141  -8.117 -21.681  0.00  0.00    +0.069 C 
ATOM     21  C   UNL     1      31.479  -6.202 -21.318  0.00  0.00    +0.029 C 
ATOM     22  C   UNL     1      32.340  -7.257 -20.740  0.00  0.00    +0.173 C 
ENDROOT
BRANCH   6  23
ATOM     23  O   UNL     1      34.233  -3.134 -29.385  0.00  0.00    -0.387 OA
ATOM     24  H   UNL     1      34.517  -2.322 -29.833  0.00  0.00    +0.210 HD
ENDBRANCH   6  23
TORSDOF 1
ENDMDL
MODEL 3
REMARK VINA RESULT:      -7.5      3.184      6.241
REMARK  Name = 102146
REMARK  1 active torsions:
REMARK  status: ('A' for Active; 'I' for Inactive)
REMARK    1  A    between atoms: C_6  and  O_23
REMARK                            x       y       z     vdW  Elec       q    Type
REMARK                         _______ _______ _______ _____ _____    ______ ____
ROOT
ATOM      1  O   UNL     1      39.590 -25.240 -14.908  0.00  0.00    -0.291 OA
ATOM      2  C   UNL     1      32.144 -23.605 -15.729  0.00  0.00    +0.002 C 
ATOM      3  C   UNL     1      31.201 -24.018 -14.578  0.00  0.00    +0.023 C 
ATOM      4  C   UNL     1      33.555 -23.225 -15.251  0.00  0.00    +0.001 C 
ATOM      5  C   UNL     1      34.187 -24.441 -14.496  0.00  0.00    +0.003 C 
ATOM      6  C   UNL     1      29.863 -24.212 -15.358  0.00  0.00    +0.088 C 
ATOM      7  C   UNL     1      35.644 -24.146 -13.962  0.00  0.00    +0.016 C 
ATOM      8  C   UNL     1      31.803 -25.266 -13.913  0.00  0.00    +0.002 C 
ATOM      9  C   UNL     1      33.234 -25.010 -13.407  0.00  0.00    +0.000 C 
ATOM     10  C   UNL     1      31.333 -22.561 -16.491  0.00  0.00    +0.002 C 
ATOM     11  C   UNL     1      34.474 -22.719 -16.394  0.00  0.00    +0.004 C 
ATOM     12  C   UNL     1      29.874 -23.041 -16.376  0.00  0.00    +0.027 C 
ATOM     13  C   UNL     1      35.847 -22.352 -15.817  0.00  0.00    +0.022 C 
ATOM     14  C   UNL     1      36.487 -23.494 -15.065  0.00  0.00    -0.042 C 
ATOM     15  C   UNL     1      31.013 -22.913 -13.497  0.00  0.00    +0.002 C 
ATOM     16  C   UNL     1      36.286 -25.498 -13.533  0.00  0.00    +0.012 C 
ATOM     17  C   UNL     1      29.703 -25.552 -16.086  0.00  0.00    +0.029 C 
ATOM     18  C   UNL     1      35.632 -23.190 -12.746  0.00  0.00    +0.004 C 
ATOM     19  C   UNL     1      34.624 -23.685 -17.577  0.00  0.00    +0.000 C 
ATOM     20  C   UNL     1      37.793 -25.423 -13.337  0.00  0.00    +0.069 C 
ATOM     21  C   UNL     1      37.743 -23.864 -15.368  0.00  0.00    +0.029 C 
ATOM     22  C   UNL     1      38.457 -24.893 -14.581  0.00  0.00    +0.173 C 
ENDROOT
BRANCH   6  23
ATOM     23  O   UNL     1      28.728 -24.075 -14.506  0.00  0.00    -0.387 OA
ATOM     24  H   UNL     1      28.551 -24.920 -14.064  0.00  0.00    +0.210 HD
ENDBRANCH   6  23
TORSDOF 1
ENDMDL
MODEL 4
REMARK VINA RESULT:      -7.1      6.315      9.720
REMARK  Name = 102146
REMARK  1 active torsions:
REMARK  status: ('A' for Active; 'I' for Inactive)
REMARK    1  A    between atoms: C_6  and  O_23
REMARK                            x       y       z     vdW  Elec       q    Type
REMARK                         _______ _______ _______ _____ _____    ______ ____
ROOT
ATOM      1  O   UNL     1      34.239 -10.567 -25.840  0.00  0.00    -0.291 OA
ATOM      2  C   UNL     1      34.705 -17.668 -22.985  0.00  0.00    +0.002 C 
ATOM      3  C   UNL     1      34.559 -17.824 -21.455  0.00  0.00    +0.023 C 
ATOM      4  C   UNL     1      33.879 -16.506 -23.559  0.00  0.00    +0.001 C 
ATOM      5  C   UNL     1      34.323 -15.171 -22.875  0.00  0.00    +0.003 C 
ATOM      6  C   UNL     1      35.392 -19.121 -21.217  0.00  0.00    +0.088 C 
ATOM      7  C   UNL     1      33.525 -13.912 -23.399  0.00  0.00    +0.016 C 
ATOM      8  C   UNL     1      35.085 -16.533 -20.808  0.00  0.00    +0.002 C 
ATOM      9  C   UNL     1      34.340 -15.289 -21.324  0.00  0.00    +0.000 C 
ATOM     10  C   UNL     1      34.435 -19.075 -23.510  0.00  0.00    +0.002 C 
ATOM     11  C   UNL     1      33.950 -16.408 -25.105  0.00  0.00    +0.004 C 
ATOM     12  C   UNL     1      35.017 -20.010 -22.434  0.00  0.00    +0.027 C 
ATOM     13  C   UNL     1      33.084 -15.233 -25.581  0.00  0.00    +0.022 C 
ATOM     14  C   UNL     1      33.470 -13.926 -24.931  0.00  0.00    -0.042 C 
ATOM     15  C   UNL     1      33.092 -18.059 -20.989  0.00  0.00    +0.002 C 
ATOM     16  C   UNL     1      34.262 -12.632 -22.906  0.00  0.00    +0.012 C 
ATOM     17  C   UNL     1      36.912 -18.934 -21.140  0.00  0.00    +0.029 C 
ATOM     18  C   UNL     1      32.072 -13.888 -22.871  0.00  0.00    +0.004 C 
ATOM     19  C   UNL     1      35.368 -16.303 -25.682  0.00  0.00    +0.000 C 
ATOM     20  C   UNL     1      33.823 -11.363 -23.621  0.00  0.00    +0.069 C 
ATOM     21  C   UNL     1      33.716 -12.853 -25.702  0.00  0.00    +0.029 C 
ATOM     22  C   UNL     1      33.977 -11.521 -25.111  0.00  0.00    +0.173 C 
ENDROOT
BRANCH   6  23
ATOM     23  O   UNL     1      35.004 -19.788 -20.018  0.00  0.00    -0.387 OA
ATOM     24  H   UNL     1      34.125 -19.480 -19.746  0.00  0.00    +0.210 HD
ENDBRANCH   6  23
TORSDOF 1
ENDMDL
MODEL 5
REMARK VINA RESULT:      -6.6      2.717      4.047
REMARK  Name = 102146
REMARK  1 active torsions:
REMARK  status: ('A' for Active; 'I' for Inactive)
REMARK    1  A    between atoms: C_6  and  O_23
REMARK                            x       y       z     vdW  Elec       q    Type
REMARK                         _______ _______ _______ _____ _____    ______ ____
ROOT
ATOM      1  O   UNL     1      29.414 -21.857 -16.817  0.00  0.00    -0.291 OA
ATOM      2  C   UNL     1      36.360 -23.822 -14.231  0.00  0.00    +0.002 C 
ATOM      3  C   UNL     1      36.444 -24.388 -12.796  0.00  0.00    +0.023 C 
ATOM      4  C   UNL     1      35.047 -24.176 -14.948  0.00  0.00    +0.001 C 
ATOM      5  C   UNL     1      33.842 -23.621 -14.119  0.00  0.00    +0.003 C 
ATOM      6  C   UNL     1      37.897 -23.972 -12.408  0.00  0.00    +0.088 C 
ATOM      7  C   UNL     1      32.441 -23.938 -14.776  0.00  0.00    +0.016 C 
ATOM      8  C   UNL     1      35.301 -23.756 -11.984  0.00  0.00    +0.002 C 
ATOM      9  C   UNL     1      33.927 -24.030 -12.620  0.00  0.00    +0.000 C 
ATOM     10  C   UNL     1      37.673 -24.271 -14.864  0.00  0.00    +0.002 C 
ATOM     11  C   UNL     1      35.001 -23.691 -16.420  0.00  0.00    +0.004 C 
ATOM     12  C   UNL     1      38.697 -24.221 -13.715  0.00  0.00    +0.027 C 
ATOM     13  C   UNL     1      33.665 -24.104 -17.051  0.00  0.00    +0.022 C 
ATOM     14  C   UNL     1      32.473 -23.601 -16.272  0.00  0.00    -0.042 C 
ATOM     15  C   UNL     1      36.313 -25.937 -12.727  0.00  0.00    +0.002 C 
ATOM     16  C   UNL     1      31.362 -23.073 -14.060  0.00  0.00    +0.012 C 
ATOM     17  C   UNL     1      38.074 -22.523 -11.940  0.00  0.00    +0.029 C 
ATOM     18  C   UNL     1      32.061 -25.430 -14.634  0.00  0.00    +0.004 C 
ATOM     19  C   UNL     1      35.249 -22.188 -16.613  0.00  0.00    +0.000 C 
ATOM     20  C   UNL     1      30.041 -23.003 -14.811  0.00  0.00    +0.069 C 
ATOM     21  C   UNL     1      31.506 -22.921 -16.910  0.00  0.00    +0.029 C 
ATOM     22  C   UNL     1      30.263 -22.514 -16.218  0.00  0.00    +0.173 C 
ENDROOT
BRANCH   6  23
ATOM     23  O   UNL     1      38.426 -24.800 -11.375  0.00  0.00    -0.387 OA
ATOM     24  H   UNL     1      38.112 -24.485 -10.513  0.00  0.00    +0.210 HD
ENDBRANCH   6  23
TORSDOF 1
ENDMDL
MODEL 6
REMARK VINA RESULT:      -5.5      9.392     14.135
REMARK  Name = 102146
REMARK  1 active torsions:
REMARK  status: ('A' for Active; 'I' for Inactive)
REMARK    1  A    between atoms: C_6  and  O_23
REMARK                            x       y       z     vdW  Elec       q    Type
REMARK                         _______ _______ _______ _____ _____    ______ ____
ROOT
ATOM      1  O   UNL     1      33.978 -16.967 -20.974  0.00  0.00    -0.291 OA
ATOM      2  C   UNL     1      32.664  -9.553 -22.421  0.00  0.00    +0.002 C 
ATOM      3  C   UNL     1      33.160  -9.001 -23.776  0.00  0.00    +0.023 C 
ATOM      4  C   UNL     1      32.236 -11.028 -22.487  0.00  0.00    +0.001 C 
ATOM      5  C   UNL     1      33.446 -11.894 -22.969  0.00  0.00    +0.003 C 
ATOM      6  C   UNL     1      33.389  -7.502 -23.409  0.00  0.00    +0.088 C 
ATOM      7  C   UNL     1      33.102 -13.433 -23.072  0.00  0.00    +0.016 C 
ATOM      8  C   UNL     1      34.401  -9.814 -24.179  0.00  0.00    +0.002 C 
ATOM      9  C   UNL     1      34.096 -11.320 -24.260  0.00  0.00    +0.000 C 
ATOM     10  C   UNL     1      31.634  -8.520 -21.976  0.00  0.00    +0.002 C 
ATOM     11  C   UNL     1      31.649 -11.556 -21.152  0.00  0.00    +0.004 C 
ATOM     12  C   UNL     1      32.184  -7.175 -22.486  0.00  0.00    +0.027 C 
ATOM     13  C   UNL     1      31.237 -13.025 -21.323  0.00  0.00    +0.022 C 
ATOM     14  C   UNL     1      32.374 -13.895 -21.804  0.00  0.00    -0.042 C 
ATOM     15  C   UNL     1      32.103  -9.098 -24.915  0.00  0.00    +0.002 C 
ATOM     16  C   UNL     1      34.437 -14.218 -23.234  0.00  0.00    +0.012 C 
ATOM     17  C   UNL     1      34.709  -7.183 -22.697  0.00  0.00    +0.029 C 
ATOM     18  C   UNL     1      32.190 -13.742 -24.282  0.00  0.00    +0.004 C 
ATOM     19  C   UNL     1      32.565 -11.389 -19.933  0.00  0.00    +0.000 C 
ATOM     20  C   UNL     1      34.298 -15.713 -22.987  0.00  0.00    +0.069 C 
ATOM     21  C   UNL     1      32.674 -15.020 -21.132  0.00  0.00    +0.029 C 
ATOM     22  C   UNL     1      33.696 -15.967 -21.631  0.00  0.00    +0.173 C 
ENDROOT
BRANCH   6  23
ATOM     23  O   UNL     1      33.334  -6.660 -24.559  0.00  0.00    -0.387 OA
ATOM     24  H   UNL     1      33.685  -5.783 -24.335  0.00  0.00    +0.210 HD
ENDBRANCH   6  23
TORSDOF 1
ENDMDL
