MODEL 1
REMARK VINA RESULT:      -7.9      0.000      0.000
REMARK  Name = 688357
REMARK  5 active torsions:
REMARK  status: ('A' for Active; 'I' for Inactive)
REMARK    1  A    between atoms: C_3  and  C_12
REMARK    2  A    between atoms: C_12  and  CA_13
REMARK    3  A    between atoms: CA_13  and  N_14
REMARK    4  A    between atoms: CA_13  and  C_19
REMARK    5  A    between atoms: C_19  and  O_20
REMARK                            x       y       z     vdW  Elec       q    Type
REMARK                         _______ _______ _______ _____ _____    ______ ____
ROOT
ATOM      1  F   UNL     1      37.248 -22.146 -18.053  0.00  0.00    -0.204 F 
ATOM      2  N   UNL     1      32.678 -20.544 -20.575  0.00  0.00    -0.312 N 
ATOM      3  C   UNL     1      34.523 -19.519 -21.263  0.00  0.00    -0.008 C 
ATOM      4  C   UNL     1      34.883 -20.447 -20.246  0.00  0.00    +0.013 C 
ATOM      5  C   UNL     1      33.707 -21.076 -19.832  0.00  0.00    +0.048 C 
ATOM      6  C   UNL     1      33.162 -19.601 -21.443  0.00  0.00    +0.058 C 
ATOM      7  C   UNL     1      36.099 -20.813 -19.637  0.00  0.00    +0.031 C 
ATOM      8  C   UNL     1      33.687 -22.057 -18.834  0.00  0.00    +0.017 C 
ATOM      9  C   UNL     1      36.094 -21.792 -18.638  0.00  0.00    +0.140 C 
ATOM     10  C   UNL     1      34.906 -22.404 -18.244  0.00  0.00    +0.031 C 
ATOM     11  H   UNL     1      31.732 -20.803 -20.495  0.00  0.00    +0.152 HD
ENDROOT
BRANCH   3  12
ATOM     12  C   UNL     1      35.438 -18.623 -22.000  0.00  0.00    +0.017 C 
BRANCH  12  13
ATOM     13  CA  UNL     1      34.734 -17.468 -22.749  0.00  0.00    +0.040 C 
BRANCH  13  14
ATOM     14  N   UNL     1      35.340 -17.270 -24.068  0.00  0.00    +0.389 N 
ATOM     15  H1  UNL     1      34.702 -17.609 -24.789  0.00  0.00    -0.088 HD
ATOM     16  H2  UNL     1      36.217 -17.787 -24.120  0.00  0.00    -0.088 HD
ATOM     17  H3  UNL     1      35.521 -16.277 -24.214  0.00  0.00    -0.088 HD
ENDBRANCH  13  14
BRANCH  13  19
ATOM     18  OXT UNL     1      34.992 -16.052 -20.779  0.00  0.00    -0.253 OA
ATOM     19  C   UNL     1      34.890 -16.158 -21.995  0.00  0.00    +0.293 C 
BRANCH  19  20
ATOM     20  O   UNL     1      34.934 -15.086 -22.830  0.00  0.00    -0.482 OA
ATOM     21  H   UNL     1      35.544 -14.394 -22.671  0.00  0.00    +0.295 HD
ENDBRANCH  19  20
ENDBRANCH  13  19
ENDBRANCH  12  13
ENDBRANCH   3  12
TORSDOF 5
ENDMDL
MODEL 2
REMARK VINA RESULT:      -7.7      3.504      5.862
REMARK  Name = 688357
REMARK  5 active torsions:
REMARK  status: ('A' for Active; 'I' for Inactive)
REMARK    1  A    between atoms: C_3  and  C_12
REMARK    2  A    between atoms: C_12  and  CA_13
REMARK    3  A    between atoms: CA_13  and  N_14
REMARK    4  A    between atoms: CA_13  and  C_19
REMARK    5  A    between atoms: C_19  and  O_20
REMARK                            x       y       z     vdW  Elec       q    Type
REMARK                         _______ _______ _______ _____ _____    ______ ____
ROOT
ATOM      1  F   UNL     1      34.488 -14.361 -20.265  0.00  0.00    -0.204 F 
ATOM      2  N   UNL     1      34.812 -18.324 -24.006  0.00  0.00    -0.312 N 
ATOM      3  C   UNL     1      34.887 -19.029 -21.903  0.00  0.00    -0.008 C 
ATOM      4  C   UNL     1      34.763 -17.611 -21.893  0.00  0.00    +0.013 C 
ATOM      5  C   UNL     1      34.718 -17.195 -23.226  0.00  0.00    +0.048 C 
ATOM      6  C   UNL     1      34.915 -19.437 -23.216  0.00  0.00    +0.058 C 
ATOM      7  C   UNL     1      34.683 -16.640 -20.876  0.00  0.00    +0.031 C 
ATOM      8  C   UNL     1      34.599 -15.850 -23.592  0.00  0.00    +0.017 C 
ATOM      9  C   UNL     1      34.564 -15.291 -21.228  0.00  0.00    +0.140 C 
ATOM     10  C   UNL     1      34.521 -14.904 -22.565  0.00  0.00    +0.031 C 
ATOM     11  H   UNL     1      34.807 -18.330 -24.991  0.00  0.00    +0.152 HD
ENDROOT
BRANCH   3  12
ATOM     12  C   UNL     1      34.971 -19.912 -20.722  0.00  0.00    +0.017 C 
BRANCH  12  13
ATOM     13  CA  UNL     1      33.745 -20.835 -20.528  0.00  0.00    +0.040 C 
BRANCH  13  14
ATOM     14  N   UNL     1      32.542 -20.039 -20.275  0.00  0.00    +0.389 N 
ATOM     15  H1  UNL     1      32.512 -19.771 -19.290  0.00  0.00    -0.088 HD
ATOM     16  H2  UNL     1      31.715 -20.591 -20.501  0.00  0.00    -0.088 HD
ATOM     17  H3  UNL     1      32.560 -19.201 -20.855  0.00  0.00    -0.088 HD
ENDBRANCH  13  14
BRANCH  13  19
ATOM     18  OXT UNL     1      35.009 -22.011 -18.804  0.00  0.00    -0.253 OA
ATOM     19  C   UNL     1      33.933 -21.739 -19.321  0.00  0.00    +0.293 C 
BRANCH  19  20
ATOM     20  O   UNL     1      32.750 -22.209 -18.842  0.00  0.00    -0.482 OA
ATOM     21  H   UNL     1      31.956 -22.042 -19.310  0.00  0.00    +0.295 HD
ENDBRANCH  19  20
ENDBRANCH  13  19
ENDBRANCH  12  13
ENDBRANCH   3  12
TORSDOF 5
ENDMDL
MODEL 3
REMARK VINA RESULT:      -7.6      2.421      3.004
REMARK  Name = 688357
REMARK  5 active torsions:
REMARK  status: ('A' for Active; 'I' for Inactive)
REMARK    1  A    between atoms: C_3  and  C_12
REMARK    2  A    between atoms: C_12  and  CA_13
REMARK    3  A    between atoms: CA_13  and  N_14
REMARK    4  A    between atoms: CA_13  and  C_19
REMARK    5  A    between atoms: C_19  and  O_20
REMARK                            x       y       z     vdW  Elec       q    Type
REMARK                         _______ _______ _______ _____ _____    ______ ____
ROOT
ATOM      1  F   UNL     1      32.805 -22.177 -18.949  0.00  0.00    -0.204 F 
ATOM      2  N   UNL     1      37.228 -19.541 -20.765  0.00  0.00    -0.312 N 
ATOM      3  C   UNL     1      35.311 -18.842 -21.638  0.00  0.00    -0.008 C 
ATOM      4  C   UNL     1      35.026 -19.895 -20.724  0.00  0.00    +0.013 C 
ATOM      5  C   UNL     1      36.246 -20.316 -20.191  0.00  0.00    +0.048 C 
ATOM      6  C   UNL     1      36.672 -18.648 -21.641  0.00  0.00    +0.058 C 
ATOM      7  C   UNL     1      33.843 -20.533 -20.299  0.00  0.00    +0.031 C 
ATOM      8  C   UNL     1      36.343 -21.347 -19.250  0.00  0.00    +0.017 C 
ATOM      9  C   UNL     1      33.926 -21.565 -19.358  0.00  0.00    +0.140 C 
ATOM     10  C   UNL     1      35.156 -21.964 -18.842  0.00  0.00    +0.031 C 
ATOM     11  H   UNL     1      38.191 -19.618 -20.573  0.00  0.00    +0.152 HD
ENDROOT
BRANCH   3  12
ATOM     12  C   UNL     1      34.329 -18.087 -22.443  0.00  0.00    +0.017 C 
BRANCH  12  13
ATOM     13  CA  UNL     1      34.957 -17.070 -23.424  0.00  0.00    +0.040 C 
BRANCH  13  14
ATOM     14  N   UNL     1      34.393 -15.735 -23.207  0.00  0.00    +0.389 N 
ATOM     15  H1  UNL     1      34.593 -15.434 -22.252  0.00  0.00    -0.088 HD
ATOM     16  H2  UNL     1      33.384 -15.765 -23.349  0.00  0.00    -0.088 HD
ATOM     17  H3  UNL     1      34.810 -15.078 -23.865  0.00  0.00    -0.088 HD
ENDBRANCH  13  14
BRANCH  13  19
ATOM     18  OXT UNL     1      34.787 -16.704 -25.830  0.00  0.00    -0.253 OA
ATOM     19  C   UNL     1      34.650 -17.445 -24.864  0.00  0.00    +0.293 C 
BRANCH  19  20
ATOM     20  O   UNL     1      34.221 -18.729 -24.981  0.00  0.00    -0.482 OA
ATOM     21  H   UNL     1      33.409 -18.915 -25.410  0.00  0.00    +0.295 HD
ENDBRANCH  19  20
ENDBRANCH  13  19
ENDBRANCH  12  13
ENDBRANCH   3  12
TORSDOF 5
ENDMDL
MODEL 4
REMARK VINA RESULT:      -7.6      7.906      9.391
REMARK  Name = 688357
REMARK  5 active torsions:
REMARK  status: ('A' for Active; 'I' for Inactive)
REMARK    1  A    between atoms: C_3  and  C_12
REMARK    2  A    between atoms: C_12  and  CA_13
REMARK    3  A    between atoms: CA_13  and  N_14
REMARK    4  A    between atoms: CA_13  and  C_19
REMARK    5  A    between atoms: C_19  and  O_20
REMARK                            x       y       z     vdW  Elec       q    Type
REMARK                         _______ _______ _______ _____ _____    ______ ____
ROOT
ATOM      1  F   UNL     1      34.367 -22.731 -17.613  0.00  0.00    -0.204 F 
ATOM      2  N   UNL     1      34.593 -24.676 -12.516  0.00  0.00    -0.312 N 
ATOM      3  C   UNL     1      36.568 -24.395 -13.488  0.00  0.00    -0.008 C 
ATOM      4  C   UNL     1      35.559 -24.000 -14.410  0.00  0.00    +0.013 C 
ATOM      5  C   UNL     1      34.329 -24.186 -13.775  0.00  0.00    +0.048 C 
ATOM      6  C   UNL     1      35.943 -24.806 -12.334  0.00  0.00    +0.058 C 
ATOM      7  C   UNL     1      35.574 -23.500 -15.727  0.00  0.00    +0.031 C 
ATOM      8  C   UNL     1      33.108 -23.897 -14.395  0.00  0.00    +0.017 C 
ATOM      9  C   UNL     1      34.361 -23.207 -16.359  0.00  0.00    +0.140 C 
ATOM     10  C   UNL     1      33.148 -23.402 -15.702  0.00  0.00    +0.031 C 
ATOM     11  H   UNL     1      33.909 -24.900 -11.844  0.00  0.00    +0.152 HD
ENDROOT
BRANCH   3  12
ATOM     12  C   UNL     1      38.027 -24.372 -13.718  0.00  0.00    +0.017 C 
BRANCH  12  13
ATOM     13  CA  UNL     1      38.522 -25.384 -14.777  0.00  0.00    +0.040 C 
BRANCH  13  14
ATOM     14  N   UNL     1      38.213 -26.754 -14.358  0.00  0.00    +0.389 N 
ATOM     15  H1  UNL     1      38.378 -27.393 -15.137  0.00  0.00    -0.088 HD
ATOM     16  H2  UNL     1      37.235 -26.810 -14.074  0.00  0.00    -0.088 HD
ATOM     17  H3  UNL     1      38.811 -27.013 -13.574  0.00  0.00    -0.088 HD
ENDBRANCH  13  14
BRANCH  13  19
ATOM     18  OXT UNL     1      40.792 -24.725 -14.178  0.00  0.00    -0.253 OA
ATOM     19  C   UNL     1      40.030 -25.307 -14.940  0.00  0.00    +0.293 C 
BRANCH  19  20
ATOM     20  O   UNL     1      40.466 -25.990 -16.032  0.00  0.00    -0.482 OA
ATOM     21  H   UNL     1      41.350 -25.891 -16.324  0.00  0.00    +0.295 HD
ENDBRANCH  19  20
ENDBRANCH  13  19
ENDBRANCH  12  13
ENDBRANCH   3  12
TORSDOF 5
ENDMDL
MODEL 5
REMARK VINA RESULT:      -7.6      5.221      7.333
REMARK  Name = 688357
REMARK  5 active torsions:
REMARK  status: ('A' for Active; 'I' for Inactive)
REMARK    1  A    between atoms: C_3  and  C_12
REMARK    2  A    between atoms: C_12  and  CA_13
REMARK    3  A    between atoms: CA_13  and  N_14
REMARK    4  A    between atoms: CA_13  and  C_19
REMARK    5  A    between atoms: C_19  and  O_20
REMARK                            x       y       z     vdW  Elec       q    Type
REMARK                         _______ _______ _______ _____ _____    ______ ____
ROOT
ATOM      1  F   UNL     1      37.092 -20.026 -20.514  0.00  0.00    -0.204 F 
ATOM      2  N   UNL     1      32.651 -22.420 -18.429  0.00  0.00    -0.312 N 
ATOM      3  C   UNL     1      34.535 -22.857 -17.341  0.00  0.00    -0.008 C 
ATOM      4  C   UNL     1      34.841 -21.995 -18.431  0.00  0.00    +0.013 C 
ATOM      5  C   UNL     1      33.641 -21.737 -19.097  0.00  0.00    +0.048 C 
ATOM      6  C   UNL     1      33.182 -23.101 -17.366  0.00  0.00    +0.058 C 
ATOM      7  C   UNL     1      36.027 -21.409 -18.916  0.00  0.00    +0.031 C 
ATOM      8  C   UNL     1      33.568 -20.918 -20.229  0.00  0.00    +0.017 C 
ATOM      9  C   UNL     1      35.968 -20.588 -20.047  0.00  0.00    +0.140 C 
ATOM     10  C   UNL     1      34.757 -20.346 -20.692  0.00  0.00    +0.031 C 
ATOM     11  H   UNL     1      31.699 -22.420 -18.679  0.00  0.00    +0.152 HD
ENDROOT
BRANCH   3  12
ATOM     12  C   UNL     1      35.491 -23.399 -16.353  0.00  0.00    +0.017 C 
BRANCH  12  13
ATOM     13  CA  UNL     1      34.840 -24.232 -15.225  0.00  0.00    +0.040 C 
BRANCH  13  14
ATOM     14  N   UNL     1      34.773 -23.451 -13.987  0.00  0.00    +0.389 N 
ATOM     15  H1  UNL     1      34.990 -24.054 -13.193  0.00  0.00    -0.088 HD
ATOM     16  H2  UNL     1      33.834 -23.069 -13.876  0.00  0.00    -0.088 HD
ATOM     17  H3  UNL     1      35.448 -22.688 -14.029  0.00  0.00    -0.088 HD
ENDBRANCH  13  14
BRANCH  13  19
ATOM     18  OXT UNL     1      36.004 -26.312 -15.738  0.00  0.00    -0.253 OA
ATOM     19  C   UNL     1      35.665 -25.469 -14.917  0.00  0.00    +0.293 C 
BRANCH  19  20
ATOM     20  O   UNL     1      36.024 -25.536 -13.608  0.00  0.00    -0.482 OA
ATOM     21  H   UNL     1      35.668 -24.926 -12.993  0.00  0.00    +0.295 HD
ENDBRANCH  19  20
ENDBRANCH  13  19
ENDBRANCH  12  13
ENDBRANCH   3  12
TORSDOF 5
ENDMDL
MODEL 6
REMARK VINA RESULT:      -7.5      6.792      8.613
REMARK  Name = 688357
REMARK  5 active torsions:
REMARK  status: ('A' for Active; 'I' for Inactive)
REMARK    1  A    between atoms: C_3  and  C_12
REMARK    2  A    between atoms: C_12  and  CA_13
REMARK    3  A    between atoms: CA_13  and  N_14
REMARK    4  A    between atoms: CA_13  and  C_19
REMARK    5  A    between atoms: C_19  and  O_20
REMARK                            x       y       z     vdW  Elec       q    Type
REMARK                         _______ _______ _______ _____ _____    ______ ____
ROOT
ATOM      1  F   UNL     1      30.363 -23.698 -12.685  0.00  0.00    -0.204 F 
ATOM      2  N   UNL     1      32.359 -22.887 -17.702  0.00  0.00    -0.312 N 
ATOM      3  C   UNL     1      33.885 -23.379 -16.168  0.00  0.00    -0.008 C 
ATOM      4  C   UNL     1      32.609 -23.364 -15.537  0.00  0.00    +0.013 C 
ATOM      5  C   UNL     1      31.670 -23.052 -16.523  0.00  0.00    +0.048 C 
ATOM      6  C   UNL     1      33.699 -23.082 -17.498  0.00  0.00    +0.058 C 
ATOM      7  C   UNL     1      32.163 -23.586 -14.220  0.00  0.00    +0.031 C 
ATOM      8  C   UNL     1      30.300 -22.951 -16.254  0.00  0.00    +0.017 C 
ATOM      9  C   UNL     1      30.796 -23.488 -13.937  0.00  0.00    +0.140 C 
ATOM     10  C   UNL     1      29.880 -23.176 -14.940  0.00  0.00    +0.031 C 
ATOM     11  H   UNL     1      31.948 -22.661 -18.568  0.00  0.00    +0.152 HD
ENDROOT
BRANCH   3  12
ATOM     12  C   UNL     1      35.182 -23.661 -15.520  0.00  0.00    +0.017 C 
BRANCH  12  13
ATOM     13  CA  UNL     1      35.267 -25.047 -14.839  0.00  0.00    +0.040 C 
BRANCH  13  14
ATOM     14  N   UNL     1      35.522 -24.896 -13.404  0.00  0.00    +0.389 N 
ATOM     15  H1  UNL     1      34.858 -24.229 -13.009  0.00  0.00    -0.088 HD
ATOM     16  H2  UNL     1      36.472 -24.554 -13.261  0.00  0.00    -0.088 HD
ATOM     17  H3  UNL     1      35.412 -25.799 -12.942  0.00  0.00    -0.088 HD
ENDBRANCH  13  14
BRANCH  13  19
ATOM     18  OXT UNL     1      36.333 -27.011 -15.816  0.00  0.00    -0.253 OA
ATOM     19  C   UNL     1      36.418 -25.861 -15.404  0.00  0.00    +0.293 C 
BRANCH  19  20
ATOM     20  O   UNL     1      37.580 -25.156 -15.434  0.00  0.00    -0.482 OA
ATOM     21  H   UNL     1      37.562 -24.228 -15.560  0.00  0.00    +0.295 HD
ENDBRANCH  19  20
ENDBRANCH  13  19
ENDBRANCH  12  13
ENDBRANCH   3  12
TORSDOF 5
ENDMDL
MODEL 7
REMARK VINA RESULT:      -7.5      3.838      5.107
REMARK  Name = 688357
REMARK  5 active torsions:
REMARK  status: ('A' for Active; 'I' for Inactive)
REMARK    1  A    between atoms: C_3  and  C_12
REMARK    2  A    between atoms: C_12  and  CA_13
REMARK    3  A    between atoms: CA_13  and  N_14
REMARK    4  A    between atoms: CA_13  and  C_19
REMARK    5  A    between atoms: C_19  and  O_20
REMARK                            x       y       z     vdW  Elec       q    Type
REMARK                         _______ _______ _______ _____ _____    ______ ____
ROOT
ATOM      1  F   UNL     1      35.005 -19.929 -24.471  0.00  0.00    -0.204 F 
ATOM      2  N   UNL     1      34.789 -16.092 -20.592  0.00  0.00    -0.312 N 
ATOM      3  C   UNL     1      34.417 -15.350 -22.649  0.00  0.00    -0.008 C 
ATOM      4  C   UNL     1      34.654 -16.751 -22.719  0.00  0.00    +0.013 C 
ATOM      5  C   UNL     1      34.885 -17.192 -21.414  0.00  0.00    +0.048 C 
ATOM      6  C   UNL     1      34.507 -14.974 -21.329  0.00  0.00    +0.058 C 
ATOM      7  C   UNL     1      34.695 -17.689 -23.769  0.00  0.00    +0.031 C 
ATOM      8  C   UNL     1      35.156 -18.530 -21.107  0.00  0.00    +0.017 C 
ATOM      9  C   UNL     1      34.965 -19.030 -23.476  0.00  0.00    +0.140 C 
ATOM     10  C   UNL     1      35.191 -19.443 -22.165  0.00  0.00    +0.031 C 
ATOM     11  H   UNL     1      34.907 -16.108 -19.614  0.00  0.00    +0.152 HD
ENDROOT
BRANCH   3  12
ATOM     12  C   UNL     1      34.125 -14.450 -23.784  0.00  0.00    +0.017 C 
BRANCH  12  13
ATOM     13  CA  UNL     1      33.576 -13.064 -23.375  0.00  0.00    +0.040 C 
BRANCH  13  14
ATOM     14  N   UNL     1      32.118 -13.110 -23.247  0.00  0.00    +0.389 N 
ATOM     15  H1  UNL     1      31.725 -13.646 -24.022  0.00  0.00    -0.088 HD
ATOM     16  H2  UNL     1      31.744 -12.161 -23.267  0.00  0.00    -0.088 HD
ATOM     17  H3  UNL     1      31.867 -13.556 -22.364  0.00  0.00    -0.088 HD
ENDBRANCH  13  14
BRANCH  13  19
ATOM     18  OXT UNL     1      33.660 -12.141 -25.631  0.00  0.00    -0.253 OA
ATOM     19  C   UNL     1      33.889 -12.021 -24.434  0.00  0.00    +0.293 C 
BRANCH  19  20
ATOM     20  O   UNL     1      34.439 -10.897 -23.903  0.00  0.00    -0.482 OA
ATOM     21  H   UNL     1      34.418 -10.093 -24.383  0.00  0.00    +0.295 HD
ENDBRANCH  19  20
ENDBRANCH  13  19
ENDBRANCH  12  13
ENDBRANCH   3  12
TORSDOF 5
ENDMDL
MODEL 8
REMARK VINA RESULT:      -7.4      3.413      6.161
REMARK  Name = 688357
REMARK  5 active torsions:
REMARK  status: ('A' for Active; 'I' for Inactive)
REMARK    1  A    between atoms: C_3  and  C_12
REMARK    2  A    between atoms: C_12  and  CA_13
REMARK    3  A    between atoms: CA_13  and  N_14
REMARK    4  A    between atoms: CA_13  and  C_19
REMARK    5  A    between atoms: C_19  and  O_20
REMARK                            x       y       z     vdW  Elec       q    Type
REMARK                         _______ _______ _______ _____ _____    ______ ____
ROOT
ATOM      1  F   UNL     1      32.721 -13.848 -20.295  0.00  0.00    -0.204 F 
ATOM      2  N   UNL     1      35.222 -16.857 -24.104  0.00  0.00    -0.312 N 
ATOM      3  C   UNL     1      35.289 -17.712 -22.057  0.00  0.00    -0.008 C 
ATOM      4  C   UNL     1      34.576 -16.482 -22.001  0.00  0.00    +0.013 C 
ATOM      5  C   UNL     1      34.548 -15.966 -23.299  0.00  0.00    +0.048 C 
ATOM      6  C   UNL     1      35.674 -17.915 -23.362  0.00  0.00    +0.058 C 
ATOM      7  C   UNL     1      33.949 -15.757 -20.969  0.00  0.00    +0.031 C 
ATOM      8  C   UNL     1      33.923 -14.755 -23.616  0.00  0.00    +0.017 C 
ATOM      9  C   UNL     1      33.320 -14.544 -21.272  0.00  0.00    +0.140 C 
ATOM     10  C   UNL     1      33.307 -14.053 -22.576  0.00  0.00    +0.031 C 
ATOM     11  H   UNL     1      35.359 -16.748 -25.073  0.00  0.00    +0.152 HD
ENDROOT
BRANCH   3  12
ATOM     12  C   UNL     1      35.572 -18.616 -20.924  0.00  0.00    +0.017 C 
BRANCH  12  13
ATOM     13  CA  UNL     1      34.849 -19.981 -21.002  0.00  0.00    +0.040 C 
BRANCH  13  14
ATOM     14  N   UNL     1      33.411 -19.811 -20.785  0.00  0.00    +0.389 N 
ATOM     15  H1  UNL     1      33.257 -19.264 -19.937  0.00  0.00    -0.088 HD
ATOM     16  H2  UNL     1      32.971 -20.725 -20.684  0.00  0.00    -0.088 HD
ATOM     17  H3  UNL     1      33.002 -19.323 -21.582  0.00  0.00    -0.088 HD
ENDBRANCH  13  14
BRANCH  13  19
ATOM     18  OXT UNL     1      34.791 -21.957 -19.573  0.00  0.00    -0.253 OA
ATOM     19  C   UNL     1      35.346 -20.921 -19.917  0.00  0.00    +0.293 C 
BRANCH  19  20
ATOM     20  O   UNL     1      36.517 -20.501 -19.368  0.00  0.00    -0.482 OA
ATOM     21  H   UNL     1      37.068 -21.110 -18.918  0.00  0.00    +0.295 HD
ENDBRANCH  19  20
ENDBRANCH  13  19
ENDBRANCH  12  13
ENDBRANCH   3  12
TORSDOF 5
ENDMDL
MODEL 9
REMARK VINA RESULT:      -7.3      7.552      9.553
REMARK  Name = 688357
REMARK  5 active torsions:
REMARK  status: ('A' for Active; 'I' for Inactive)
REMARK    1  A    between atoms: C_3  and  C_12
REMARK    2  A    between atoms: C_12  and  CA_13
REMARK    3  A    between atoms: CA_13  and  N_14
REMARK    4  A    between atoms: CA_13  and  C_19
REMARK    5  A    between atoms: C_19  and  O_20
REMARK                            x       y       z     vdW  Elec       q    Type
REMARK                         _______ _______ _______ _____ _____    ______ ____
ROOT
ATOM      1  F   UNL     1      29.644 -23.251 -14.390  0.00  0.00    -0.204 F 
ATOM      2  N   UNL     1      34.753 -23.472 -16.304  0.00  0.00    -0.312 N 
ATOM      3  C   UNL     1      34.557 -23.908 -14.137  0.00  0.00    -0.008 C 
ATOM      4  C   UNL     1      33.259 -23.639 -14.655  0.00  0.00    +0.013 C 
ATOM      5  C   UNL     1      33.411 -23.368 -16.017  0.00  0.00    +0.048 C 
ATOM      6  C   UNL     1      35.453 -23.798 -15.174  0.00  0.00    +0.058 C 
ATOM      7  C   UNL     1      31.967 -23.599 -14.095  0.00  0.00    +0.031 C 
ATOM      8  C   UNL     1      32.330 -23.059 -16.850  0.00  0.00    +0.017 C 
ATOM      9  C   UNL     1      30.877 -23.291 -14.916  0.00  0.00    +0.140 C 
ATOM     10  C   UNL     1      31.056 -23.025 -16.272  0.00  0.00    +0.031 C 
ATOM     11  H   UNL     1      35.151 -23.333 -17.194  0.00  0.00    +0.152 HD
ENDROOT
BRANCH   3  12
ATOM     12  C   UNL     1      34.892 -24.246 -12.738  0.00  0.00    +0.017 C 
BRANCH  12  13
ATOM     13  CA  UNL     1      36.403 -24.200 -12.416  0.00  0.00    +0.040 C 
BRANCH  13  14
ATOM     14  N   UNL     1      36.952 -25.556 -12.344  0.00  0.00    +0.389 N 
ATOM     15  H1  UNL     1      37.954 -25.509 -12.160  0.00  0.00    -0.088 HD
ATOM     16  H2  UNL     1      36.792 -26.035 -13.230  0.00  0.00    -0.088 HD
ATOM     17  H3  UNL     1      36.492 -26.070 -11.592  0.00  0.00    -0.088 HD
ENDBRANCH  13  14
BRANCH  13  19
ATOM     18  OXT UNL     1      36.305 -24.026  -9.985  0.00  0.00    -0.253 OA
ATOM     19  C   UNL     1      36.651 -23.556 -11.062  0.00  0.00    +0.293 C 
BRANCH  19  20
ATOM     20  O   UNL     1      37.338 -22.388 -11.166  0.00  0.00    -0.482 OA
ATOM     21  H   UNL     1      37.686 -22.122 -11.993  0.00  0.00    +0.295 HD
ENDBRANCH  19  20
ENDBRANCH  13  19
ENDBRANCH  12  13
ENDBRANCH   3  12
TORSDOF 5
ENDMDL
