MODEL 1
REMARK VINA RESULT:      -7.0      0.000      0.000
REMARK  Name = 1933963
REMARK  3 active torsions:
REMARK  status: ('A' for Active; 'I' for Inactive)
REMARK    1  A    between atoms: N_3  and  C_13
REMARK    2  A    between atoms: C_13  and  C_16
REMARK    3  A    between atoms: C_16  and  O_17
REMARK                            x       y       z     vdW  Elec       q    Type
REMARK                         _______ _______ _______ _____ _____    ______ ____
ROOT
ATOM      1  O   UNL     1      36.450 -22.786 -12.121  0.00  0.00    -0.274 OA
ATOM      2  O   UNL     1      35.444 -24.936 -16.100  0.00  0.00    -0.274 OA
ATOM      3  N   UNL     1      35.620 -23.729 -14.098  0.00  0.00    -0.221 N 
ATOM      4  C   UNL     1      38.569 -25.029 -12.841  0.00  0.00    +0.009 C 
ATOM      5  C   UNL     1      38.082 -26.066 -14.759  0.00  0.00    +0.009 C 
ATOM      6  C   UNL     1      37.906 -23.918 -13.679  0.00  0.00    +0.086 C 
ATOM      7  C   UNL     1      37.573 -24.633 -15.000  0.00  0.00    +0.086 C 
ATOM      8  C   UNL     1      39.342 -25.786 -13.929  0.00  0.00    +0.001 C 
ATOM      9  C   UNL     1      37.553 -26.103 -12.410  0.00  0.00    +0.001 C 
ATOM     10  C   UNL     1      37.218 -26.816 -13.727  0.00  0.00    +0.001 C 
ATOM     11  C   UNL     1      36.591 -23.389 -13.176  0.00  0.00    +0.232 C 
ATOM     12  C   UNL     1      36.087 -24.466 -15.171  0.00  0.00    +0.232 C 
ENDROOT
BRANCH   3  13
ATOM     13  C   UNL     1      34.221 -23.389 -13.926  0.00  0.00    +0.181 C 
ATOM     14  C   UNL     1      33.555 -23.161 -15.275  0.00  0.00    +0.034 C 
BRANCH  13  16
ATOM     15  O   UNL     1      32.311 -24.763 -13.374  0.00  0.00    -0.248 OA
ATOM     16  C   UNL     1      33.475 -24.455 -13.142  0.00  0.00    +0.332 C 
BRANCH  16  17
ATOM     17  O   UNL     1      34.194 -25.036 -12.151  0.00  0.00    -0.479 OA
ATOM     18  H   UNL     1      35.115 -25.171 -12.258  0.00  0.00    +0.295 HD
ENDBRANCH  16  17
ENDBRANCH  13  16
ENDBRANCH   3  13
TORSDOF 3
ENDMDL
MODEL 2
REMARK VINA RESULT:      -7.0     10.896     12.630
REMARK  Name = 1933963
REMARK  3 active torsions:
REMARK  status: ('A' for Active; 'I' for Inactive)
REMARK    1  A    between atoms: N_3  and  C_13
REMARK    2  A    between atoms: C_13  and  C_16
REMARK    3  A    between atoms: C_16  and  O_17
REMARK                            x       y       z     vdW  Elec       q    Type
REMARK                         _______ _______ _______ _____ _____    ______ ____
ROOT
ATOM      1  O   UNL     1      34.498 -15.053 -20.852  0.00  0.00    -0.274 OA
ATOM      2  O   UNL     1      33.981 -16.852 -25.091  0.00  0.00    -0.274 OA
ATOM      3  N   UNL     1      34.032 -15.681 -23.061  0.00  0.00    -0.221 N 
ATOM      4  C   UNL     1      35.391 -18.091 -20.984  0.00  0.00    +0.009 C 
ATOM      5  C   UNL     1      35.141 -18.957 -23.028  0.00  0.00    +0.009 C 
ATOM      6  C   UNL     1      35.662 -16.887 -21.908  0.00  0.00    +0.086 C 
ATOM      7  C   UNL     1      35.490 -17.486 -23.315  0.00  0.00    +0.086 C 
ATOM      8  C   UNL     1      36.022 -19.226 -21.801  0.00  0.00    +0.001 C 
ATOM      9  C   UNL     1      33.909 -18.508 -21.007  0.00  0.00    +0.001 C 
ATOM     10  C   UNL     1      33.736 -19.103 -22.411  0.00  0.00    +0.001 C 
ATOM     11  C   UNL     1      34.677 -15.752 -21.841  0.00  0.00    +0.232 C 
ATOM     12  C   UNL     1      34.418 -16.653 -23.965  0.00  0.00    +0.232 C 
ENDROOT
BRANCH   3  13
ATOM     13  C   UNL     1      33.000 -14.705 -23.347  0.00  0.00    +0.181 C 
ATOM     14  C   UNL     1      32.397 -14.168 -22.057  0.00  0.00    +0.034 C 
BRANCH  13  16
ATOM     15  O   UNL     1      33.318 -13.477 -25.405  0.00  0.00    -0.248 OA
ATOM     16  C   UNL     1      33.527 -13.562 -24.200  0.00  0.00    +0.332 C 
BRANCH  16  17
ATOM     17  O   UNL     1      34.259 -12.644 -23.525  0.00  0.00    -0.479 OA
ATOM     18  H   UNL     1      35.190 -12.738 -23.467  0.00  0.00    +0.295 HD
ENDBRANCH  16  17
ENDBRANCH  13  16
ENDBRANCH   3  13
TORSDOF 3
ENDMDL
MODEL 3
REMARK VINA RESULT:      -6.9      1.951      5.495
REMARK  Name = 1933963
REMARK  3 active torsions:
REMARK  status: ('A' for Active; 'I' for Inactive)
REMARK    1  A    between atoms: N_3  and  C_13
REMARK    2  A    between atoms: C_13  and  C_16
REMARK    3  A    between atoms: C_16  and  O_17
REMARK                            x       y       z     vdW  Elec       q    Type
REMARK                         _______ _______ _______ _____ _____    ______ ____
ROOT
ATOM      1  O   UNL     1      34.282 -23.812 -16.820  0.00  0.00    -0.274 OA
ATOM      2  O   UNL     1      34.096 -23.846 -12.190  0.00  0.00    -0.274 OA
ATOM      3  N   UNL     1      34.522 -23.945 -14.493  0.00  0.00    -0.221 N 
ATOM      4  C   UNL     1      31.310 -23.635 -15.737  0.00  0.00    +0.009 C 
ATOM      5  C   UNL     1      31.221 -23.652 -13.505  0.00  0.00    +0.009 C 
ATOM      6  C   UNL     1      32.608 -22.910 -15.331  0.00  0.00    +0.086 C 
ATOM      7  C   UNL     1      32.545 -22.922 -13.794  0.00  0.00    +0.086 C 
ATOM      8  C   UNL     1      30.349 -23.127 -14.654  0.00  0.00    +0.001 C 
ATOM      9  C   UNL     1      31.361 -25.136 -15.397  0.00  0.00    +0.001 C 
ATOM     10  C   UNL     1      31.301 -25.149 -13.864  0.00  0.00    +0.001 C 
ATOM     11  C   UNL     1      33.900 -23.600 -15.677  0.00  0.00    +0.232 C 
ATOM     12  C   UNL     1      33.807 -23.617 -13.357  0.00  0.00    +0.232 C 
ENDROOT
BRANCH   3  13
ATOM     13  C   UNL     1      35.792 -24.644 -14.449  0.00  0.00    +0.181 C 
ATOM     14  C   UNL     1      35.774 -25.847 -15.381  0.00  0.00    +0.034 C 
BRANCH  13  16
ATOM     15  O   UNL     1      37.571 -23.084 -13.953  0.00  0.00    -0.248 OA
ATOM     16  C   UNL     1      36.952 -23.725 -14.795  0.00  0.00    +0.332 C 
BRANCH  16  17
ATOM     17  O   UNL     1      37.245 -23.657 -16.116  0.00  0.00    -0.479 OA
ATOM     18  H   UNL     1      38.024 -24.061 -16.444  0.00  0.00    +0.295 HD
ENDBRANCH  16  17
ENDBRANCH  13  16
ENDBRANCH   3  13
TORSDOF 3
ENDMDL
MODEL 4
REMARK VINA RESULT:      -6.8     16.399     18.592
REMARK  Name = 1933963
REMARK  3 active torsions:
REMARK  status: ('A' for Active; 'I' for Inactive)
REMARK    1  A    between atoms: N_3  and  C_13
REMARK    2  A    between atoms: C_13  and  C_16
REMARK    3  A    between atoms: C_16  and  O_17
REMARK                            x       y       z     vdW  Elec       q    Type
REMARK                         _______ _______ _______ _____ _____    ______ ____
ROOT
ATOM      1  O   UNL     1      35.036  -9.278 -24.007  0.00  0.00    -0.274 OA
ATOM      2  O   UNL     1      30.803 -10.452 -22.533  0.00  0.00    -0.274 OA
ATOM      3  N   UNL     1      32.958 -10.184 -23.416  0.00  0.00    -0.221 N 
ATOM      4  C   UNL     1      33.329  -6.757 -23.129  0.00  0.00    +0.009 C 
ATOM      5  C   UNL     1      31.288  -7.324 -22.419  0.00  0.00    +0.009 C 
ATOM      6  C   UNL     1      33.557  -8.135 -22.478  0.00  0.00    +0.086 C 
ATOM      7  C   UNL     1      32.151  -8.524 -21.988  0.00  0.00    +0.086 C 
ATOM      8  C   UNL     1      32.270  -6.168 -22.188  0.00  0.00    +0.001 C 
ATOM      9  C   UNL     1      32.523  -6.868 -24.437  0.00  0.00    +0.001 C 
ATOM     10  C   UNL     1      31.121  -7.259 -23.950  0.00  0.00    +0.001 C 
ATOM     11  C   UNL     1      33.977  -9.252 -23.394  0.00  0.00    +0.232 C 
ATOM     12  C   UNL     1      31.856  -9.841 -22.656  0.00  0.00    +0.232 C 
ENDROOT
BRANCH   3  13
ATOM     13  C   UNL     1      33.018 -11.393 -24.214  0.00  0.00    +0.181 C 
ATOM     14  C   UNL     1      34.189 -11.337 -25.185  0.00  0.00    +0.034 C 
BRANCH  13  16
ATOM     15  O   UNL     1      34.170 -13.204 -23.102  0.00  0.00    -0.248 OA
ATOM     16  C   UNL     1      33.111 -12.636 -23.345  0.00  0.00    +0.332 C 
BRANCH  16  17
ATOM     17  O   UNL     1      31.925 -13.081 -22.865  0.00  0.00    -0.479 OA
ATOM     18  H   UNL     1      31.774 -14.001 -22.768  0.00  0.00    +0.295 HD
ENDBRANCH  16  17
ENDBRANCH  13  16
ENDBRANCH   3  13
TORSDOF 3
ENDMDL
MODEL 5
REMARK VINA RESULT:      -6.8      1.436      1.941
REMARK  Name = 1933963
REMARK  3 active torsions:
REMARK  status: ('A' for Active; 'I' for Inactive)
REMARK    1  A    between atoms: N_3  and  C_13
REMARK    2  A    between atoms: C_13  and  C_16
REMARK    3  A    between atoms: C_16  and  O_17
REMARK                            x       y       z     vdW  Elec       q    Type
REMARK                         _______ _______ _______ _____ _____    ______ ____
ROOT
ATOM      1  O   UNL     1      34.472 -24.316 -11.932  0.00  0.00    -0.274 OA
ATOM      2  O   UNL     1      34.922 -23.631 -16.493  0.00  0.00    -0.274 OA
ATOM      3  N   UNL     1      34.345 -23.964 -14.245  0.00  0.00    -0.221 N 
ATOM      4  C   UNL     1      37.390 -24.993 -12.965  0.00  0.00    +0.009 C 
ATOM      5  C   UNL     1      37.606 -24.663 -15.164  0.00  0.00    +0.009 C 
ATOM      6  C   UNL     1      36.441 -23.808 -13.234  0.00  0.00    +0.086 C 
ATOM      7  C   UNL     1      36.592 -23.581 -14.749  0.00  0.00    +0.086 C 
ATOM      8  C   UNL     1      38.531 -24.672 -13.940  0.00  0.00    +0.001 C 
ATOM      9  C   UNL     1      36.854 -26.304 -13.569  0.00  0.00    +0.001 C 
ATOM     10  C   UNL     1      37.001 -26.078 -15.080  0.00  0.00    +0.001 C 
ATOM     11  C   UNL     1      34.973 -24.058 -13.018  0.00  0.00    +0.232 C 
ATOM     12  C   UNL     1      35.199 -23.715 -15.304  0.00  0.00    +0.232 C 
ENDROOT
BRANCH   3  13
ATOM     13  C   UNL     1      32.920 -24.165 -14.414  0.00  0.00    +0.181 C 
ATOM     14  C   UNL     1      32.458 -25.397 -13.649  0.00  0.00    +0.034 C 
BRANCH  13  16
ATOM     15  O   UNL     1      31.484 -22.252 -14.764  0.00  0.00    -0.248 OA
ATOM     16  C   UNL     1      32.125 -22.945 -13.981  0.00  0.00    +0.332 C 
BRANCH  16  17
ATOM     17  O   UNL     1      32.187 -22.670 -12.656  0.00  0.00    -0.479 OA
ATOM     18  H   UNL     1      32.991 -22.787 -12.190  0.00  0.00    +0.295 HD
ENDBRANCH  16  17
ENDBRANCH  13  16
ENDBRANCH   3  13
TORSDOF 3
ENDMDL
MODEL 6
REMARK VINA RESULT:      -6.7      9.981     11.651
REMARK  Name = 1933963
REMARK  3 active torsions:
REMARK  status: ('A' for Active; 'I' for Inactive)
REMARK    1  A    between atoms: N_3  and  C_13
REMARK    2  A    between atoms: C_13  and  C_16
REMARK    3  A    between atoms: C_16  and  O_17
REMARK                            x       y       z     vdW  Elec       q    Type
REMARK                         _______ _______ _______ _____ _____    ______ ____
ROOT
ATOM      1  O   UNL     1      35.026 -16.002 -19.858  0.00  0.00    -0.274 OA
ATOM      2  O   UNL     1      34.505 -16.517 -24.433  0.00  0.00    -0.274 OA
ATOM      3  N   UNL     1      34.655 -15.925 -22.170  0.00  0.00    -0.221 N 
ATOM      4  C   UNL     1      35.034 -19.048 -20.731  0.00  0.00    +0.009 C 
ATOM      5  C   UNL     1      34.782 -19.295 -22.937  0.00  0.00    +0.009 C 
ATOM      6  C   UNL     1      35.736 -17.801 -21.304  0.00  0.00    +0.086 C 
ATOM      7  C   UNL     1      35.563 -17.973 -22.823  0.00  0.00    +0.086 C 
ATOM      8  C   UNL     1      35.408 -20.097 -21.787  0.00  0.00    +0.001 C 
ATOM      9  C   UNL     1      33.507 -18.981 -20.918  0.00  0.00    +0.001 C 
ATOM     10  C   UNL     1      33.333 -19.150 -22.433  0.00  0.00    +0.001 C 
ATOM     11  C   UNL     1      35.111 -16.470 -20.985  0.00  0.00    +0.232 C 
ATOM     12  C   UNL     1      34.850 -16.728 -23.278  0.00  0.00    +0.232 C 
ENDROOT
BRANCH   3  13
ATOM     13  C   UNL     1      33.980 -14.644 -22.235  0.00  0.00    +0.181 C 
ATOM     14  C   UNL     1      34.142 -14.022 -23.614  0.00  0.00    +0.034 C 
BRANCH  13  16
ATOM     15  O   UNL     1      32.035 -15.748 -21.317  0.00  0.00    -0.248 OA
ATOM     16  C   UNL     1      32.507 -14.766 -21.880  0.00  0.00    +0.332 C 
BRANCH  16  17
ATOM     17  O   UNL     1      31.748 -13.706 -22.245  0.00  0.00    -0.479 OA
ATOM     18  H   UNL     1      31.736 -13.423 -23.138  0.00  0.00    +0.295 HD
ENDBRANCH  16  17
ENDBRANCH  13  16
ENDBRANCH   3  13
TORSDOF 3
ENDMDL
MODEL 7
REMARK VINA RESULT:      -6.7      1.775      2.270
REMARK  Name = 1933963
REMARK  3 active torsions:
REMARK  status: ('A' for Active; 'I' for Inactive)
REMARK    1  A    between atoms: N_3  and  C_13
REMARK    2  A    between atoms: C_13  and  C_16
REMARK    3  A    between atoms: C_16  and  O_17
REMARK                            x       y       z     vdW  Elec       q    Type
REMARK                         _______ _______ _______ _____ _____    ______ ____
ROOT
ATOM      1  O   UNL     1      35.863 -22.421 -14.368  0.00  0.00    -0.274 OA
ATOM      2  O   UNL     1      35.928 -26.843 -15.751  0.00  0.00    -0.274 OA
ATOM      3  N   UNL     1      35.567 -24.598 -15.184  0.00  0.00    -0.221 N 
ATOM      4  C   UNL     1      38.220 -24.062 -13.030  0.00  0.00    +0.009 C 
ATOM      5  C   UNL     1      38.250 -26.194 -13.697  0.00  0.00    +0.009 C 
ATOM      6  C   UNL     1      37.703 -23.981 -14.480  0.00  0.00    +0.086 C 
ATOM      7  C   UNL     1      37.725 -25.450 -14.938  0.00  0.00    +0.086 C 
ATOM      8  C   UNL     1      39.267 -25.176 -13.162  0.00  0.00    +0.001 C 
ATOM      9  C   UNL     1      37.199 -24.735 -12.095  0.00  0.00    +0.001 C 
ATOM     10  C   UNL     1      37.218 -26.200 -12.553  0.00  0.00    +0.001 C 
ATOM     11  C   UNL     1      36.277 -23.534 -14.663  0.00  0.00    +0.232 C 
ATOM     12  C   UNL     1      36.310 -25.750 -15.355  0.00  0.00    +0.232 C 
ENDROOT
BRANCH   3  13
ATOM     13  C   UNL     1      34.148 -24.525 -15.474  0.00  0.00    +0.181 C 
ATOM     14  C   UNL     1      33.358 -24.221 -14.210  0.00  0.00    +0.034 C 
BRANCH  13  16
ATOM     15  O   UNL     1      32.714 -23.077 -16.774  0.00  0.00    -0.248 OA
ATOM     16  C   UNL     1      33.845 -23.495 -16.549  0.00  0.00    +0.332 C 
BRANCH  16  17
ATOM     17  O   UNL     1      34.924 -23.077 -17.253  0.00  0.00    -0.479 OA
ATOM     18  H   UNL     1      35.787 -23.296 -16.961  0.00  0.00    +0.295 HD
ENDBRANCH  16  17
ENDBRANCH  13  16
ENDBRANCH   3  13
TORSDOF 3
ENDMDL
MODEL 8
REMARK VINA RESULT:      -6.5      2.383      4.899
REMARK  Name = 1933963
REMARK  3 active torsions:
REMARK  status: ('A' for Active; 'I' for Inactive)
REMARK    1  A    between atoms: N_3  and  C_13
REMARK    2  A    between atoms: C_13  and  C_16
REMARK    3  A    between atoms: C_16  and  O_17
REMARK                            x       y       z     vdW  Elec       q    Type
REMARK                         _______ _______ _______ _____ _____    ______ ____
ROOT
ATOM      1  O   UNL     1      36.783 -26.833 -14.204  0.00  0.00    -0.274 OA
ATOM      2  O   UNL     1      37.938 -22.419 -15.015  0.00  0.00    -0.274 OA
ATOM      3  N   UNL     1      37.675 -24.682 -14.461  0.00  0.00    -0.221 N 
ATOM      4  C   UNL     1      34.264 -25.042 -14.906  0.00  0.00    +0.009 C 
ATOM      5  C   UNL     1      34.822 -22.915 -15.296  0.00  0.00    +0.009 C 
ATOM      6  C   UNL     1      35.664 -25.160 -15.540  0.00  0.00    +0.086 C 
ATOM      7  C   UNL     1      36.047 -23.694 -15.809  0.00  0.00    +0.086 C 
ATOM      8  C   UNL     1      33.688 -23.864 -15.703  0.00  0.00    +0.001 C 
ATOM      9  C   UNL     1      34.325 -24.432 -13.494  0.00  0.00    +0.001 C 
ATOM     10  C   UNL     1      34.709 -22.971 -13.760  0.00  0.00    +0.001 C 
ATOM     11  C   UNL     1      36.759 -25.697 -14.658  0.00  0.00    +0.232 C 
ATOM     12  C   UNL     1      37.339 -23.485 -15.065  0.00  0.00    +0.232 C 
ENDROOT
BRANCH   3  13
ATOM     13  C   UNL     1      38.861 -24.844 -13.642  0.00  0.00    +0.181 C 
ATOM     14  C   UNL     1      38.537 -25.631 -12.380  0.00  0.00    +0.034 C 
BRANCH  13  16
ATOM     15  O   UNL     1      40.976 -24.911 -14.810  0.00  0.00    -0.248 OA
ATOM     16  C   UNL     1      39.987 -25.515 -14.410  0.00  0.00    +0.332 C 
BRANCH  16  17
ATOM     17  O   UNL     1      39.810 -26.840 -14.631  0.00  0.00    -0.479 OA
ATOM     18  H   UNL     1      39.892 -27.185 -15.498  0.00  0.00    +0.295 HD
ENDBRANCH  16  17
ENDBRANCH  13  16
ENDBRANCH   3  13
TORSDOF 3
ENDMDL
MODEL 9
REMARK VINA RESULT:      -6.4     16.299     18.450
REMARK  Name = 1933963
REMARK  3 active torsions:
REMARK  status: ('A' for Active; 'I' for Inactive)
REMARK    1  A    between atoms: N_3  and  C_13
REMARK    2  A    between atoms: C_13  and  C_16
REMARK    3  A    between atoms: C_16  and  O_17
REMARK                            x       y       z     vdW  Elec       q    Type
REMARK                         _______ _______ _______ _____ _____    ______ ____
ROOT
ATOM      1  O   UNL     1      32.239 -10.671 -23.179  0.00  0.00    -0.274 OA
ATOM      2  O   UNL     1      31.812  -7.709 -19.641  0.00  0.00    -0.274 OA
ATOM      3  N   UNL     1      31.874  -9.443 -21.217  0.00  0.00    -0.221 N 
ATOM      4  C   UNL     1      32.636  -7.659 -24.081  0.00  0.00    +0.009 C 
ATOM      5  C   UNL     1      32.429  -6.232 -22.374  0.00  0.00    +0.009 C 
ATOM      6  C   UNL     1      33.178  -8.465 -22.885  0.00  0.00    +0.086 C 
ATOM      7  C   UNL     1      33.037  -7.481 -21.710  0.00  0.00    +0.086 C 
ATOM      8  C   UNL     1      33.144  -6.253 -23.732  0.00  0.00    +0.001 C 
ATOM      9  C   UNL     1      31.114  -7.447 -23.985  0.00  0.00    +0.001 C 
ATOM     10  C   UNL     1      30.971  -6.467 -22.813  0.00  0.00    +0.001 C 
ATOM     11  C   UNL     1      32.389  -9.680 -22.477  0.00  0.00    +0.232 C 
ATOM     12  C   UNL     1      32.175  -8.195 -20.704  0.00  0.00    +0.232 C 
ENDROOT
BRANCH   3  13
ATOM     13  C   UNL     1      31.043 -10.403 -20.517  0.00  0.00    +0.181 C 
ATOM     14  C   UNL     1      30.413 -11.382 -21.498  0.00  0.00    +0.034 C 
BRANCH  13  16
ATOM     15  O   UNL     1      32.144 -12.331 -19.561  0.00  0.00    -0.248 OA
ATOM     16  C   UNL     1      31.824 -11.152 -19.451  0.00  0.00    +0.332 C 
BRANCH  16  17
ATOM     17  O   UNL     1      32.133 -10.418 -18.355  0.00  0.00    -0.479 OA
ATOM     18  H   UNL     1      33.029 -10.245 -18.145  0.00  0.00    +0.295 HD
ENDBRANCH  16  17
ENDBRANCH  13  16
ENDBRANCH   3  13
TORSDOF 3
ENDMDL
