MODEL 1
REMARK VINA RESULT:      -8.4      0.000      0.000
REMARK  Name = 73094
REMARK  10 active torsions:
REMARK  status: ('A' for Active; 'I' for Inactive)
REMARK    1  A    between atoms: C_1  and  C_3
REMARK    2  A    between atoms: C_1  and  N_6
REMARK    3  A    between atoms: C_1  and  C_18
REMARK    4  A    between atoms: C_3  and  C_5
REMARK    5  A    between atoms: N_6  and  S_8
REMARK    6  A    between atoms: S_8  and  C_11
REMARK    7  A    between atoms: C_18  and  C_19
REMARK    8  A    between atoms: C_19  and  C_20
REMARK    9  A    between atoms: C_20  and  C_21
REMARK   10  A    between atoms: C_21  and  N_22
REMARK                            x       y       z     vdW  Elec       q    Type
REMARK                         _______ _______ _______ _____ _____    ______ ____
ROOT
ATOM      1  C   UNL     1      31.975 -23.335 -16.484  0.00  0.00    +0.134 C 
ENDROOT
BRANCH   1   3
ATOM      2  O   UNL     1      29.824 -22.461 -17.127  0.00  0.00    -0.293 OA
ATOM      3  C   UNL     1      30.488 -23.074 -16.291  0.00  0.00    +0.183 C 
BRANCH   3   5
ATOM      4 CL   UNL     1      29.934 -25.405 -15.038  0.00  0.00    -0.105 Cl
ATOM      5  C   UNL     1      29.877 -23.635 -15.024  0.00  0.00    +0.160 C 
ENDBRANCH   3   5
ENDBRANCH   1   3
BRANCH   1   6
ATOM      6  N   UNL     1      32.458 -22.508 -17.612  0.00  0.00    -0.174 NA
ATOM      7  H   UNL     1      31.739 -22.546 -18.335  0.00  0.00    +0.149 HD
BRANCH   6   8
ATOM      8  S   UNL     1      33.934 -22.883 -18.368  0.00  0.00    +0.061 S 
ATOM      9  O   UNL     1      33.773 -24.081 -19.171  0.00  0.00    -0.153 OA
ATOM     10  O   UNL     1      34.998 -22.798 -17.388  0.00  0.00    -0.153 OA
BRANCH   8  11
ATOM     11  C   UNL     1      34.135 -21.514 -19.468  0.00  0.00    +0.122 C 
ATOM     12  C   UNL     1      35.409 -21.153 -19.872  0.00  0.00    +0.020 C 
ATOM     13  C   UNL     1      33.015 -20.827 -19.905  0.00  0.00    +0.020 C 
ATOM     14  C   UNL     1      34.450 -19.369 -21.190  0.00  0.00    -0.022 C 
ATOM     15  C   UNL     1      35.567 -20.072 -20.739  0.00  0.00    -0.003 C 
ATOM     16  C   UNL     1      33.173 -19.747 -20.772  0.00  0.00    -0.003 C 
ATOM     17  C   UNL     1      34.619 -18.213 -22.116  0.00  0.00    +0.031 C 
ENDBRANCH   8  11
ENDBRANCH   6   8
ENDBRANCH   1   6
BRANCH   1  18
ATOM     18  C   UNL     1      32.802 -23.049 -15.227  0.00  0.00    +0.025 C 
BRANCH  18  19
ATOM     19  C   UNL     1      33.369 -24.306 -14.551  0.00  0.00    -0.000 C 
BRANCH  19  20
ATOM     20  C   UNL     1      34.837 -24.157 -14.133  0.00  0.00    -0.024 C 
BRANCH  20  21
ATOM     21  C   UNL     1      35.833 -25.025 -14.905  0.00  0.00    -0.086 C 
BRANCH  21  22
ATOM     22  N   UNL     1      36.937 -24.241 -15.445  0.00  0.00    +0.380 N 
ATOM     23  H   UNL     1      37.822 -24.674 -15.182  0.00  0.00    -0.089 HD
ATOM     24  H   UNL     1      36.896 -23.293 -15.071  0.00  0.00    -0.089 HD
ATOM     25  H   UNL     1      36.864 -24.208 -16.463  0.00  0.00    -0.089 HD
ENDBRANCH  21  22
ENDBRANCH  20  21
ENDBRANCH  19  20
ENDBRANCH  18  19
ENDBRANCH   1  18
TORSDOF 10
ENDMDL
MODEL 2
REMARK VINA RESULT:      -8.2      5.821      9.401
REMARK  Name = 73094
REMARK  10 active torsions:
REMARK  status: ('A' for Active; 'I' for Inactive)
REMARK    1  A    between atoms: C_1  and  C_3
REMARK    2  A    between atoms: C_1  and  N_6
REMARK    3  A    between atoms: C_1  and  C_18
REMARK    4  A    between atoms: C_3  and  C_5
REMARK    5  A    between atoms: N_6  and  S_8
REMARK    6  A    between atoms: S_8  and  C_11
REMARK    7  A    between atoms: C_18  and  C_19
REMARK    8  A    between atoms: C_19  and  C_20
REMARK    9  A    between atoms: C_20  and  C_21
REMARK   10  A    between atoms: C_21  and  N_22
REMARK                            x       y       z     vdW  Elec       q    Type
REMARK                         _______ _______ _______ _____ _____    ______ ____
ROOT
ATOM      1  C   UNL     1      34.692 -16.058 -22.276  0.00  0.00    +0.134 C 
ENDROOT
BRANCH   1   3
ATOM      2  O   UNL     1      35.018 -15.148 -20.070  0.00  0.00    -0.293 OA
ATOM      3  C   UNL     1      34.227 -15.430 -20.971  0.00  0.00    +0.183 C 
BRANCH   3   5
ATOM      4 CL   UNL     1      32.435 -13.410 -20.832  0.00  0.00    -0.105 Cl
ATOM      5  C   UNL     1      32.742 -15.154 -20.862  0.00  0.00    +0.160 C 
ENDBRANCH   3   5
ENDBRANCH   1   3
BRANCH   1   6
ATOM      6  N   UNL     1      34.206 -17.454 -22.330  0.00  0.00    -0.174 NA
ATOM      7  H   UNL     1      33.675 -17.615 -21.474  0.00  0.00    +0.149 HD
BRANCH   6   8
ATOM      8  S   UNL     1      35.315 -18.735 -22.468  0.00  0.00    +0.061 S 
ATOM      9  O   UNL     1      36.634 -18.275 -22.076  0.00  0.00    -0.153 OA
ATOM     10  O   UNL     1      35.120 -19.388 -23.748  0.00  0.00    -0.153 OA
BRANCH   8  11
ATOM     11  C   UNL     1      34.737 -19.851 -21.226  0.00  0.00    +0.122 C 
ATOM     12  C   UNL     1      35.648 -20.648 -20.555  0.00  0.00    +0.020 C 
ATOM     13  C   UNL     1      33.382 -19.910 -20.947  0.00  0.00    +0.020 C 
ATOM     14  C   UNL     1      33.829 -21.601 -19.282  0.00  0.00    -0.022 C 
ATOM     15  C   UNL     1      35.192 -21.529 -19.576  0.00  0.00    -0.003 C 
ATOM     16  C   UNL     1      32.925 -20.790 -19.968  0.00  0.00    -0.003 C 
ATOM     17  C   UNL     1      33.341 -22.544 -18.235  0.00  0.00    +0.031 C 
ENDBRANCH   8  11
ENDBRANCH   6   8
ENDBRANCH   1   6
BRANCH   1  18
ATOM     18  C   UNL     1      34.223 -15.287 -23.513  0.00  0.00    +0.025 C 
BRANCH  18  19
ATOM     19  C   UNL     1      34.260 -16.104 -24.812  0.00  0.00    -0.000 C 
BRANCH  19  20
ATOM     20  C   UNL     1      33.326 -15.557 -25.899  0.00  0.00    -0.024 C 
BRANCH  20  21
ATOM     21  C   UNL     1      33.033 -14.057 -25.820  0.00  0.00    -0.086 C 
BRANCH  21  22
ATOM     22  N   UNL     1      33.316 -13.378 -27.078  0.00  0.00    +0.380 N 
ATOM     23  H   UNL     1      32.516 -12.803 -27.342  0.00  0.00    -0.089 HD
ATOM     24  H   UNL     1      33.492 -14.070 -27.806  0.00  0.00    -0.089 HD
ATOM     25  H   UNL     1      34.139 -12.786 -26.967  0.00  0.00    -0.089 HD
ENDBRANCH  21  22
ENDBRANCH  20  21
ENDBRANCH  19  20
ENDBRANCH  18  19
ENDBRANCH   1  18
TORSDOF 10
ENDMDL
MODEL 3
REMARK VINA RESULT:      -8.1      1.921      3.861
REMARK  Name = 73094
REMARK  10 active torsions:
REMARK  status: ('A' for Active; 'I' for Inactive)
REMARK    1  A    between atoms: C_1  and  C_3
REMARK    2  A    between atoms: C_1  and  N_6
REMARK    3  A    between atoms: C_1  and  C_18
REMARK    4  A    between atoms: C_3  and  C_5
REMARK    5  A    between atoms: N_6  and  S_8
REMARK    6  A    between atoms: S_8  and  C_11
REMARK    7  A    between atoms: C_18  and  C_19
REMARK    8  A    between atoms: C_19  and  C_20
REMARK    9  A    between atoms: C_20  and  C_21
REMARK   10  A    between atoms: C_21  and  N_22
REMARK                            x       y       z     vdW  Elec       q    Type
REMARK                         _______ _______ _______ _____ _____    ______ ____
ROOT
ATOM      1  C   UNL     1      34.322 -23.117 -15.854  0.00  0.00    +0.134 C 
ENDROOT
BRANCH   1   3
ATOM      2  O   UNL     1      35.635 -25.125 -15.640  0.00  0.00    -0.293 OA
ATOM      3  C   UNL     1      35.332 -24.027 -15.171  0.00  0.00    +0.183 C 
BRANCH   3   5
ATOM      4 CL   UNL     1      35.028 -24.018 -12.484  0.00  0.00    -0.105 Cl
ATOM      5  C   UNL     1      35.953 -23.490 -13.898  0.00  0.00    +0.160 C 
ENDBRANCH   3   5
ENDBRANCH   1   3
BRANCH   1   6
ATOM      6  N   UNL     1      34.794 -22.831 -17.226  0.00  0.00    -0.174 NA
ATOM      7  H   UNL     1      35.231 -21.910 -17.202  0.00  0.00    +0.149 HD
BRANCH   6   8
ATOM      8  S   UNL     1      33.690 -22.817 -18.518  0.00  0.00    +0.061 S 
ATOM      9  O   UNL     1      32.379 -22.438 -18.027  0.00  0.00    -0.153 OA
ATOM     10  O   UNL     1      33.857 -24.033 -19.291  0.00  0.00    -0.153 OA
BRANCH   8  11
ATOM     11  C   UNL     1      34.306 -21.489 -19.508  0.00  0.00    +0.122 C 
ATOM     12  C   UNL     1      33.410 -20.633 -20.124  0.00  0.00    +0.020 C 
ATOM     13  C   UNL     1      35.674 -21.329 -19.649  0.00  0.00    +0.020 C 
ATOM     14  C   UNL     1      35.272 -19.409 -21.059  0.00  0.00    -0.022 C 
ATOM     15  C   UNL     1      33.897 -19.585 -20.906  0.00  0.00    -0.003 C 
ATOM     16  C   UNL     1      36.161 -20.282 -20.430  0.00  0.00    -0.003 C 
ATOM     17  C   UNL     1      35.792 -18.289 -21.895  0.00  0.00    +0.031 C 
ENDBRANCH   8  11
ENDBRANCH   6   8
ENDBRANCH   1   6
BRANCH   1  18
ATOM     18  C   UNL     1      32.911 -23.711 -15.893  0.00  0.00    +0.025 C 
BRANCH  18  19
ATOM     19  C   UNL     1      32.112 -23.513 -14.597  0.00  0.00    -0.000 C 
BRANCH  19  20
ATOM     20  C   UNL     1      30.809 -22.729 -14.802  0.00  0.00    -0.024 C 
BRANCH  20  21
ATOM     21  C   UNL     1      29.756 -23.419 -15.672  0.00  0.00    -0.086 C 
BRANCH  21  22
ATOM     22  N   UNL     1      29.525 -22.704 -16.920  0.00  0.00    +0.380 N 
ATOM     23  H   UNL     1      29.840 -21.739 -16.823  0.00  0.00    -0.089 HD
ATOM     24  H   UNL     1      28.529 -22.716 -17.140  0.00  0.00    -0.089 HD
ATOM     25  H   UNL     1      30.044 -23.158 -17.672  0.00  0.00    -0.089 HD
ENDBRANCH  21  22
ENDBRANCH  20  21
ENDBRANCH  19  20
ENDBRANCH  18  19
ENDBRANCH   1  18
TORSDOF 10
ENDMDL
MODEL 4
REMARK VINA RESULT:      -8.1      2.487      4.083
REMARK  Name = 73094
REMARK  10 active torsions:
REMARK  status: ('A' for Active; 'I' for Inactive)
REMARK    1  A    between atoms: C_1  and  C_3
REMARK    2  A    between atoms: C_1  and  N_6
REMARK    3  A    between atoms: C_1  and  C_18
REMARK    4  A    between atoms: C_3  and  C_5
REMARK    5  A    between atoms: N_6  and  S_8
REMARK    6  A    between atoms: S_8  and  C_11
REMARK    7  A    between atoms: C_18  and  C_19
REMARK    8  A    between atoms: C_19  and  C_20
REMARK    9  A    between atoms: C_20  and  C_21
REMARK   10  A    between atoms: C_21  and  N_22
REMARK                            x       y       z     vdW  Elec       q    Type
REMARK                         _______ _______ _______ _____ _____    ______ ____
ROOT
ATOM      1  C   UNL     1      34.557 -22.843 -16.044  0.00  0.00    +0.134 C 
ENDROOT
BRANCH   1   3
ATOM      2  O   UNL     1      35.784 -23.077 -13.985  0.00  0.00    -0.293 OA
ATOM      3  C   UNL     1      35.825 -22.934 -15.207  0.00  0.00    +0.183 C 
BRANCH   3   5
ATOM      4 CL   UNL     1      37.406 -21.219 -16.574  0.00  0.00    -0.105 Cl
ATOM      5  C   UNL     1      37.129 -22.861 -15.973  0.00  0.00    +0.160 C 
ENDBRANCH   3   5
ENDBRANCH   1   3
BRANCH   1   6
ATOM      6  N   UNL     1      34.912 -23.053 -17.465  0.00  0.00    -0.174 NA
ATOM      7  H   UNL     1      35.649 -22.384 -17.688  0.00  0.00    +0.149 HD
BRANCH   6   8
ATOM      8  S   UNL     1      33.723 -22.893 -18.670  0.00  0.00    +0.061 S 
ATOM      9  O   UNL     1      32.463 -22.518 -18.056  0.00  0.00    -0.153 OA
ATOM     10  O   UNL     1      33.792 -24.042 -19.552  0.00  0.00    -0.153 OA
BRANCH   8  11
ATOM     11  C   UNL     1      34.318 -21.503 -19.584  0.00  0.00    +0.122 C 
ATOM     12  C   UNL     1      35.683 -21.307 -19.706  0.00  0.00    +0.020 C 
ATOM     13  C   UNL     1      33.408 -20.634 -20.162  0.00  0.00    +0.020 C 
ATOM     14  C   UNL     1      35.249 -19.323 -21.015  0.00  0.00    -0.022 C 
ATOM     15  C   UNL     1      36.152 -20.209 -20.426  0.00  0.00    -0.003 C 
ATOM     16  C   UNL     1      33.877 -19.536 -20.883  0.00  0.00    -0.003 C 
ATOM     17  C   UNL     1      35.751 -18.150 -21.785  0.00  0.00    +0.031 C 
ENDBRANCH   8  11
ENDBRANCH   6   8
ENDBRANCH   1   6
BRANCH   1  18
ATOM     18  C   UNL     1      33.482 -23.844 -15.614  0.00  0.00    +0.025 C 
BRANCH  18  19
ATOM     19  C   UNL     1      32.381 -23.240 -14.731  0.00  0.00    -0.000 C 
BRANCH  19  20
ATOM     20  C   UNL     1      30.994 -23.839 -14.997  0.00  0.00    -0.024 C 
BRANCH  20  21
ATOM     21  C   UNL     1      29.905 -22.835 -15.381  0.00  0.00    -0.086 C 
BRANCH  21  22
ATOM     22  N   UNL     1      29.778 -22.692 -16.825  0.00  0.00    +0.380 N 
ATOM     23  H   UNL     1      30.694 -22.809 -17.261  0.00  0.00    -0.089 HD
ATOM     24  H   UNL     1      29.414 -21.765 -17.045  0.00  0.00    -0.089 HD
ATOM     25  H   UNL     1      29.138 -23.402 -17.182  0.00  0.00    -0.089 HD
ENDBRANCH  21  22
ENDBRANCH  20  21
ENDBRANCH  19  20
ENDBRANCH  18  19
ENDBRANCH   1  18
TORSDOF 10
ENDMDL
MODEL 5
REMARK VINA RESULT:      -7.9      8.118     10.834
REMARK  Name = 73094
REMARK  10 active torsions:
REMARK  status: ('A' for Active; 'I' for Inactive)
REMARK    1  A    between atoms: C_1  and  C_3
REMARK    2  A    between atoms: C_1  and  N_6
REMARK    3  A    between atoms: C_1  and  C_18
REMARK    4  A    between atoms: C_3  and  C_5
REMARK    5  A    between atoms: N_6  and  S_8
REMARK    6  A    between atoms: S_8  and  C_11
REMARK    7  A    between atoms: C_18  and  C_19
REMARK    8  A    between atoms: C_19  and  C_20
REMARK    9  A    between atoms: C_20  and  C_21
REMARK   10  A    between atoms: C_21  and  N_22
REMARK                            x       y       z     vdW  Elec       q    Type
REMARK                         _______ _______ _______ _____ _____    ______ ____
ROOT
ATOM      1  C   UNL     1      34.128 -15.345 -22.801  0.00  0.00    +0.134 C 
ENDROOT
BRANCH   1   3
ATOM      2  O   UNL     1      35.013 -15.566 -20.571  0.00  0.00    -0.293 OA
ATOM      3  C   UNL     1      34.026 -15.373 -21.283  0.00  0.00    +0.183 C 
BRANCH   3   5
ATOM      4 CL   UNL     1      32.405 -13.398 -20.398  0.00  0.00    -0.105 Cl
ATOM      5  C   UNL     1      32.648 -15.125 -20.708  0.00  0.00    +0.160 C 
ENDBRANCH   3   5
ENDBRANCH   1   3
BRANCH   1   6
ATOM      6  N   UNL     1      34.331 -13.946 -23.236  0.00  0.00    -0.174 NA
ATOM      7  H   UNL     1      34.396 -13.380 -22.390  0.00  0.00    +0.149 HD
BRANCH   6   8
ATOM      8  S   UNL     1      33.184 -13.195 -24.242  0.00  0.00    +0.061 S 
ATOM      9  O   UNL     1      31.862 -13.358 -23.670  0.00  0.00    -0.153 OA
ATOM     10  O   UNL     1      33.439 -13.584 -25.615  0.00  0.00    -0.153 OA
BRANCH   8  11
ATOM     11  C   UNL     1      33.634 -11.492 -24.096  0.00  0.00    +0.122 C 
ATOM     12  C   UNL     1      34.707 -11.011 -24.826  0.00  0.00    +0.020 C 
ATOM     13  C   UNL     1      32.906 -10.670 -23.253  0.00  0.00    +0.020 C 
ATOM     14  C   UNL     1      34.339  -8.825 -23.865  0.00  0.00    -0.022 C 
ATOM     15  C   UNL     1      35.062  -9.667 -24.710  0.00  0.00    -0.003 C 
ATOM     16  C   UNL     1      33.260  -9.327 -23.137  0.00  0.00    -0.003 C 
ATOM     17  C   UNL     1      34.719  -7.389 -23.741  0.00  0.00    +0.031 C 
ENDBRANCH   8  11
ENDBRANCH   6   8
ENDBRANCH   1   6
BRANCH   1  18
ATOM     18  C   UNL     1      35.251 -16.235 -23.342  0.00  0.00    +0.025 C 
BRANCH  18  19
ATOM     19  C   UNL     1      34.764 -17.565 -23.937  0.00  0.00    -0.000 C 
BRANCH  19  20
ATOM     20  C   UNL     1      35.259 -18.792 -23.161  0.00  0.00    -0.024 C 
BRANCH  20  21
ATOM     21  C   UNL     1      34.680 -18.958 -21.754  0.00  0.00    -0.086 C 
BRANCH  21  22
ATOM     22  N   UNL     1      35.660 -18.651 -20.720  0.00  0.00    +0.380 N 
ATOM     23  H   UNL     1      36.078 -17.739 -20.907  0.00  0.00    -0.089 HD
ATOM     24  H   UNL     1      36.389 -19.364 -20.720  0.00  0.00    -0.089 HD
ATOM     25  H   UNL     1      35.200 -18.635 -19.810  0.00  0.00    -0.089 HD
ENDBRANCH  21  22
ENDBRANCH  20  21
ENDBRANCH  19  20
ENDBRANCH  18  19
ENDBRANCH   1  18
TORSDOF 10
ENDMDL
MODEL 6
REMARK VINA RESULT:      -7.9      7.288     10.807
REMARK  Name = 73094
REMARK  10 active torsions:
REMARK  status: ('A' for Active; 'I' for Inactive)
REMARK    1  A    between atoms: C_1  and  C_3
REMARK    2  A    between atoms: C_1  and  N_6
REMARK    3  A    between atoms: C_1  and  C_18
REMARK    4  A    between atoms: C_3  and  C_5
REMARK    5  A    between atoms: N_6  and  S_8
REMARK    6  A    between atoms: S_8  and  C_11
REMARK    7  A    between atoms: C_18  and  C_19
REMARK    8  A    between atoms: C_19  and  C_20
REMARK    9  A    between atoms: C_20  and  C_21
REMARK   10  A    between atoms: C_21  and  N_22
REMARK                            x       y       z     vdW  Elec       q    Type
REMARK                         _______ _______ _______ _____ _____    ______ ____
ROOT
ATOM      1  C   UNL     1      33.555 -15.163 -24.014  0.00  0.00    +0.134 C 
ENDROOT
BRANCH   1   3
ATOM      2  O   UNL     1      34.555 -16.382 -25.835  0.00  0.00    -0.293 OA
ATOM      3  C   UNL     1      33.708 -15.565 -25.474  0.00  0.00    +0.183 C 
BRANCH   3   5
ATOM      4 CL   UNL     1      33.525 -13.580 -27.300  0.00  0.00    -0.105 Cl
ATOM      5  C   UNL     1      32.742 -14.916 -26.443  0.00  0.00    +0.160 C 
ENDBRANCH   3   5
ENDBRANCH   1   3
BRANCH   1   6
ATOM      6  N   UNL     1      34.299 -16.130 -23.176  0.00  0.00    -0.174 NA
ATOM      7  H   UNL     1      34.091 -17.059 -23.542  0.00  0.00    +0.149 HD
BRANCH   6   8
ATOM      8  S   UNL     1      34.023 -16.190 -21.500  0.00  0.00    +0.061 S 
ATOM      9  O   UNL     1      32.600 -16.074 -21.242  0.00  0.00    -0.153 OA
ATOM     10  O   UNL     1      34.960 -15.303 -20.838  0.00  0.00    -0.153 OA
BRANCH   8  11
ATOM     11  C   UNL     1      34.513 -17.843 -21.111  0.00  0.00    +0.122 C 
ATOM     12  C   UNL     1      35.861 -18.149 -21.041  0.00  0.00    +0.020 C 
ATOM     13  C   UNL     1      33.540 -18.801 -20.884  0.00  0.00    +0.020 C 
ATOM     14  C   UNL     1      35.281 -20.432 -20.503  0.00  0.00    -0.022 C 
ATOM     15  C   UNL     1      36.248 -19.454 -20.735  0.00  0.00    -0.003 C 
ATOM     16  C   UNL     1      33.926 -20.105 -20.577  0.00  0.00    -0.003 C 
ATOM     17  C   UNL     1      35.694 -21.827 -20.176  0.00  0.00    +0.031 C 
ENDBRANCH   8  11
ENDBRANCH   6   8
ENDBRANCH   1   6
BRANCH   1  18
ATOM     18  C   UNL     1      34.038 -13.738 -23.730  0.00  0.00    +0.025 C 
BRANCH  18  19
ATOM     19  C   UNL     1      32.932 -12.785 -23.253  0.00  0.00    -0.000 C 
BRANCH  19  20
ATOM     20  C   UNL     1      33.222 -11.313 -23.573  0.00  0.00    -0.024 C 
BRANCH  20  21
ATOM     21  C   UNL     1      34.067 -11.065 -24.825  0.00  0.00    -0.086 C 
BRANCH  21  22
ATOM     22  N   UNL     1      35.287 -10.328 -24.523  0.00  0.00    +0.380 N 
ATOM     23  H   UNL     1      35.519 -10.443 -23.536  0.00  0.00    -0.089 HD
ATOM     24  H   UNL     1      35.146  -9.339 -24.726  0.00  0.00    -0.089 HD
ATOM     25  H   UNL     1      36.051 -10.687 -25.096  0.00  0.00    -0.089 HD
ENDBRANCH  21  22
ENDBRANCH  20  21
ENDBRANCH  19  20
ENDBRANCH  18  19
ENDBRANCH   1  18
TORSDOF 10
ENDMDL
MODEL 7
REMARK VINA RESULT:      -7.7      1.852      2.841
REMARK  Name = 73094
REMARK  10 active torsions:
REMARK  status: ('A' for Active; 'I' for Inactive)
REMARK    1  A    between atoms: C_1  and  C_3
REMARK    2  A    between atoms: C_1  and  N_6
REMARK    3  A    between atoms: C_1  and  C_18
REMARK    4  A    between atoms: C_3  and  C_5
REMARK    5  A    between atoms: N_6  and  S_8
REMARK    6  A    between atoms: S_8  and  C_11
REMARK    7  A    between atoms: C_18  and  C_19
REMARK    8  A    between atoms: C_19  and  C_20
REMARK    9  A    between atoms: C_20  and  C_21
REMARK   10  A    between atoms: C_21  and  N_22
REMARK                            x       y       z     vdW  Elec       q    Type
REMARK                         _______ _______ _______ _____ _____    ______ ____
ROOT
ATOM      1  C   UNL     1      34.591 -23.963 -15.768  0.00  0.00    +0.134 C 
ENDROOT
BRANCH   1   3
ATOM      2  O   UNL     1      34.157 -23.828 -13.402  0.00  0.00    -0.293 OA
ATOM      3  C   UNL     1      33.697 -23.972 -14.536  0.00  0.00    +0.183 C 
BRANCH   3   5
ATOM      4 CL   UNL     1      31.352 -22.629 -14.481  0.00  0.00    -0.105 Cl
ATOM      5  C   UNL     1      32.215 -24.143 -14.795  0.00  0.00    +0.160 C 
ENDBRANCH   3   5
ENDBRANCH   1   3
BRANCH   1   6
ATOM      6  N   UNL     1      34.256 -22.777 -16.586  0.00  0.00    -0.174 NA
ATOM      7  H   UNL     1      33.703 -22.156 -15.995  0.00  0.00    +0.149 HD
BRANCH   6   8
ATOM      8  S   UNL     1      33.397 -22.964 -18.041  0.00  0.00    +0.061 S 
ATOM      9  O   UNL     1      32.021 -22.552 -17.844  0.00  0.00    -0.153 OA
ATOM     10  O   UNL     1      33.696 -24.269 -18.598  0.00  0.00    -0.153 OA
BRANCH   8  11
ATOM     11  C   UNL     1      34.180 -21.768 -19.081  0.00  0.00    +0.122 C 
ATOM     12  C   UNL     1      33.397 -20.911 -19.834  0.00  0.00    +0.020 C 
ATOM     13  C   UNL     1      35.563 -21.712 -19.125  0.00  0.00    +0.020 C 
ATOM     14  C   UNL     1      35.408 -19.897 -20.711  0.00  0.00    -0.022 C 
ATOM     15  C   UNL     1      34.015 -19.968 -20.655  0.00  0.00    -0.003 C 
ATOM     16  C   UNL     1      36.181 -20.770 -19.945  0.00  0.00    -0.003 C 
ATOM     17  C   UNL     1      36.068 -18.890 -21.589  0.00  0.00    +0.031 C 
ENDBRANCH   8  11
ENDBRANCH   6   8
ENDBRANCH   1   6
BRANCH   1  18
ATOM     18  C   UNL     1      36.083 -23.965 -15.425  0.00  0.00    +0.025 C 
BRANCH  18  19
ATOM     19  C   UNL     1      36.654 -25.358 -15.122  0.00  0.00    -0.000 C 
BRANCH  19  20
ATOM     20  C   UNL     1      37.426 -25.421 -13.798  0.00  0.00    -0.024 C 
BRANCH  20  21
ATOM     21  C   UNL     1      38.949 -25.497 -13.927  0.00  0.00    -0.086 C 
BRANCH  21  22
ATOM     22  N   UNL     1      39.391 -25.305 -15.301  0.00  0.00    +0.380 N 
ATOM     23  H   UNL     1      38.579 -25.209 -15.910  0.00  0.00    -0.089 HD
ATOM     24  H   UNL     1      39.945 -26.109 -15.597  0.00  0.00    -0.089 HD
ATOM     25  H   UNL     1      39.962 -24.461 -15.360  0.00  0.00    -0.089 HD
ENDBRANCH  21  22
ENDBRANCH  20  21
ENDBRANCH  19  20
ENDBRANCH  18  19
ENDBRANCH   1  18
TORSDOF 10
ENDMDL
MODEL 8
REMARK VINA RESULT:      -7.7      6.083      9.455
REMARK  Name = 73094
REMARK  10 active torsions:
REMARK  status: ('A' for Active; 'I' for Inactive)
REMARK    1  A    between atoms: C_1  and  C_3
REMARK    2  A    between atoms: C_1  and  N_6
REMARK    3  A    between atoms: C_1  and  C_18
REMARK    4  A    between atoms: C_3  and  C_5
REMARK    5  A    between atoms: N_6  and  S_8
REMARK    6  A    between atoms: S_8  and  C_11
REMARK    7  A    between atoms: C_18  and  C_19
REMARK    8  A    between atoms: C_19  and  C_20
REMARK    9  A    between atoms: C_20  and  C_21
REMARK   10  A    between atoms: C_21  and  N_22
REMARK                            x       y       z     vdW  Elec       q    Type
REMARK                         _______ _______ _______ _____ _____    ______ ____
ROOT
ATOM      1  C   UNL     1      33.808 -16.482 -22.101  0.00  0.00    +0.134 C 
ENDROOT
BRANCH   1   3
ATOM      2  O   UNL     1      35.287 -14.843 -23.065  0.00  0.00    -0.293 OA
ATOM      3  C   UNL     1      34.421 -15.698 -23.253  0.00  0.00    +0.183 C 
BRANCH   3   5
ATOM      4 CL   UNL     1      33.105 -14.664 -25.376  0.00  0.00    -0.105 Cl
ATOM      5  C   UNL     1      33.917 -16.052 -24.636  0.00  0.00    +0.160 C 
ENDBRANCH   3   5
ENDBRANCH   1   3
BRANCH   1   6
ATOM      6  N   UNL     1      34.891 -17.183 -21.377  0.00  0.00    -0.174 NA
ATOM      7  H   UNL     1      35.655 -16.517 -21.270  0.00  0.00    +0.149 HD
BRANCH   6   8
ATOM      8  S   UNL     1      35.565 -18.603 -22.026  0.00  0.00    +0.061 S 
ATOM      9  O   UNL     1      37.009 -18.549 -21.904  0.00  0.00    -0.153 OA
ATOM     10  O   UNL     1      34.950 -18.869 -23.312  0.00  0.00    -0.153 OA
BRANCH   8  11
ATOM     11  C   UNL     1      34.969 -19.832 -20.905  0.00  0.00    +0.122 C 
ATOM     12  C   UNL     1      33.607 -19.949 -20.690  0.00  0.00    +0.020 C 
ATOM     13  C   UNL     1      35.876 -20.656 -20.260  0.00  0.00    +0.020 C 
ATOM     14  C   UNL     1      34.038 -21.757 -19.147  0.00  0.00    -0.022 C 
ATOM     15  C   UNL     1      33.137 -20.918 -19.805  0.00  0.00    -0.003 C 
ATOM     16  C   UNL     1      35.408 -21.626 -19.376  0.00  0.00    -0.003 C 
ATOM     17  C   UNL     1      33.535 -22.794 -18.200  0.00  0.00    +0.031 C 
ENDBRANCH   8  11
ENDBRANCH   6   8
ENDBRANCH   1   6
BRANCH   1  18
ATOM     18  C   UNL     1      33.010 -15.602 -21.135  0.00  0.00    +0.025 C 
BRANCH  18  19
ATOM     19  C   UNL     1      32.304 -14.415 -21.807  0.00  0.00    -0.000 C 
BRANCH  19  20
ATOM     20  C   UNL     1      32.264 -13.158 -20.928  0.00  0.00    -0.024 C 
BRANCH  20  21
ATOM     21  C   UNL     1      31.831 -11.873 -21.637  0.00  0.00    -0.086 C 
BRANCH  21  22
ATOM     22  N   UNL     1      30.453 -11.516 -21.326  0.00  0.00    +0.380 N 
ATOM     23  H   UNL     1      30.252 -10.585 -21.693  0.00  0.00    -0.089 HD
ATOM     24  H   UNL     1      30.321 -11.518 -20.315  0.00  0.00    -0.089 HD
ATOM     25  H   UNL     1      29.822 -12.194 -21.753  0.00  0.00    -0.089 HD
ENDBRANCH  21  22
ENDBRANCH  20  21
ENDBRANCH  19  20
ENDBRANCH  18  19
ENDBRANCH   1  18
TORSDOF 10
ENDMDL
MODEL 9
REMARK VINA RESULT:      -7.6      2.626      3.553
REMARK  Name = 73094
REMARK  10 active torsions:
REMARK  status: ('A' for Active; 'I' for Inactive)
REMARK    1  A    between atoms: C_1  and  C_3
REMARK    2  A    between atoms: C_1  and  N_6
REMARK    3  A    between atoms: C_1  and  C_18
REMARK    4  A    between atoms: C_3  and  C_5
REMARK    5  A    between atoms: N_6  and  S_8
REMARK    6  A    between atoms: S_8  and  C_11
REMARK    7  A    between atoms: C_18  and  C_19
REMARK    8  A    between atoms: C_19  and  C_20
REMARK    9  A    between atoms: C_20  and  C_21
REMARK   10  A    between atoms: C_21  and  N_22
REMARK                            x       y       z     vdW  Elec       q    Type
REMARK                         _______ _______ _______ _____ _____    ______ ____
ROOT
ATOM      1  C   UNL     1      34.339 -23.997 -13.700  0.00  0.00    +0.134 C 
ENDROOT
BRANCH   1   3
ATOM      2  O   UNL     1      32.277 -23.207 -12.739  0.00  0.00    -0.293 OA
ATOM      3  C   UNL     1      32.832 -23.791 -13.670  0.00  0.00    +0.183 C 
BRANCH   3   5
ATOM      4 CL   UNL     1      31.374 -22.995 -15.803  0.00  0.00    -0.105 Cl
ATOM      5  C   UNL     1      32.068 -24.326 -14.863  0.00  0.00    +0.160 C 
ENDBRANCH   3   5
ENDBRANCH   1   3
BRANCH   1   6
ATOM      6  N   UNL     1      34.944 -22.943 -14.544  0.00  0.00    -0.174 NA
ATOM      7  H   UNL     1      34.211 -22.607 -15.168  0.00  0.00    +0.149 HD
BRANCH   6   8
ATOM      8  S   UNL     1      36.291 -23.303 -15.517  0.00  0.00    +0.061 S 
ATOM      9  O   UNL     1      36.353 -24.735 -15.742  0.00  0.00    -0.153 OA
ATOM     10  O   UNL     1      37.446 -22.594 -15.002  0.00  0.00    -0.153 OA
BRANCH   8  11
ATOM     11  C   UNL     1      35.851 -22.531 -17.045  0.00  0.00    +0.122 C 
ATOM     12  C   UNL     1      34.571 -22.700 -17.544  0.00  0.00    +0.020 C 
ATOM     13  C   UNL     1      36.795 -21.772 -17.716  0.00  0.00    +0.020 C 
ATOM     14  C   UNL     1      35.164 -21.323 -19.440  0.00  0.00    -0.022 C 
ATOM     15  C   UNL     1      34.225 -22.091 -18.751  0.00  0.00    -0.003 C 
ATOM     16  C   UNL     1      36.449 -21.163 -18.921  0.00  0.00    -0.003 C 
ATOM     17  C   UNL     1      34.794 -20.673 -20.729  0.00  0.00    +0.031 C 
ENDBRANCH   8  11
ENDBRANCH   6   8
ENDBRANCH   1   6
BRANCH   1  18
ATOM     18  C   UNL     1      34.973 -23.986 -12.306  0.00  0.00    +0.025 C 
BRANCH  18  19
ATOM     19  C   UNL     1      36.027 -25.082 -12.089  0.00  0.00    -0.000 C 
BRANCH  19  20
ATOM     20  C   UNL     1      37.467 -24.558 -12.151  0.00  0.00    -0.024 C 
BRANCH  20  21
ATOM     21  C   UNL     1      38.476 -25.486 -12.831  0.00  0.00    -0.086 C 
BRANCH  21  22
ATOM     22  N   UNL     1      37.828 -26.442 -13.719  0.00  0.00    +0.380 N 
ATOM     23  H   UNL     1      36.824 -26.261 -13.738  0.00  0.00    -0.089 HD
ATOM     24  H   UNL     1      37.997 -27.389 -13.381  0.00  0.00    -0.089 HD
ATOM     25  H   UNL     1      38.210 -26.344 -14.660  0.00  0.00    -0.089 HD
ENDBRANCH  21  22
ENDBRANCH  20  21
ENDBRANCH  19  20
ENDBRANCH  18  19
ENDBRANCH   1  18
TORSDOF 10
ENDMDL
