MODEL 1
REMARK VINA RESULT:      -4.5      0.000      0.000
REMARK  Name = 9642
REMARK  5 active torsions:
REMARK  status: ('A' for Active; 'I' for Inactive)
REMARK    1  A    between atoms: C_9  and  C_31
REMARK    2  A    between atoms: C_14  and  O_28
REMARK    3  A    between atoms: C_31  and  C_32
REMARK    4  A    between atoms: C_32  and  O_33
REMARK    5  A    between atoms: O_33  and  C_35
REMARK                            x       y       z     vdW  Elec       q    Type
REMARK                         _______ _______ _______ _____ _____    ______ ____
ROOT
ATOM      1  F   UNL     1      32.536 -25.296 -15.155  0.00  0.00    -0.237 F 
ATOM      2  F   UNL     1      30.519 -23.929 -11.567  0.00  0.00    -0.233 F 
ATOM      3  O   UNL     1      36.924 -25.066 -15.208  0.00  0.00    -0.330 OA
ATOM      4  O   UNL     1      37.626 -24.447 -13.051  0.00  0.00    -0.334 OA
ATOM      5  O   UNL     1      27.837 -26.524 -14.747  0.00  0.00    -0.287 OA
ATOM      6  C   UNL     1      35.332 -23.184 -15.440  0.00  0.00    +0.034 C 
ATOM      7  C   UNL     1      34.609 -23.649 -14.155  0.00  0.00    +0.008 C 
ATOM      8  C   UNL     1      33.125 -23.262 -14.119  0.00  0.00    +0.036 C 
ATOM      9  C   UNL     1      36.773 -23.653 -15.113  0.00  0.00    +0.174 C 
ATOM     10  C   UNL     1      32.396 -23.928 -15.338  0.00  0.00    +0.165 C 
ATOM     11  C   UNL     1      36.952 -23.331 -13.627  0.00  0.00    +0.149 C 
ATOM     12  C   UNL     1      35.535 -23.177 -13.032  0.00  0.00    +0.033 C 
ATOM     13  C   UNL     1      34.650 -23.888 -16.629  0.00  0.00    +0.035 C 
ATOM     14  C   UNL     1      33.125 -23.641 -16.686  0.00  0.00    +0.141 C 
ATOM     15  C   UNL     1      30.840 -23.657 -15.315  0.00  0.00    +0.066 C 
ATOM     16  C   UNL     1      32.490 -23.697 -12.789  0.00  0.00    +0.042 C 
ATOM     17  C   UNL     1      35.319 -21.642 -15.630  0.00  0.00    +0.003 C 
ATOM     18  C   UNL     1      30.989 -23.441 -12.754  0.00  0.00    +0.180 C 
ATOM     19  C   UNL     1      37.623 -25.487 -14.031  0.00  0.00    +0.188 C 
ATOM     20  C   UNL     1      30.316 -24.089 -13.938  0.00  0.00    -0.003 C 
ATOM     21  C   UNL     1      30.456 -22.174 -15.529  0.00  0.00    +0.011 C 
ATOM     22  C   UNL     1      30.158 -24.434 -16.434  0.00  0.00    -0.017 C 
ATOM     23  C   UNL     1      39.062 -25.819 -14.407  0.00  0.00    +0.061 C 
ATOM     24  C   UNL     1      36.931 -26.713 -13.442  0.00  0.00    +0.061 C 
ATOM     25  C   UNL     1      29.354 -25.009 -13.766  0.00  0.00    +0.036 C 
ATOM     26  C   UNL     1      29.202 -25.352 -16.265  0.00  0.00    +0.038 C 
ATOM     27  C   UNL     1      28.724 -25.694 -14.914  0.00  0.00    +0.195 C 
ENDROOT
BRANCH  14  28
ATOM     28  O   UNL     1      32.869 -22.323 -17.147  0.00  0.00    -0.382 OA
ATOM     29  H   UNL     1      33.146 -21.685 -16.471  0.00  0.00    +0.210 HD
ENDBRANCH  14  28
BRANCH   9  31
ATOM     30  O   UNL     1      38.961 -23.527 -16.048  0.00  0.00    -0.290 OA
ATOM     31  C   UNL     1      37.825 -23.060 -16.003  0.00  0.00    +0.221 C 
BRANCH  31  32
ATOM     32  C   UNL     1      37.405 -21.865 -16.832  0.00  0.00    +0.275 C 
BRANCH  32  33
ATOM     33  O   UNL     1      37.196 -22.240 -18.178  0.00  0.00    -0.440 OA
BRANCH  33  35
ATOM     34  O   UNL     1      36.862 -20.174 -19.156  0.00  0.00    -0.250 OA
ATOM     35  C   UNL     1      36.527 -21.335 -18.962  0.00  0.00    +0.318 C 
ATOM     36  C   UNL     1      35.308 -21.968 -19.560  0.00  0.00    +0.121 C 
ENDBRANCH  33  35
ENDBRANCH  32  33
ENDBRANCH  31  32
ENDBRANCH   9  31
TORSDOF 5
ENDMDL
MODEL 2
REMARK VINA RESULT:      -4.0      2.158      4.340
REMARK  Name = 9642
REMARK  5 active torsions:
REMARK  status: ('A' for Active; 'I' for Inactive)
REMARK    1  A    between atoms: C_9  and  C_31
REMARK    2  A    between atoms: C_14  and  O_28
REMARK    3  A    between atoms: C_31  and  C_32
REMARK    4  A    between atoms: C_32  and  O_33
REMARK    5  A    between atoms: O_33  and  C_35
REMARK                            x       y       z     vdW  Elec       q    Type
REMARK                         _______ _______ _______ _____ _____    ______ ____
ROOT
ATOM      1  F   UNL     1      31.290 -22.533 -15.700  0.00  0.00    -0.237 F 
ATOM      2  F   UNL     1      29.626 -26.051 -17.615  0.00  0.00    -0.233 F 
ATOM      3  O   UNL     1      35.622 -22.499 -14.968  0.00  0.00    -0.330 OA
ATOM      4  O   UNL     1      36.532 -24.393 -16.022  0.00  0.00    -0.334 OA
ATOM      5  O   UNL     1      26.745 -22.089 -17.406  0.00  0.00    -0.287 OA
ATOM      6  C   UNL     1      33.910 -23.779 -13.717  0.00  0.00    +0.034 C 
ATOM      7  C   UNL     1      33.368 -24.340 -15.051  0.00  0.00    +0.008 C 
ATOM      8  C   UNL     1      31.879 -24.703 -14.996  0.00  0.00    +0.036 C 
ATOM      9  C   UNL     1      35.403 -23.604 -14.095  0.00  0.00    +0.174 C 
ATOM     10  C   UNL     1      31.053 -23.414 -14.656  0.00  0.00    +0.165 C 
ATOM     11  C   UNL     1      35.735 -24.844 -14.929  0.00  0.00    +0.149 C 
ATOM     12  C   UNL     1      34.390 -25.415 -15.430  0.00  0.00    +0.033 C 
ATOM     13  C   UNL     1      33.137 -22.480 -13.418  0.00  0.00    +0.035 C 
ATOM     14  C   UNL     1      31.604 -22.679 -13.396  0.00  0.00    +0.141 C 
ATOM     15  C   UNL     1      29.496 -23.686 -14.679  0.00  0.00    +0.066 C 
ATOM     16  C   UNL     1      31.426 -25.314 -16.332  0.00  0.00    +0.042 C 
ATOM     17  C   UNL     1      33.789 -24.778 -12.534  0.00  0.00    +0.003 C 
ATOM     18  C   UNL     1      29.928 -25.582 -16.368  0.00  0.00    +0.180 C 
ATOM     19  C   UNL     1      36.474 -22.966 -16.019  0.00  0.00    +0.188 C 
ATOM     20  C   UNL     1      29.160 -24.327 -16.033  0.00  0.00    -0.003 C 
ATOM     21  C   UNL     1      29.007 -24.640 -13.564  0.00  0.00    +0.011 C 
ATOM     22  C   UNL     1      28.735 -22.383 -14.481  0.00  0.00    -0.017 C 
ATOM     23  C   UNL     1      37.877 -22.413 -15.797  0.00  0.00    +0.061 C 
ATOM     24  C   UNL     1      35.925 -22.496 -17.363  0.00  0.00    +0.061 C 
ATOM     25  C   UNL     1      28.278 -23.807 -16.901  0.00  0.00    +0.036 C 
ATOM     26  C   UNL     1      27.858 -21.861 -15.344  0.00  0.00    +0.038 C 
ATOM     27  C   UNL     1      27.559 -22.549 -16.613  0.00  0.00    +0.195 C 
ENDROOT
BRANCH  14  28
ATOM     28  O   UNL     1      31.223 -23.340 -12.199  0.00  0.00    -0.382 OA
ATOM     29  H   UNL     1      31.486 -22.802 -11.436  0.00  0.00    +0.210 HD
ENDBRANCH  14  28
BRANCH   9  31
ATOM     30  O   UNL     1      36.327 -22.324 -12.309  0.00  0.00    -0.290 OA
ATOM     31  C   UNL     1      36.311 -23.392 -12.919  0.00  0.00    +0.221 C 
BRANCH  31  32
ATOM     32  C   UNL     1      37.193 -24.560 -12.535  0.00  0.00    +0.275 C 
BRANCH  32  33
ATOM     33  O   UNL     1      38.478 -24.425 -13.106  0.00  0.00    -0.440 OA
BRANCH  33  35
ATOM     34  O   UNL     1      38.413 -26.612 -13.846  0.00  0.00    -0.250 OA
ATOM     35  C   UNL     1      38.988 -25.539 -13.722  0.00  0.00    +0.318 C 
ATOM     36  C   UNL     1      40.369 -25.263 -14.232  0.00  0.00    +0.121 C 
ENDBRANCH  33  35
ENDBRANCH  32  33
ENDBRANCH  31  32
ENDBRANCH   9  31
TORSDOF 5
ENDMDL
MODEL 3
REMARK VINA RESULT:      -3.4     10.999     14.467
REMARK  Name = 9642
REMARK  5 active torsions:
REMARK  status: ('A' for Active; 'I' for Inactive)
REMARK    1  A    between atoms: C_9  and  C_31
REMARK    2  A    between atoms: C_14  and  O_28
REMARK    3  A    between atoms: C_31  and  C_32
REMARK    4  A    between atoms: C_32  and  O_33
REMARK    5  A    between atoms: O_33  and  C_35
REMARK                            x       y       z     vdW  Elec       q    Type
REMARK                         _______ _______ _______ _____ _____    ______ ____
ROOT
ATOM      1  F   UNL     1      34.442 -14.155 -21.290  0.00  0.00    -0.237 F 
ATOM      2  F   UNL     1      31.536 -17.188 -20.212  0.00  0.00    -0.233 F 
ATOM      3  O   UNL     1      33.105  -9.970 -21.218  0.00  0.00    -0.330 OA
ATOM      4  O   UNL     1      30.946  -9.934 -20.291  0.00  0.00    -0.334 OA
ATOM      5  O   UNL     1      36.228 -18.600 -20.386  0.00  0.00    -0.287 OA
ATOM      6  C   UNL     1      32.553 -11.681 -22.922  0.00  0.00    +0.034 C 
ATOM      7  C   UNL     1      32.106 -12.642 -21.798  0.00  0.00    +0.008 C 
ATOM      8  C   UNL     1      32.256 -14.123 -22.170  0.00  0.00    +0.036 C 
ATOM      9  C   UNL     1      32.200 -10.324 -22.261  0.00  0.00    +0.174 C 
ATOM     10  C   UNL     1      33.766 -14.420 -22.472  0.00  0.00    +0.165 C 
ATOM     11  C   UNL     1      30.862 -10.576 -21.560  0.00  0.00    +0.149 C 
ATOM     12  C   UNL     1      30.730 -12.106 -21.394  0.00  0.00    +0.033 C 
ATOM     13  C   UNL     1      34.052 -11.935 -23.173  0.00  0.00    +0.035 C 
ATOM     14  C   UNL     1      34.369 -13.414 -23.498  0.00  0.00    +0.141 C 
ATOM     15  C   UNL     1      34.019 -15.952 -22.767  0.00  0.00    +0.066 C 
ATOM     16  C   UNL     1      31.731 -15.017 -21.035  0.00  0.00    +0.042 C 
ATOM     17  C   UNL     1      31.739 -11.845 -24.235  0.00  0.00    +0.003 C 
ATOM     18  C   UNL     1      31.969 -16.496 -21.307  0.00  0.00    +0.180 C 
ATOM     19  C   UNL     1      32.309  -9.549 -20.106  0.00  0.00    +0.188 C 
ATOM     20  C   UNL     1      33.427 -16.752 -21.598  0.00  0.00    -0.003 C 
ATOM     21  C   UNL     1      33.363 -16.458 -24.073  0.00  0.00    +0.011 C 
ATOM     22  C   UNL     1      35.511 -16.216 -22.917  0.00  0.00    -0.017 C 
ATOM     23  C   UNL     1      32.385  -8.031 -19.993  0.00  0.00    +0.061 C 
ATOM     24  C   UNL     1      32.833 -10.203 -18.831  0.00  0.00    +0.061 C 
ATOM     25  C   UNL     1      34.143 -17.597 -20.840  0.00  0.00    +0.036 C 
ATOM     26  C   UNL     1      36.227 -17.055 -22.162  0.00  0.00    +0.038 C 
ATOM     27  C   UNL     1      35.585 -17.816 -21.075  0.00  0.00    +0.195 C 
ENDROOT
BRANCH  14  28
ATOM     28  O   UNL     1      33.960 -13.712 -24.824  0.00  0.00    -0.382 OA
ATOM     29  H   UNL     1      34.735 -13.949 -25.355  0.00  0.00    +0.210 HD
ENDBRANCH  14  28
BRANCH   9  31
ATOM     30  O   UNL     1      33.212  -8.798 -23.787  0.00  0.00    -0.290 OA
ATOM     31  C   UNL     1      32.188  -9.165 -23.214  0.00  0.00    +0.221 C 
BRANCH  31  32
ATOM     32  C   UNL     1      30.852  -8.484 -23.423  0.00  0.00    +0.275 C 
BRANCH  32  33
ATOM     33  O   UNL     1      30.994  -7.351 -24.253  0.00  0.00    -0.440 OA
BRANCH  33  35
ATOM     34  O   UNL     1      30.590  -5.887 -22.513  0.00  0.00    -0.250 OA
ATOM     35  C   UNL     1      31.054  -6.137 -23.617  0.00  0.00    +0.318 C 
ATOM     36  C   UNL     1      31.777  -5.140 -24.471  0.00  0.00    +0.121 C 
ENDBRANCH  33  35
ENDBRANCH  32  33
ENDBRANCH  31  32
ENDBRANCH   9  31
TORSDOF 5
ENDMDL
MODEL 4
REMARK VINA RESULT:      -3.3      5.485      9.327
REMARK  Name = 9642
REMARK  5 active torsions:
REMARK  status: ('A' for Active; 'I' for Inactive)
REMARK    1  A    between atoms: C_9  and  C_31
REMARK    2  A    between atoms: C_14  and  O_28
REMARK    3  A    between atoms: C_31  and  C_32
REMARK    4  A    between atoms: C_32  and  O_33
REMARK    5  A    between atoms: O_33  and  C_35
REMARK                            x       y       z     vdW  Elec       q    Type
REMARK                         _______ _______ _______ _____ _____    ______ ____
ROOT
ATOM      1  F   UNL     1      35.416 -19.657 -18.756  0.00  0.00    -0.237 F 
ATOM      2  F   UNL     1      32.060 -22.282 -17.945  0.00  0.00    -0.233 F 
ATOM      3  O   UNL     1      34.663 -16.159 -21.308  0.00  0.00    -0.330 OA
ATOM      4  O   UNL     1      32.346 -16.043 -21.682  0.00  0.00    -0.334 OA
ATOM      5  O   UNL     1      36.041 -22.870 -15.145  0.00  0.00    -0.287 OA
ATOM      6  C   UNL     1      34.857 -18.518 -22.035  0.00  0.00    +0.034 C 
ATOM      7  C   UNL     1      33.813 -18.922 -20.970  0.00  0.00    +0.008 C 
ATOM      8  C   UNL     1      33.973 -20.367 -20.479  0.00  0.00    +0.036 C 
ATOM      9  C   UNL     1      34.365 -17.083 -22.351  0.00  0.00    +0.174 C 
ATOM     10  C   UNL     1      35.393 -20.530 -19.833  0.00  0.00    +0.165 C 
ATOM     11  C   UNL     1      32.839 -17.195 -22.361  0.00  0.00    +0.149 C 
ATOM     12  C   UNL     1      32.483 -18.483 -21.587  0.00  0.00    +0.033 C 
ATOM     13  C   UNL     1      36.246 -18.622 -21.376  0.00  0.00    +0.035 C 
ATOM     14  C   UNL     1      36.527 -20.018 -20.772  0.00  0.00    +0.141 C 
ATOM     15  C   UNL     1      35.598 -21.969 -19.213  0.00  0.00    +0.066 C 
ATOM     16  C   UNL     1      32.864 -20.719 -19.475  0.00  0.00    +0.042 C 
ATOM     17  C   UNL     1      34.791 -19.385 -23.322  0.00  0.00    +0.003 C 
ATOM     18  C   UNL     1      33.050 -22.104 -18.870  0.00  0.00    +0.180 C 
ATOM     19  C   UNL     1      33.468 -15.409 -21.067  0.00  0.00    +0.188 C 
ATOM     20  C   UNL     1      34.424 -22.233 -18.260  0.00  0.00    -0.003 C 
ATOM     21  C   UNL     1      35.629 -23.107 -20.260  0.00  0.00    +0.011 C 
ATOM     22  C   UNL     1      36.931 -22.037 -18.479  0.00  0.00    -0.017 C 
ATOM     23  C   UNL     1      33.636 -14.014 -21.657  0.00  0.00    +0.061 C 
ATOM     24  C   UNL     1      33.218 -15.323 -19.564  0.00  0.00    +0.061 C 
ATOM     25  C   UNL     1      34.576 -22.520 -16.958  0.00  0.00    +0.036 C 
ATOM     26  C   UNL     1      37.085 -22.319 -17.182  0.00  0.00    +0.038 C 
ATOM     27  C   UNL     1      35.912 -22.594 -16.332  0.00  0.00    +0.195 C 
ENDROOT
BRANCH  14  28
ATOM     28  O   UNL     1      36.803 -20.944 -21.811  0.00  0.00    -0.382 OA
ATOM     29  H   UNL     1      37.470 -20.571 -22.408  0.00  0.00    +0.210 HD
ENDBRANCH  14  28
BRANCH   9  31
ATOM     30  O   UNL     1      36.099 -16.066 -23.632  0.00  0.00    -0.290 OA
ATOM     31  C   UNL     1      34.949 -16.499 -23.604  0.00  0.00    +0.221 C 
BRANCH  31  32
ATOM     32  C   UNL     1      34.044 -16.479 -24.817  0.00  0.00    +0.275 C 
BRANCH  32  33
ATOM     33  O   UNL     1      33.551 -15.176 -25.051  0.00  0.00    -0.440 OA
BRANCH  33  35
ATOM     34  O   UNL     1      32.426 -15.797 -26.970  0.00  0.00    -0.250 OA
ATOM     35  C   UNL     1      32.983 -14.954 -26.279  0.00  0.00    +0.318 C 
ATOM     36  C   UNL     1      33.137 -13.516 -26.670  0.00  0.00    +0.121 C 
ENDBRANCH  33  35
ENDBRANCH  32  33
ENDBRANCH  31  32
ENDBRANCH   9  31
TORSDOF 5
ENDMDL
MODEL 5
REMARK VINA RESULT:      -3.2     11.026     14.505
REMARK  Name = 9642
REMARK  5 active torsions:
REMARK  status: ('A' for Active; 'I' for Inactive)
REMARK    1  A    between atoms: C_9  and  C_31
REMARK    2  A    between atoms: C_14  and  O_28
REMARK    3  A    between atoms: C_31  and  C_32
REMARK    4  A    between atoms: C_32  and  O_33
REMARK    5  A    between atoms: O_33  and  C_35
REMARK                            x       y       z     vdW  Elec       q    Type
REMARK                         _______ _______ _______ _____ _____    ______ ____
ROOT
ATOM      1  F   UNL     1      34.415 -13.983 -21.323  0.00  0.00    -0.237 F 
ATOM      2  F   UNL     1      31.566 -17.050 -20.186  0.00  0.00    -0.233 F 
ATOM      3  O   UNL     1      33.046  -9.810 -21.174  0.00  0.00    -0.330 OA
ATOM      4  O   UNL     1      30.915  -9.801 -20.183  0.00  0.00    -0.334 OA
ATOM      5  O   UNL     1      36.263 -18.420 -20.512  0.00  0.00    -0.287 OA
ATOM      6  C   UNL     1      32.458 -11.511 -22.876  0.00  0.00    +0.034 C 
ATOM      7  C   UNL     1      32.052 -12.486 -21.748  0.00  0.00    +0.008 C 
ATOM      8  C   UNL     1      32.203 -13.962 -22.137  0.00  0.00    +0.036 C 
ATOM      9  C   UNL     1      32.114 -10.163 -22.192  0.00  0.00    +0.174 C 
ATOM     10  C   UNL     1      33.706 -14.244 -22.487  0.00  0.00    +0.165 C 
ATOM     11  C   UNL     1      30.799 -10.432 -21.455  0.00  0.00    +0.149 C 
ATOM     12  C   UNL     1      30.685 -11.965 -21.299  0.00  0.00    +0.033 C 
ATOM     13  C   UNL     1      33.951 -11.751 -23.174  0.00  0.00    +0.035 C 
ATOM     14  C   UNL     1      34.270 -13.223 -23.521  0.00  0.00    +0.141 C 
ATOM     15  C   UNL     1      33.962 -15.771 -22.803  0.00  0.00    +0.066 C 
ATOM     16  C   UNL     1      31.720 -14.870 -20.995  0.00  0.00    +0.042 C 
ATOM     17  C   UNL     1      31.606 -11.671 -24.165  0.00  0.00    +0.003 C 
ATOM     18  C   UNL     1      31.961 -16.345 -21.288  0.00  0.00    +0.180 C 
ATOM     19  C   UNL     1      32.280  -9.406 -20.035  0.00  0.00    +0.188 C 
ATOM     20  C   UNL     1      33.412 -16.586 -21.624  0.00  0.00    -0.003 C 
ATOM     21  C   UNL     1      33.272 -16.271 -24.093  0.00  0.00    +0.011 C 
ATOM     22  C   UNL     1      35.452 -16.021 -22.999  0.00  0.00    -0.017 C 
ATOM     23  C   UNL     1      32.347  -7.888 -19.911  0.00  0.00    +0.061 C 
ATOM     24  C   UNL     1      32.847 -10.066 -18.782  0.00  0.00    +0.061 C 
ATOM     25  C   UNL     1      34.157 -17.431 -20.895  0.00  0.00    +0.036 C 
ATOM     26  C   UNL     1      36.197 -16.860 -22.274  0.00  0.00    +0.038 C 
ATOM     27  C   UNL     1      35.593 -17.636 -21.175  0.00  0.00    +0.195 C 
ENDROOT
BRANCH  14  28
ATOM     28  O   UNL     1      33.824 -13.513 -24.837  0.00  0.00    -0.382 OA
ATOM     29  H   UNL     1      34.583 -13.532 -25.439  0.00  0.00    +0.210 HD
ENDBRANCH  14  28
BRANCH   9  31
ATOM     30  O   UNL     1      30.992  -8.529 -23.516  0.00  0.00    -0.290 OA
ATOM     31  C   UNL     1      32.063  -8.996 -23.134  0.00  0.00    +0.221 C 
BRANCH  31  32
ATOM     32  C   UNL     1      33.397  -8.436 -23.579  0.00  0.00    +0.275 C 
BRANCH  32  33
ATOM     33  O   UNL     1      33.407  -7.027 -23.475  0.00  0.00    -0.440 OA
BRANCH  33  35
ATOM     34  O   UNL     1      34.582  -6.336 -25.339  0.00  0.00    -0.250 OA
ATOM     35  C   UNL     1      33.574  -6.334 -24.646  0.00  0.00    +0.318 C 
ATOM     36  C   UNL     1      32.334  -5.558 -24.971  0.00  0.00    +0.121 C 
ENDBRANCH  33  35
ENDBRANCH  32  33
ENDBRANCH  31  32
ENDBRANCH   9  31
TORSDOF 5
ENDMDL
MODEL 6
REMARK VINA RESULT:      -3.2     16.556     19.767
REMARK  Name = 9642
REMARK  5 active torsions:
REMARK  status: ('A' for Active; 'I' for Inactive)
REMARK    1  A    between atoms: C_9  and  C_31
REMARK    2  A    between atoms: C_14  and  O_28
REMARK    3  A    between atoms: C_31  and  C_32
REMARK    4  A    between atoms: C_32  and  O_33
REMARK    5  A    between atoms: O_33  and  C_35
REMARK                            x       y       z     vdW  Elec       q    Type
REMARK                         _______ _______ _______ _____ _____    ______ ____
ROOT
ATOM      1  F   UNL     1      30.685  -5.670 -25.118  0.00  0.00    -0.237 F 
ATOM      2  F   UNL     1      30.156  -2.600 -22.101  0.00  0.00    -0.233 F 
ATOM      3  O   UNL     1      32.202  -9.570 -23.777  0.00  0.00    -0.330 OA
ATOM      4  O   UNL     1      32.266  -9.533 -21.428  0.00  0.00    -0.334 OA
ATOM      5  O   UNL     1      28.064  -1.786 -26.459  0.00  0.00    -0.287 OA
ATOM      6  C   UNL     1      33.500  -7.476 -24.037  0.00  0.00    +0.034 C 
ATOM      7  C   UNL     1      32.452  -6.731 -23.179  0.00  0.00    +0.008 C 
ATOM      8  C   UNL     1      32.351  -5.236 -23.508  0.00  0.00    +0.036 C 
ATOM      9  C   UNL     1      33.397  -8.888 -23.406  0.00  0.00    +0.174 C 
ATOM     10  C   UNL     1      31.933  -5.073 -25.011  0.00  0.00    +0.165 C 
ATOM     11  C   UNL     1      33.258  -8.627 -21.904  0.00  0.00    +0.149 C 
ATOM     12  C   UNL     1      32.785  -7.165 -21.750  0.00  0.00    +0.033 C 
ATOM     13  C   UNL     1      33.052  -7.364 -25.507  0.00  0.00    +0.035 C 
ATOM     14  C   UNL     1      32.843  -5.902 -25.967  0.00  0.00    +0.141 C 
ATOM     15  C   UNL     1      31.710  -3.558 -25.401  0.00  0.00    +0.066 C 
ATOM     16  C   UNL     1      31.341  -4.549 -22.574  0.00  0.00    +0.042 C 
ATOM     17  C   UNL     1      34.943  -6.931 -23.857  0.00  0.00    +0.003 C 
ATOM     18  C   UNL     1      31.117  -3.088 -22.939  0.00  0.00    +0.180 C 
ATOM     19  C   UNL     1      31.649 -10.117 -22.576  0.00  0.00    +0.188 C 
ATOM     20  C   UNL     1      30.721  -2.961 -24.390  0.00  0.00    -0.003 C 
ATOM     21  C   UNL     1      32.999  -2.704 -25.369  0.00  0.00    +0.011 C 
ATOM     22  C   UNL     1      31.174  -3.457 -26.823  0.00  0.00    -0.017 C 
ATOM     23  C   UNL     1      31.896 -11.621 -22.562  0.00  0.00    +0.061 C 
ATOM     24  C   UNL     1      30.152  -9.825 -22.528  0.00  0.00    +0.061 C 
ATOM     25  C   UNL     1      29.554  -2.397 -24.738  0.00  0.00    +0.036 C 
ATOM     26  C   UNL     1      30.012  -2.898 -27.172  0.00  0.00    +0.038 C 
ATOM     27  C   UNL     1      29.125  -2.315 -26.150  0.00  0.00    +0.195 C 
ENDROOT
BRANCH  14  28
ATOM     28  O   UNL     1      34.102  -5.277 -26.162  0.00  0.00    -0.382 OA
ATOM     29  H   UNL     1      34.017  -4.585 -26.836  0.00  0.00    +0.210 HD
ENDBRANCH  14  28
BRANCH   9  31
ATOM     30  O   UNL     1      35.679  -9.383 -23.886  0.00  0.00    -0.290 OA
ATOM     31  C   UNL     1      34.529  -9.804 -23.769  0.00  0.00    +0.221 C 
BRANCH  31  32
ATOM     32  C   UNL     1      34.172 -11.259 -23.980  0.00  0.00    +0.275 C 
BRANCH  32  33
ATOM     33  O   UNL     1      34.128 -11.569 -25.357  0.00  0.00    -0.440 OA
BRANCH  33  35
ATOM     34  O   UNL     1      33.433 -13.723 -24.899  0.00  0.00    -0.250 OA
ATOM     35  C   UNL     1      33.643 -12.809 -25.685  0.00  0.00    +0.318 C 
ATOM     36  C   UNL     1      33.400 -12.898 -27.160  0.00  0.00    +0.121 C 
ENDBRANCH  33  35
ENDBRANCH  32  33
ENDBRANCH  31  32
ENDBRANCH   9  31
TORSDOF 5
ENDMDL
MODEL 7
REMARK VINA RESULT:      -1.9      8.570     12.364
REMARK  Name = 9642
REMARK  5 active torsions:
REMARK  status: ('A' for Active; 'I' for Inactive)
REMARK    1  A    between atoms: C_9  and  C_31
REMARK    2  A    between atoms: C_14  and  O_28
REMARK    3  A    between atoms: C_31  and  C_32
REMARK    4  A    between atoms: C_32  and  O_33
REMARK    5  A    between atoms: O_33  and  C_35
REMARK                            x       y       z     vdW  Elec       q    Type
REMARK                         _______ _______ _______ _____ _____    ______ ____
ROOT
ATOM      1  F   UNL     1      34.995 -16.665 -20.549  0.00  0.00    -0.237 F 
ATOM      2  F   UNL     1      32.045 -19.835 -20.303  0.00  0.00    -0.233 F 
ATOM      3  O   UNL     1      33.508 -12.574 -21.149  0.00  0.00    -0.330 OA
ATOM      4  O   UNL     1      31.165 -12.641 -20.974  0.00  0.00    -0.334 OA
ATOM      5  O   UNL     1      36.598 -20.950 -18.868  0.00  0.00    -0.287 OA
ATOM      6  C   UNL     1      33.626 -14.379 -22.841  0.00  0.00    +0.034 C 
ATOM      7  C   UNL     1      32.882 -15.324 -21.870  0.00  0.00    +0.008 C 
ATOM      8  C   UNL     1      33.217 -16.805 -22.090  0.00  0.00    +0.036 C 
ATOM      9  C   UNL     1      33.011 -13.024 -22.406  0.00  0.00    +0.174 C 
ATOM     10  C   UNL     1      34.755 -17.017 -21.869  0.00  0.00    +0.165 C 
ATOM     11  C   UNL     1      31.532 -13.334 -22.164  0.00  0.00    +0.149 C 
ATOM     12  C   UNL     1      31.426 -14.862 -21.965  0.00  0.00    +0.033 C 
ATOM     13  C   UNL     1      35.135 -14.547 -22.578  0.00  0.00    +0.035 C 
ATOM     14  C   UNL     1      35.611 -16.013 -22.699  0.00  0.00    +0.141 C 
ATOM     15  C   UNL     1      35.164 -18.539 -21.981  0.00  0.00    +0.066 C 
ATOM     16  C   UNL     1      32.394 -17.688 -21.138  0.00  0.00    +0.042 C 
ATOM     17  C   UNL     1      33.294 -14.644 -24.335  0.00  0.00    +0.003 C 
ATOM     18  C   UNL     1      32.778 -19.158 -21.236  0.00  0.00    +0.180 C 
ATOM     19  C   UNL     1      32.373 -12.164 -20.380  0.00  0.00    +0.188 C 
ATOM     20  C   UNL     1      34.262 -19.331 -21.024  0.00  0.00    -0.003 C 
ATOM     21  C   UNL     1      34.996 -19.135 -23.398  0.00  0.00    +0.011 C 
ATOM     22  C   UNL     1      36.634 -18.713 -21.624  0.00  0.00    -0.017 C 
ATOM     23  C   UNL     1      32.335 -10.641 -20.333  0.00  0.00    +0.061 C 
ATOM     24  C   UNL     1      32.482 -12.735 -18.969  0.00  0.00    +0.061 C 
ATOM     25  C   UNL     1      34.731 -20.100 -20.028  0.00  0.00    +0.036 C 
ATOM     26  C   UNL     1      37.104 -19.476 -20.632  0.00  0.00    +0.038 C 
ATOM     27  C   UNL     1      36.179 -20.235 -19.771  0.00  0.00    +0.195 C 
ENDROOT
BRANCH  14  28
ATOM     28  O   UNL     1      35.672 -16.385 -24.068  0.00  0.00    -0.382 OA
ATOM     29  H   UNL     1      35.552 -15.599 -24.622  0.00  0.00    +0.210 HD
ENDBRANCH  14  28
BRANCH   9  31
ATOM     30  O   UNL     1      34.247 -11.892 -24.102  0.00  0.00    -0.290 OA
ATOM     31  C   UNL     1      33.255 -11.904 -23.375  0.00  0.00    +0.221 C 
BRANCH  31  32
ATOM     32  C   UNL     1      32.216 -10.803 -23.402  0.00  0.00    +0.275 C 
BRANCH  32  33
ATOM     33  O   UNL     1      32.730  -9.647 -24.028  0.00  0.00    -0.440 OA
BRANCH  33  35
ATOM     34  O   UNL     1      31.777  -8.019 -22.695  0.00  0.00    -0.250 OA
ATOM     35  C   UNL     1      32.741  -8.502 -23.273  0.00  0.00    +0.318 C 
ATOM     36  C   UNL     1      34.117  -7.911 -23.248  0.00  0.00    +0.121 C 
ENDBRANCH  33  35
ENDBRANCH  32  33
ENDBRANCH  31  32
ENDBRANCH   9  31
TORSDOF 5
ENDMDL
MODEL 8
REMARK VINA RESULT:      -1.8      7.800     11.885
REMARK  Name = 9642
REMARK  5 active torsions:
REMARK  status: ('A' for Active; 'I' for Inactive)
REMARK    1  A    between atoms: C_9  and  C_31
REMARK    2  A    between atoms: C_14  and  O_28
REMARK    3  A    between atoms: C_31  and  C_32
REMARK    4  A    between atoms: C_32  and  O_33
REMARK    5  A    between atoms: O_33  and  C_35
REMARK                            x       y       z     vdW  Elec       q    Type
REMARK                         _______ _______ _______ _____ _____    ______ ____
ROOT
ATOM      1  F   UNL     1      34.948 -14.329 -22.728  0.00  0.00    -0.237 F 
ATOM      2  F   UNL     1      34.147 -14.119 -26.986  0.00  0.00    -0.233 F 
ATOM      3  O   UNL     1      35.937 -18.271 -21.059  0.00  0.00    -0.330 OA
ATOM      4  O   UNL     1      36.172 -19.763 -22.860  0.00  0.00    -0.334 OA
ATOM      5  O   UNL     1      34.891  -9.860 -24.674  0.00  0.00    -0.287 OA
ATOM      6  C   UNL     1      33.702 -17.470 -21.762  0.00  0.00    +0.034 C 
ATOM      7  C   UNL     1      34.292 -17.052 -23.128  0.00  0.00    +0.008 C 
ATOM      8  C   UNL     1      33.536 -15.891 -23.787  0.00  0.00    +0.036 C 
ATOM      9  C   UNL     1      34.624 -18.673 -21.437  0.00  0.00    +0.174 C 
ATOM     10  C   UNL     1      33.602 -14.641 -22.842  0.00  0.00    +0.165 C 
ATOM     11  C   UNL     1      34.797 -19.395 -22.776  0.00  0.00    +0.149 C 
ATOM     12  C   UNL     1      34.432 -18.378 -23.879  0.00  0.00    +0.033 C 
ATOM     13  C   UNL     1      33.824 -16.257 -20.820  0.00  0.00    +0.035 C 
ATOM     14  C   UNL     1      33.159 -14.981 -21.387  0.00  0.00    +0.141 C 
ATOM     15  C   UNL     1      32.928 -13.370 -23.496  0.00  0.00    +0.066 C 
ATOM     16  C   UNL     1      34.135 -15.575 -25.166  0.00  0.00    +0.042 C 
ATOM     17  C   UNL     1      32.229 -17.954 -21.850  0.00  0.00    +0.003 C 
ATOM     18  C   UNL     1      33.495 -14.351 -25.808  0.00  0.00    +0.180 C 
ATOM     19  C   UNL     1      36.849 -19.092 -21.796  0.00  0.00    +0.188 C 
ATOM     20  C   UNL     1      33.569 -13.167 -24.877  0.00  0.00    -0.003 C 
ATOM     21  C   UNL     1      31.400 -13.498 -23.693  0.00  0.00    +0.011 C 
ATOM     22  C   UNL     1      33.137 -12.151 -22.607  0.00  0.00    -0.017 C 
ATOM     23  C   UNL     1      37.447 -20.131 -20.854  0.00  0.00    +0.061 C 
ATOM     24  C   UNL     1      37.950 -18.219 -22.391  0.00  0.00    +0.061 C 
ATOM     25  C   UNL     1      34.196 -12.039 -25.244  0.00  0.00    +0.036 C 
ATOM     26  C   UNL     1      33.764 -11.028 -22.969  0.00  0.00    +0.038 C 
ATOM     27  C   UNL     1      34.327 -10.891 -24.324  0.00  0.00    +0.195 C 
ENDROOT
BRANCH  14  28
ATOM     28  O   UNL     1      31.747 -15.089 -21.282  0.00  0.00    -0.382 OA
ATOM     29  H   UNL     1      31.378 -14.239 -20.998  0.00  0.00    +0.210 HD
ENDBRANCH  14  28
BRANCH   9  31
ATOM     30  O   UNL     1      32.959 -19.465 -19.926  0.00  0.00    -0.290 OA
ATOM     31  C   UNL     1      34.119 -19.547 -20.327  0.00  0.00    +0.221 C 
BRANCH  31  32
ATOM     32  C   UNL     1      35.114 -20.523 -19.738  0.00  0.00    +0.275 C 
BRANCH  32  33
ATOM     33  O   UNL     1      34.544 -21.811 -19.626  0.00  0.00    -0.440 OA
BRANCH  33  35
ATOM     34  O   UNL     1      35.558 -22.505 -17.671  0.00  0.00    -0.250 OA
ATOM     35  C   UNL     1      34.568 -22.378 -18.378  0.00  0.00    +0.318 C 
ATOM     36  C   UNL     1      33.194 -22.830 -17.987  0.00  0.00    +0.121 C 
ENDBRANCH  33  35
ENDBRANCH  32  33
ENDBRANCH  31  32
ENDBRANCH   9  31
TORSDOF 5
ENDMDL
