MODEL 1
REMARK VINA RESULT:      -7.3      0.000      0.000
REMARK  Name = 2482
REMARK  6 active torsions:
REMARK  status: ('A' for Active; 'I' for Inactive)
REMARK    1  A    between atoms: C_1  and  C_11
REMARK    2  A    between atoms: C_4  and  N_7
REMARK    3  A    between atoms: C_11  and  O_12
REMARK    4  A    between atoms: O_12  and  C_13
REMARK    5  A    between atoms: C_13  and  C_14
REMARK    6  A    between atoms: C_14  and  C_15
REMARK                            x       y       z     vdW  Elec       q    Type
REMARK                         _______ _______ _______ _____ _____    ______ ____
ROOT
ATOM      1  C   UNL     1      34.905 -19.549 -21.043  0.00  0.00    +0.076 C 
ATOM      2  C   UNL     1      35.646 -20.498 -20.369  0.00  0.00    +0.008 C 
ATOM      3  C   UNL     1      33.528 -19.505 -20.973  0.00  0.00    +0.008 C 
ATOM      4  C   UNL     1      33.589 -21.420 -19.502  0.00  0.00    +0.042 C 
ATOM      5  C   UNL     1      34.981 -21.443 -19.590  0.00  0.00    +0.014 C 
ATOM      6  C   UNL     1      32.862 -20.452 -20.193  0.00  0.00    +0.014 C 
ENDROOT
BRANCH   4   7
ATOM      7  N   UNL     1      32.916 -22.376 -18.712  0.00  0.00    -0.357 N 
ATOM      8  H   UNL     1      32.480 -23.149 -19.139  0.00  0.00    +0.142 HD
ATOM      9  H   UNL     1      32.882 -22.271 -17.733  0.00  0.00    +0.142 HD
ENDBRANCH   4   7
BRANCH   1  11
ATOM     10  O   UNL     1      36.830 -18.481 -21.960  0.00  0.00    -0.245 OA
ATOM     11  C   UNL     1      35.613 -18.541 -21.873  0.00  0.00    +0.341 C 
BRANCH  11  12
ATOM     12  O   UNL     1      34.726 -17.722 -22.502  0.00  0.00    -0.445 OA
BRANCH  12  13
ATOM     13  C   UNL     1      34.983 -16.328 -22.405  0.00  0.00    +0.209 C 
BRANCH  13  14
ATOM     14  C   UNL     1      34.584 -15.849 -21.017  0.00  0.00    +0.047 C 
BRANCH  14  15
ATOM     15  C   UNL     1      33.074 -15.653 -20.901  0.00  0.00    +0.004 C 
ATOM     16  C   UNL     1      32.717 -14.190 -20.698  0.00  0.00    +0.000 C 
ENDBRANCH  14  15
ENDBRANCH  13  14
ENDBRANCH  12  13
ENDBRANCH  11  12
ENDBRANCH   1  11
TORSDOF 6
ENDMDL
MODEL 2
REMARK VINA RESULT:      -7.2      0.511      1.437
REMARK  Name = 2482
REMARK  6 active torsions:
REMARK  status: ('A' for Active; 'I' for Inactive)
REMARK    1  A    between atoms: C_1  and  C_11
REMARK    2  A    between atoms: C_4  and  N_7
REMARK    3  A    between atoms: C_11  and  O_12
REMARK    4  A    between atoms: O_12  and  C_13
REMARK    5  A    between atoms: C_13  and  C_14
REMARK    6  A    between atoms: C_14  and  C_15
REMARK                            x       y       z     vdW  Elec       q    Type
REMARK                         _______ _______ _______ _____ _____    ______ ____
ROOT
ATOM      1  C   UNL     1      34.823 -19.432 -21.090  0.00  0.00    +0.076 C 
ATOM      2  C   UNL     1      33.447 -19.414 -20.979  0.00  0.00    +0.008 C 
ATOM      3  C   UNL     1      35.599 -20.383 -20.460  0.00  0.00    +0.008 C 
ATOM      4  C   UNL     1      33.583 -21.363 -19.557  0.00  0.00    +0.042 C 
ATOM      5  C   UNL     1      32.821 -20.390 -20.204  0.00  0.00    +0.014 C 
ATOM      6  C   UNL     1      34.972 -21.360 -19.685  0.00  0.00    +0.014 C 
ENDROOT
BRANCH   4   7
ATOM      7  N   UNL     1      32.950 -22.351 -18.775  0.00  0.00    -0.357 N 
ATOM      8  H   UNL     1      32.170 -22.835 -19.131  0.00  0.00    +0.142 HD
ATOM      9  H   UNL     1      33.288 -22.557 -17.873  0.00  0.00    +0.142 HD
ENDBRANCH   4   7
BRANCH   1  11
ATOM     10  O   UNL     1      36.688 -18.395 -22.152  0.00  0.00    -0.245 OA
ATOM     11  C   UNL     1      35.490 -18.394 -21.915  0.00  0.00    +0.341 C 
BRANCH  11  12
ATOM     12  O   UNL     1      34.590 -17.470 -22.354  0.00  0.00    -0.445 OA
BRANCH  12  13
ATOM     13  C   UNL     1      35.134 -16.303 -22.954  0.00  0.00    +0.209 C 
BRANCH  13  14
ATOM     14  C   UNL     1      34.447 -15.081 -22.362  0.00  0.00    +0.047 C 
BRANCH  14  15
ATOM     15  C   UNL     1      34.300 -15.195 -20.847  0.00  0.00    +0.004 C 
ATOM     16  C   UNL     1      32.850 -15.049 -20.417  0.00  0.00    +0.000 C 
ENDBRANCH  14  15
ENDBRANCH  13  14
ENDBRANCH  12  13
ENDBRANCH  11  12
ENDBRANCH   1  11
TORSDOF 6
ENDMDL
MODEL 3
REMARK VINA RESULT:      -7.2      1.465      2.321
REMARK  Name = 2482
REMARK  6 active torsions:
REMARK  status: ('A' for Active; 'I' for Inactive)
REMARK    1  A    between atoms: C_1  and  C_11
REMARK    2  A    between atoms: C_4  and  N_7
REMARK    3  A    between atoms: C_11  and  O_12
REMARK    4  A    between atoms: O_12  and  C_13
REMARK    5  A    between atoms: C_13  and  C_14
REMARK    6  A    between atoms: C_14  and  C_15
REMARK                            x       y       z     vdW  Elec       q    Type
REMARK                         _______ _______ _______ _____ _____    ______ ____
ROOT
ATOM      1  C   UNL     1      35.047 -19.347 -20.958  0.00  0.00    +0.076 C 
ATOM      2  C   UNL     1      35.747 -20.341 -20.305  0.00  0.00    +0.008 C 
ATOM      3  C   UNL     1      33.668 -19.312 -20.980  0.00  0.00    +0.008 C 
ATOM      4  C   UNL     1      33.642 -21.331 -19.653  0.00  0.00    +0.042 C 
ATOM      5  C   UNL     1      35.037 -21.343 -19.645  0.00  0.00    +0.014 C 
ATOM      6  C   UNL     1      32.957 -20.316 -20.320  0.00  0.00    +0.014 C 
ENDROOT
BRANCH   4   7
ATOM      7  N   UNL     1      32.923 -22.344 -18.984  0.00  0.00    -0.357 N 
ATOM      8  H   UNL     1      33.276 -22.728 -18.149  0.00  0.00    +0.142 HD
ATOM      9  H   UNL     1      32.069 -22.667 -19.352  0.00  0.00    +0.142 HD
ENDBRANCH   4   7
BRANCH   1  11
ATOM     10  O   UNL     1      36.904 -18.455 -22.158  0.00  0.00    -0.245 OA
ATOM     11  C   UNL     1      35.803 -18.279 -21.660  0.00  0.00    +0.341 C 
BRANCH  11  12
ATOM     12  O   UNL     1      35.101 -17.112 -21.665  0.00  0.00    -0.445 OA
BRANCH  12  13
ATOM     13  C   UNL     1      35.251 -16.297 -22.818  0.00  0.00    +0.209 C 
BRANCH  13  14
ATOM     14  C   UNL     1      34.132 -16.619 -23.798  0.00  0.00    +0.047 C 
BRANCH  14  15
ATOM     15  C   UNL     1      34.655 -17.354 -25.029  0.00  0.00    +0.004 C 
ATOM     16  C   UNL     1      34.373 -18.845 -24.950  0.00  0.00    +0.000 C 
ENDBRANCH  14  15
ENDBRANCH  13  14
ENDBRANCH  12  13
ENDBRANCH  11  12
ENDBRANCH   1  11
TORSDOF 6
ENDMDL
MODEL 4
REMARK VINA RESULT:      -6.9      4.070      6.539
REMARK  Name = 2482
REMARK  6 active torsions:
REMARK  status: ('A' for Active; 'I' for Inactive)
REMARK    1  A    between atoms: C_1  and  C_11
REMARK    2  A    between atoms: C_4  and  N_7
REMARK    3  A    between atoms: C_11  and  O_12
REMARK    4  A    between atoms: O_12  and  C_13
REMARK    5  A    between atoms: C_13  and  C_14
REMARK    6  A    between atoms: C_14  and  C_15
REMARK                            x       y       z     vdW  Elec       q    Type
REMARK                         _______ _______ _______ _____ _____    ______ ____
ROOT
ATOM      1  C   UNL     1      34.030 -21.651 -19.480  0.00  0.00    +0.076 C 
ATOM      2  C   UNL     1      33.188 -20.752 -20.102  0.00  0.00    +0.008 C 
ATOM      3  C   UNL     1      35.404 -21.535 -19.542  0.00  0.00    +0.008 C 
ATOM      4  C   UNL     1      35.129 -19.551 -20.894  0.00  0.00    +0.042 C 
ATOM      5  C   UNL     1      33.743 -19.691 -20.816  0.00  0.00    +0.014 C 
ATOM      6  C   UNL     1      35.960 -20.473 -20.258  0.00  0.00    +0.014 C 
ENDROOT
BRANCH   4   7
ATOM      7  N   UNL     1      35.691 -18.477 -21.615  0.00  0.00    -0.357 N 
ATOM      8  H   UNL     1      36.661 -18.311 -21.576  0.00  0.00    +0.142 HD
ATOM      9  H   UNL     1      35.113 -17.893 -22.158  0.00  0.00    +0.142 HD
ENDBRANCH   4   7
BRANCH   1  11
ATOM     10  O   UNL     1      33.842 -23.930 -18.807  0.00  0.00    -0.245 OA
ATOM     11  C   UNL     1      33.440 -22.780 -18.719  0.00  0.00    +0.341 C 
BRANCH  11  12
ATOM     12  O   UNL     1      32.415 -22.351 -17.932  0.00  0.00    -0.445 OA
BRANCH  12  13
ATOM     13  C   UNL     1      32.183 -23.097 -16.746  0.00  0.00    +0.209 C 
BRANCH  13  14
ATOM     14  C   UNL     1      30.713 -22.978 -16.369  0.00  0.00    +0.047 C 
BRANCH  14  15
ATOM     15  C   UNL     1      30.529 -22.798 -14.864  0.00  0.00    +0.004 C 
ATOM     16  C   UNL     1      31.802 -23.133 -14.104  0.00  0.00    +0.000 C 
ENDBRANCH  14  15
ENDBRANCH  13  14
ENDBRANCH  12  13
ENDBRANCH  11  12
ENDBRANCH   1  11
TORSDOF 6
ENDMDL
MODEL 5
REMARK VINA RESULT:      -6.9      1.670      2.533
REMARK  Name = 2482
REMARK  6 active torsions:
REMARK  status: ('A' for Active; 'I' for Inactive)
REMARK    1  A    between atoms: C_1  and  C_11
REMARK    2  A    between atoms: C_4  and  N_7
REMARK    3  A    between atoms: C_11  and  O_12
REMARK    4  A    between atoms: O_12  and  C_13
REMARK    5  A    between atoms: C_13  and  C_14
REMARK    6  A    between atoms: C_14  and  C_15
REMARK                            x       y       z     vdW  Elec       q    Type
REMARK                         _______ _______ _______ _____ _____    ______ ____
ROOT
ATOM      1  C   UNL     1      34.679 -19.233 -21.130  0.00  0.00    +0.076 C 
ATOM      2  C   UNL     1      33.315 -19.342 -20.956  0.00  0.00    +0.008 C 
ATOM      3  C   UNL     1      35.564 -20.147 -20.596  0.00  0.00    +0.008 C 
ATOM      4  C   UNL     1      33.687 -21.353 -19.669  0.00  0.00    +0.042 C 
ATOM      5  C   UNL     1      32.814 -20.415 -20.218  0.00  0.00    +0.014 C 
ATOM      6  C   UNL     1      35.062 -21.220 -19.858  0.00  0.00    +0.014 C 
ENDROOT
BRANCH   4   7
ATOM      7  N   UNL     1      33.180 -22.438 -18.924  0.00  0.00    -0.357 N 
ATOM      8  H   UNL     1      33.715 -22.826 -18.193  0.00  0.00    +0.142 HD
ATOM      9  H   UNL     1      32.291 -22.807 -19.134  0.00  0.00    +0.142 HD
ENDBRANCH   4   7
BRANCH   1  11
ATOM     10  O   UNL     1      35.344 -16.967 -21.460  0.00  0.00    -0.245 OA
ATOM     11  C   UNL     1      35.214 -18.092 -21.916  0.00  0.00    +0.341 C 
BRANCH  11  12
ATOM     12  O   UNL     1      35.528 -18.482 -23.182  0.00  0.00    -0.445 OA
BRANCH  12  13
ATOM     13  C   UNL     1      34.523 -18.283 -24.166  0.00  0.00    +0.209 C 
BRANCH  13  14
ATOM     14  C   UNL     1      34.970 -17.176 -25.110  0.00  0.00    +0.047 C 
BRANCH  14  15
ATOM     15  C   UNL     1      33.883 -16.119 -25.293  0.00  0.00    +0.004 C 
ATOM     16  C   UNL     1      33.675 -15.310 -24.023  0.00  0.00    +0.000 C 
ENDBRANCH  14  15
ENDBRANCH  13  14
ENDBRANCH  12  13
ENDBRANCH  11  12
ENDBRANCH   1  11
TORSDOF 6
ENDMDL
MODEL 6
REMARK VINA RESULT:      -6.8      3.895      6.517
REMARK  Name = 2482
REMARK  6 active torsions:
REMARK  status: ('A' for Active; 'I' for Inactive)
REMARK    1  A    between atoms: C_1  and  C_11
REMARK    2  A    between atoms: C_4  and  N_7
REMARK    3  A    between atoms: C_11  and  O_12
REMARK    4  A    between atoms: O_12  and  C_13
REMARK    5  A    between atoms: C_13  and  C_14
REMARK    6  A    between atoms: C_14  and  C_15
REMARK                            x       y       z     vdW  Elec       q    Type
REMARK                         _______ _______ _______ _____ _____    ______ ____
ROOT
ATOM      1  C   UNL     1      33.915 -21.578 -19.245  0.00  0.00    +0.076 C 
ATOM      2  C   UNL     1      33.105 -20.713 -19.952  0.00  0.00    +0.008 C 
ATOM      3  C   UNL     1      35.286 -21.597 -19.404  0.00  0.00    +0.008 C 
ATOM      4  C   UNL     1      35.075 -19.826 -21.034  0.00  0.00    +0.042 C 
ATOM      5  C   UNL     1      33.692 -19.827 -20.855  0.00  0.00    +0.014 C 
ATOM      6  C   UNL     1      35.873 -20.711 -20.308  0.00  0.00    +0.014 C 
ENDROOT
BRANCH   4   7
ATOM      7  N   UNL     1      35.668 -18.929 -21.947  0.00  0.00    -0.357 N 
ATOM      8  H   UNL     1      35.153 -18.163 -22.289  0.00  0.00    +0.142 HD
ATOM      9  H   UNL     1      36.597 -19.070 -22.242  0.00  0.00    +0.142 HD
ENDBRANCH   4   7
BRANCH   1  11
ATOM     10  O   UNL     1      32.088 -22.576 -18.083  0.00  0.00    -0.245 OA
ATOM     11  C   UNL     1      33.292 -22.521 -18.282  0.00  0.00    +0.341 C 
BRANCH  11  12
ATOM     12  O   UNL     1      34.238 -23.290 -17.675  0.00  0.00    -0.445 OA
BRANCH  12  13
ATOM     13  C   UNL     1      34.054 -23.530 -16.288  0.00  0.00    +0.209 C 
BRANCH  13  14
ATOM     14  C   UNL     1      35.413 -23.527 -15.603  0.00  0.00    +0.047 C 
BRANCH  14  15
ATOM     15  C   UNL     1      36.237 -22.302 -15.990  0.00  0.00    +0.004 C 
ATOM     16  C   UNL     1      37.712 -22.643 -16.125  0.00  0.00    +0.000 C 
ENDBRANCH  14  15
ENDBRANCH  13  14
ENDBRANCH  12  13
ENDBRANCH  11  12
ENDBRANCH   1  11
TORSDOF 6
ENDMDL
MODEL 7
REMARK VINA RESULT:      -6.7      3.254      5.956
REMARK  Name = 2482
REMARK  6 active torsions:
REMARK  status: ('A' for Active; 'I' for Inactive)
REMARK    1  A    between atoms: C_1  and  C_11
REMARK    2  A    between atoms: C_4  and  N_7
REMARK    3  A    between atoms: C_11  and  O_12
REMARK    4  A    between atoms: O_12  and  C_13
REMARK    5  A    between atoms: C_13  and  C_14
REMARK    6  A    between atoms: C_14  and  C_15
REMARK                            x       y       z     vdW  Elec       q    Type
REMARK                         _______ _______ _______ _____ _____    ______ ____
ROOT
ATOM      1  C   UNL     1      33.907 -15.224 -21.594  0.00  0.00    +0.076 C 
ATOM      2  C   UNL     1      33.234 -14.684 -20.518  0.00  0.00    +0.008 C 
ATOM      3  C   UNL     1      33.747 -14.745 -22.878  0.00  0.00    +0.008 C 
ATOM      4  C   UNL     1      32.184 -13.113 -22.023  0.00  0.00    +0.042 C 
ATOM      5  C   UNL     1      32.363 -13.616 -20.735  0.00  0.00    +0.014 C 
ATOM      6  C   UNL     1      32.876 -13.676 -23.095  0.00  0.00    +0.014 C 
ENDROOT
BRANCH   4   7
ATOM      7  N   UNL     1      31.305 -12.031 -22.243  0.00  0.00    -0.357 N 
ATOM      8  H   UNL     1      31.105 -11.403 -21.511  0.00  0.00    +0.142 HD
ATOM      9  H   UNL     1      30.891 -11.905 -23.127  0.00  0.00    +0.142 HD
ENDBRANCH   4   7
BRANCH   1  11
ATOM     10  O   UNL     1      35.302 -16.632 -20.269  0.00  0.00    -0.245 OA
ATOM     11  C   UNL     1      34.835 -16.361 -21.364  0.00  0.00    +0.341 C 
BRANCH  11  12
ATOM     12  O   UNL     1      35.075 -17.033 -22.524  0.00  0.00    -0.445 OA
BRANCH  12  13
ATOM     13  C   UNL     1      35.635 -18.331 -22.390  0.00  0.00    +0.209 C 
BRANCH  13  14
ATOM     14  C   UNL     1      34.506 -19.350 -22.328  0.00  0.00    +0.047 C 
BRANCH  14  15
ATOM     15  C   UNL     1      34.351 -19.935 -20.927  0.00  0.00    +0.004 C 
ATOM     16  C   UNL     1      32.888 -20.036 -20.525  0.00  0.00    +0.000 C 
ENDBRANCH  14  15
ENDBRANCH  13  14
ENDBRANCH  12  13
ENDBRANCH  11  12
ENDBRANCH   1  11
TORSDOF 6
ENDMDL
MODEL 8
REMARK VINA RESULT:      -6.7      3.050      5.832
REMARK  Name = 2482
REMARK  6 active torsions:
REMARK  status: ('A' for Active; 'I' for Inactive)
REMARK    1  A    between atoms: C_1  and  C_11
REMARK    2  A    between atoms: C_4  and  N_7
REMARK    3  A    between atoms: C_11  and  O_12
REMARK    4  A    between atoms: O_12  and  C_13
REMARK    5  A    between atoms: C_13  and  C_14
REMARK    6  A    between atoms: C_14  and  C_15
REMARK                            x       y       z     vdW  Elec       q    Type
REMARK                         _______ _______ _______ _____ _____    ______ ____
ROOT
ATOM      1  C   UNL     1      34.813 -16.855 -21.661  0.00  0.00    +0.076 C 
ATOM      2  C   UNL     1      34.477 -15.771 -20.875  0.00  0.00    +0.008 C 
ATOM      3  C   UNL     1      34.944 -16.758 -23.031  0.00  0.00    +0.008 C 
ATOM      4  C   UNL     1      34.390 -14.412 -22.871  0.00  0.00    +0.042 C 
ATOM      5  C   UNL     1      34.264 -14.536 -21.487  0.00  0.00    +0.014 C 
ATOM      6  C   UNL     1      34.730 -15.522 -23.643  0.00  0.00    +0.014 C 
ENDROOT
BRANCH   4   7
ATOM      7  N   UNL     1      34.175 -13.162 -23.489  0.00  0.00    -0.357 N 
ATOM      8  H   UNL     1      34.555 -12.982 -24.380  0.00  0.00    +0.142 HD
ATOM      9  H   UNL     1      33.645 -12.470 -23.031  0.00  0.00    +0.142 HD
ENDBRANCH   4   7
BRANCH   1  11
ATOM     10  O   UNL     1      36.150 -18.579 -20.698  0.00  0.00    -0.245 OA
ATOM     11  C   UNL     1      35.042 -18.170 -21.010  0.00  0.00    +0.341 C 
BRANCH  11  12
ATOM     12  O   UNL     1      33.865 -18.828 -20.820  0.00  0.00    -0.445 OA
BRANCH  12  13
ATOM     13  C   UNL     1      33.899 -20.236 -21.002  0.00  0.00    +0.209 C 
BRANCH  13  14
ATOM     14  C   UNL     1      33.318 -20.906 -19.764  0.00  0.00    +0.047 C 
BRANCH  14  15
ATOM     15  C   UNL     1      34.137 -22.124 -19.347  0.00  0.00    +0.004 C 
ATOM     16  C   UNL     1      35.589 -21.757 -19.089  0.00  0.00    +0.000 C 
ENDBRANCH  14  15
ENDBRANCH  13  14
ENDBRANCH  12  13
ENDBRANCH  11  12
ENDBRANCH   1  11
TORSDOF 6
ENDMDL
MODEL 9
REMARK VINA RESULT:      -6.6      3.260      5.944
REMARK  Name = 2482
REMARK  6 active torsions:
REMARK  status: ('A' for Active; 'I' for Inactive)
REMARK    1  A    between atoms: C_1  and  C_11
REMARK    2  A    between atoms: C_4  and  N_7
REMARK    3  A    between atoms: C_11  and  O_12
REMARK    4  A    between atoms: O_12  and  C_13
REMARK    5  A    between atoms: C_13  and  C_14
REMARK    6  A    between atoms: C_14  and  C_15
REMARK                            x       y       z     vdW  Elec       q    Type
REMARK                         _______ _______ _______ _____ _____    ______ ____
ROOT
ATOM      1  C   UNL     1      33.974 -15.355 -23.119  0.00  0.00    +0.076 C 
ATOM      2  C   UNL     1      33.670 -14.302 -23.958  0.00  0.00    +0.008 C 
ATOM      3  C   UNL     1      33.470 -15.443 -21.837  0.00  0.00    +0.008 C 
ATOM      4  C   UNL     1      32.302 -13.360 -22.204  0.00  0.00    +0.042 C 
ATOM      5  C   UNL     1      32.824 -13.295 -23.495  0.00  0.00    +0.014 C 
ATOM      6  C   UNL     1      32.624 -14.433 -21.375  0.00  0.00    +0.014 C 
ENDROOT
BRANCH   4   7
ATOM      7  N   UNL     1      31.445 -12.341 -21.737  0.00  0.00    -0.357 N 
ATOM      8  H   UNL     1      31.362 -11.498 -22.240  0.00  0.00    +0.142 HD
ATOM      9  H   UNL     1      30.930 -12.472 -20.908  0.00  0.00    +0.142 HD
ENDBRANCH   4   7
BRANCH   1  11
ATOM     10  O   UNL     1      35.034 -16.678 -24.795  0.00  0.00    -0.245 OA
ATOM     11  C   UNL     1      34.873 -16.429 -23.610  0.00  0.00    +0.341 C 
BRANCH  11  12
ATOM     12  O   UNL     1      35.473 -17.072 -22.570  0.00  0.00    -0.445 OA
BRANCH  12  13
ATOM     13  C   UNL     1      35.792 -18.440 -22.781  0.00  0.00    +0.209 C 
BRANCH  13  14
ATOM     14  C   UNL     1      34.566 -19.286 -22.466  0.00  0.00    +0.047 C 
BRANCH  14  15
ATOM     15  C   UNL     1      34.106 -19.094 -21.024  0.00  0.00    +0.004 C 
ATOM     16  C   UNL     1      32.943 -20.012 -20.685  0.00  0.00    +0.000 C 
ENDBRANCH  14  15
ENDBRANCH  13  14
ENDBRANCH  12  13
ENDBRANCH  11  12
ENDBRANCH   1  11
TORSDOF 6
ENDMDL
