MODEL 1
REMARK VINA RESULT:      -8.0      0.000      0.000
REMARK  Name = 449076
REMARK  8 active torsions:
REMARK  status: ('A' for Active; 'I' for Inactive)
REMARK    1  A    between atoms: C_2  and  O_16
REMARK    2  A    between atoms: C_3  and  C_18
REMARK    3  A    between atoms: C_4  and  N_7
REMARK    4  A    between atoms: C_11  and  O_14
REMARK    5  A    between atoms: C_18  and  O_19
REMARK    6  A    between atoms: O_19  and  P_20
REMARK    7  A    between atoms: P_20  and  O_22
REMARK    8  A    between atoms: P_20  and  O_24
REMARK                            x       y       z     vdW  Elec       q    Type
REMARK                         _______ _______ _______ _____ _____    ______ ____
ROOT
ATOM      1  O   UNL     1      36.006 -25.318 -15.406  0.00  0.00    -0.335 OA
ATOM      2  C   UNL     1      37.624 -23.762 -14.643  0.00  0.00    +0.144 C 
ATOM      3  C   UNL     1      37.096 -25.180 -14.474  0.00  0.00    +0.174 C 
ATOM      4  C   UNL     1      35.643 -24.023 -15.906  0.00  0.00    +0.202 C 
ATOM      5  C   UNL     1      36.402 -22.992 -15.086  0.00  0.00    +0.083 C 
ENDROOT
BRANCH   4   7
ATOM      6  O   UNL     1      34.057 -22.982 -17.972  0.00  0.00    -0.252 OA
ATOM      7  N   UNL     1      34.220 -23.864 -15.821  0.00  0.00    -0.219 N 
ATOM      8  N   UNL     1      32.136 -23.205 -16.765  0.00  0.00    -0.263 N 
ATOM      9  C   UNL     1      33.511 -23.328 -16.920  0.00  0.00    +0.311 C 
ATOM     10  C   UNL     1      33.557 -24.239 -14.661  0.00  0.00    +0.071 C 
ATOM     11  C   UNL     1      31.368 -23.559 -15.584  0.00  0.00    +0.214 C 
ATOM     12  C   UNL     1      32.236 -24.112 -14.508  0.00  0.00    +0.040 C 
ATOM     13  H   UNL     1      31.634 -22.845 -17.531  0.00  0.00    +0.153 HD
BRANCH  11  14
ATOM     14  O   UNL     1      30.715 -22.393 -15.102  0.00  0.00    -0.364 OA
ATOM     15  H   UNL     1      29.774 -22.583 -14.967  0.00  0.00    +0.213 HD
ENDBRANCH  11  14
ENDBRANCH   4   7
BRANCH   2  16
ATOM     16  O   UNL     1      38.610 -23.730 -15.672  0.00  0.00    -0.382 OA
ATOM     17  H   UNL     1      38.857 -24.638 -15.911  0.00  0.00    +0.210 HD
ENDBRANCH   2  16
BRANCH   3  18
ATOM     18  C   UNL     1      36.554 -25.448 -13.076  0.00  0.00    +0.186 C 
BRANCH  18  19
ATOM     19  O   UNL     1      37.281 -24.663 -12.144  0.00  0.00    -0.271 OA
BRANCH  19  20
ATOM     20  P   UNL     1      36.459 -23.664 -11.171  0.00  0.00    +0.473 P 
ATOM     21  O   UNL     1      36.318 -24.135  -9.754  0.00  0.00    -0.227 OA
BRANCH  20  22
ATOM     22  O   UNL     1      35.070 -23.416 -11.960  0.00  0.00    -0.303 OA
ATOM     23  H   UNL     1      34.587 -22.686 -11.543  0.00  0.00    +0.222 HD
ENDBRANCH  20  22
BRANCH  20  24
ATOM     24  O   UNL     1      37.245 -22.262 -11.350  0.00  0.00    -0.303 OA
ATOM     25  H   UNL     1      38.194 -22.403 -11.209  0.00  0.00    +0.222 HD
ENDBRANCH  20  24
ENDBRANCH  19  20
ENDBRANCH  18  19
ENDBRANCH   3  18
TORSDOF 8
ENDMDL
MODEL 2
REMARK VINA RESULT:      -8.0      2.328      3.994
REMARK  Name = 449076
REMARK  8 active torsions:
REMARK  status: ('A' for Active; 'I' for Inactive)
REMARK    1  A    between atoms: C_2  and  O_16
REMARK    2  A    between atoms: C_3  and  C_18
REMARK    3  A    between atoms: C_4  and  N_7
REMARK    4  A    between atoms: C_11  and  O_14
REMARK    5  A    between atoms: C_18  and  O_19
REMARK    6  A    between atoms: O_19  and  P_20
REMARK    7  A    between atoms: P_20  and  O_22
REMARK    8  A    between atoms: P_20  and  O_24
REMARK                            x       y       z     vdW  Elec       q    Type
REMARK                         _______ _______ _______ _____ _____    ______ ____
ROOT
ATOM      1  O   UNL     1      36.074 -22.930 -14.349  0.00  0.00    -0.335 OA
ATOM      2  C   UNL     1      36.144 -25.151 -13.520  0.00  0.00    +0.144 C 
ATOM      3  C   UNL     1      36.975 -23.902 -13.783  0.00  0.00    +0.174 C 
ATOM      4  C   UNL     1      34.850 -23.580 -14.723  0.00  0.00    +0.202 C 
ATOM      5  C   UNL     1      35.070 -25.077 -14.581  0.00  0.00    +0.083 C 
ENDROOT
BRANCH   4   7
ATOM      6  O   UNL     1      32.263 -23.798 -15.785  0.00  0.00    -0.252 OA
ATOM      7  N   UNL     1      34.497 -23.193 -16.058  0.00  0.00    -0.219 N 
ATOM      8  N   UNL     1      32.895 -22.947 -17.802  0.00  0.00    -0.263 N 
ATOM      9  C   UNL     1      33.162 -23.345 -16.499  0.00  0.00    +0.311 C 
ATOM     10  C   UNL     1      35.470 -22.675 -16.902  0.00  0.00    +0.071 C 
ATOM     11  C   UNL     1      33.854 -22.411 -18.753  0.00  0.00    +0.214 C 
ATOM     12  C   UNL     1      35.215 -22.302 -18.159  0.00  0.00    +0.040 C 
ATOM     13  H   UNL     1      31.965 -23.037 -18.112  0.00  0.00    +0.153 HD
BRANCH  11  14
ATOM     14  O   UNL     1      33.905 -23.272 -19.880  0.00  0.00    -0.364 OA
ATOM     15  H   UNL     1      33.304 -24.020 -19.742  0.00  0.00    +0.213 HD
ENDBRANCH  11  14
ENDBRANCH   4   7
BRANCH   2  16
ATOM     16  O   UNL     1      35.547 -25.074 -12.227  0.00  0.00    -0.382 OA
ATOM     17  H   UNL     1      35.234 -24.169 -12.070  0.00  0.00    +0.210 HD
ENDBRANCH   2  16
BRANCH   3  18
ATOM     18  C   UNL     1      38.098 -24.138 -14.784  0.00  0.00    +0.186 C 
BRANCH  18  19
ATOM     19  O   UNL     1      39.238 -24.618 -14.088  0.00  0.00    -0.271 OA
BRANCH  19  20
ATOM     20  P   UNL     1      39.937 -25.984 -14.605  0.00  0.00    +0.473 P 
ATOM     21  O   UNL     1      41.092 -26.458 -13.774  0.00  0.00    -0.227 OA
BRANCH  20  22
ATOM     22  O   UNL     1      40.279 -25.678 -16.155  0.00  0.00    -0.303 OA
ATOM     23  H   UNL     1      39.678 -26.182 -16.726  0.00  0.00    +0.222 HD
ENDBRANCH  20  22
BRANCH  20  24
ATOM     24  O   UNL     1      38.692 -27.012 -14.695  0.00  0.00    -0.303 OA
ATOM     25  H   UNL     1      38.215 -26.871 -15.527  0.00  0.00    +0.222 HD
ENDBRANCH  20  24
ENDBRANCH  19  20
ENDBRANCH  18  19
ENDBRANCH   3  18
TORSDOF 8
ENDMDL
MODEL 3
REMARK VINA RESULT:      -8.0      7.731     10.268
REMARK  Name = 449076
REMARK  8 active torsions:
REMARK  status: ('A' for Active; 'I' for Inactive)
REMARK    1  A    between atoms: C_2  and  O_16
REMARK    2  A    between atoms: C_3  and  C_18
REMARK    3  A    between atoms: C_4  and  N_7
REMARK    4  A    between atoms: C_11  and  O_14
REMARK    5  A    between atoms: C_18  and  O_19
REMARK    6  A    between atoms: O_19  and  P_20
REMARK    7  A    between atoms: P_20  and  O_22
REMARK    8  A    between atoms: P_20  and  O_24
REMARK                            x       y       z     vdW  Elec       q    Type
REMARK                         _______ _______ _______ _____ _____    ______ ____
ROOT
ATOM      1  O   UNL     1      35.313 -17.522 -20.687  0.00  0.00    -0.335 OA
ATOM      2  C   UNL     1      34.679 -17.059 -22.925  0.00  0.00    +0.144 C 
ATOM      3  C   UNL     1      34.667 -16.522 -21.500  0.00  0.00    +0.174 C 
ATOM      4  C   UNL     1      35.445 -18.734 -21.443  0.00  0.00    +0.202 C 
ATOM      5  C   UNL     1      34.651 -18.557 -22.727  0.00  0.00    +0.083 C 
ENDROOT
BRANCH   4   7
ATOM      6  O   UNL     1      37.144 -20.466 -20.034  0.00  0.00    -0.252 OA
ATOM      7  N   UNL     1      34.986 -19.838 -20.652  0.00  0.00    -0.219 N 
ATOM      8  N   UNL     1      35.406 -21.703 -19.232  0.00  0.00    -0.263 N 
ATOM      9  C   UNL     1      35.925 -20.654 -19.980  0.00  0.00    +0.311 C 
ATOM     10  C   UNL     1      33.625 -20.093 -20.556  0.00  0.00    +0.071 C 
ATOM     11  C   UNL     1      34.001 -22.047 -19.091  0.00  0.00    +0.214 C 
ATOM     12  C   UNL     1      33.126 -21.107 -19.844  0.00  0.00    +0.040 C 
ATOM     13  H   UNL     1      36.053 -22.268 -18.751  0.00  0.00    +0.153 HD
BRANCH  11  14
ATOM     14  O   UNL     1      33.805 -23.364 -19.584  0.00  0.00    -0.364 OA
ATOM     15  H   UNL     1      34.642 -23.852 -19.542  0.00  0.00    +0.213 HD
ENDBRANCH  11  14
ENDBRANCH   4   7
BRANCH   2  16
ATOM     16  O   UNL     1      35.892 -16.683 -23.575  0.00  0.00    -0.382 OA
ATOM     17  H   UNL     1      35.860 -16.962 -24.504  0.00  0.00    +0.210 HD
ENDBRANCH   2  16
BRANCH   3  18
ATOM     18  C   UNL     1      33.260 -16.315 -20.957  0.00  0.00    +0.186 C 
BRANCH  18  19
ATOM     19  O   UNL     1      32.527 -15.518 -21.873  0.00  0.00    -0.271 OA
BRANCH  19  20
ATOM     20  P   UNL     1      32.656 -13.907 -21.768  0.00  0.00    +0.473 P 
ATOM     21  O   UNL     1      32.587 -13.356 -20.375  0.00  0.00    -0.227 OA
BRANCH  20  22
ATOM     22  O   UNL     1      31.523 -13.364 -22.785  0.00  0.00    -0.303 OA
ATOM     23  H   UNL     1      31.482 -13.941 -23.563  0.00  0.00    +0.222 HD
ENDBRANCH  20  22
BRANCH  20  24
ATOM     24  O   UNL     1      34.037 -13.606 -22.555  0.00  0.00    -0.303 OA
ATOM     25  H   UNL     1      34.572 -14.414 -22.589  0.00  0.00    +0.222 HD
ENDBRANCH  20  24
ENDBRANCH  19  20
ENDBRANCH  18  19
ENDBRANCH   3  18
TORSDOF 8
ENDMDL
MODEL 4
REMARK VINA RESULT:      -7.9      3.135      6.676
REMARK  Name = 449076
REMARK  8 active torsions:
REMARK  status: ('A' for Active; 'I' for Inactive)
REMARK    1  A    between atoms: C_2  and  O_16
REMARK    2  A    between atoms: C_3  and  C_18
REMARK    3  A    between atoms: C_4  and  N_7
REMARK    4  A    between atoms: C_11  and  O_14
REMARK    5  A    between atoms: C_18  and  O_19
REMARK    6  A    between atoms: O_19  and  P_20
REMARK    7  A    between atoms: P_20  and  O_22
REMARK    8  A    between atoms: P_20  and  O_24
REMARK                            x       y       z     vdW  Elec       q    Type
REMARK                         _______ _______ _______ _____ _____    ______ ____
ROOT
ATOM      1  O   UNL     1      32.018 -25.409 -14.395  0.00  0.00    -0.335 OA
ATOM      2  C   UNL     1      30.418 -23.954 -13.423  0.00  0.00    +0.144 C 
ATOM      3  C   UNL     1      30.614 -25.085 -14.422  0.00  0.00    +0.174 C 
ATOM      4  C   UNL     1      32.728 -24.380 -13.692  0.00  0.00    +0.202 C 
ATOM      5  C   UNL     1      31.751 -23.242 -13.447  0.00  0.00    +0.083 C 
ENDROOT
BRANCH   4   7
ATOM      6  O   UNL     1      35.383 -24.700 -12.846  0.00  0.00    -0.252 OA
ATOM      7  N   UNL     1      33.868 -23.979 -14.463  0.00  0.00    -0.219 N 
ATOM      8  N   UNL     1      36.223 -23.771 -14.750  0.00  0.00    -0.263 N 
ATOM      9  C   UNL     1      35.168 -24.183 -13.946  0.00  0.00    +0.311 C 
ATOM     10  C   UNL     1      33.682 -23.394 -15.708  0.00  0.00    +0.071 C 
ATOM     11  C   UNL     1      36.115 -23.140 -16.055  0.00  0.00    +0.214 C 
ATOM     12  C   UNL     1      34.696 -22.989 -16.478  0.00  0.00    +0.040 C 
ATOM     13  H   UNL     1      37.131 -23.922 -14.403  0.00  0.00    +0.153 HD
BRANCH  11  14
ATOM     14  O   UNL     1      36.721 -21.858 -15.989  0.00  0.00    -0.364 OA
ATOM     15  H   UNL     1      36.153 -21.258 -15.480  0.00  0.00    +0.213 HD
ENDBRANCH  11  14
ENDBRANCH   4   7
BRANCH   2  16
ATOM     16  O   UNL     1      30.184 -24.490 -12.123  0.00  0.00    -0.382 OA
ATOM     17  H   UNL     1      29.704 -25.329 -12.201  0.00  0.00    +0.210 HD
ENDBRANCH   2  16
BRANCH   3  18
ATOM     18  C   UNL     1      30.253 -24.686 -15.847  0.00  0.00    +0.186 C 
BRANCH  18  19
ATOM     19  O   UNL     1      28.876 -24.346 -15.893  0.00  0.00    -0.271 OA
BRANCH  19  20
ATOM     20  P   UNL     1      28.454 -22.929 -16.554  0.00  0.00    +0.473 P 
ATOM     21  O   UNL     1      27.726 -21.994 -15.635  0.00  0.00    -0.227 OA
BRANCH  20  22
ATOM     22  O   UNL     1      27.650 -23.353 -17.890  0.00  0.00    -0.303 OA
ATOM     23  H   UNL     1      26.928 -23.957 -17.656  0.00  0.00    +0.222 HD
ENDBRANCH  20  22
BRANCH  20  24
ATOM     24  O   UNL     1      29.858 -22.368 -17.127  0.00  0.00    -0.303 OA
ATOM     25  H   UNL     1      30.309 -21.858 -16.437  0.00  0.00    +0.222 HD
ENDBRANCH  20  24
ENDBRANCH  19  20
ENDBRANCH  18  19
ENDBRANCH   3  18
TORSDOF 8
ENDMDL
MODEL 5
REMARK VINA RESULT:      -7.8      2.512      4.093
REMARK  Name = 449076
REMARK  8 active torsions:
REMARK  status: ('A' for Active; 'I' for Inactive)
REMARK    1  A    between atoms: C_2  and  O_16
REMARK    2  A    between atoms: C_3  and  C_18
REMARK    3  A    between atoms: C_4  and  N_7
REMARK    4  A    between atoms: C_11  and  O_14
REMARK    5  A    between atoms: C_18  and  O_19
REMARK    6  A    between atoms: O_19  and  P_20
REMARK    7  A    between atoms: P_20  and  O_22
REMARK    8  A    between atoms: P_20  and  O_24
REMARK                            x       y       z     vdW  Elec       q    Type
REMARK                         _______ _______ _______ _____ _____    ______ ____
ROOT
ATOM      1  O   UNL     1      37.197 -23.308 -14.765  0.00  0.00    -0.335 OA
ATOM      2  C   UNL     1      36.055 -24.618 -13.152  0.00  0.00    +0.144 C 
ATOM      3  C   UNL     1      37.368 -24.452 -13.905  0.00  0.00    +0.174 C 
ATOM      4  C   UNL     1      35.807 -22.956 -14.814  0.00  0.00    +0.202 C 
ATOM      5  C   UNL     1      35.034 -24.064 -14.117  0.00  0.00    +0.083 C 
ENDROOT
BRANCH   4   7
ATOM      6  O   UNL     1      37.342 -21.588 -16.722  0.00  0.00    -0.252 OA
ATOM      7  N   UNL     1      35.411 -22.775 -16.180  0.00  0.00    -0.219 N 
ATOM      8  N   UNL     1      35.809 -21.935 -18.372  0.00  0.00    -0.263 N 
ATOM      9  C   UNL     1      36.258 -22.068 -17.065  0.00  0.00    +0.311 C 
ATOM     10  C   UNL     1      34.202 -23.297 -16.618  0.00  0.00    +0.071 C 
ATOM     11  C   UNL     1      34.555 -22.436 -18.908  0.00  0.00    +0.214 C 
ATOM     12  C   UNL     1      33.766 -23.160 -17.873  0.00  0.00    +0.040 C 
ATOM     13  H   UNL     1      36.399 -21.455 -18.997  0.00  0.00    +0.153 HD
BRANCH  11  14
ATOM     14  O   UNL     1      33.795 -21.336 -19.387  0.00  0.00    -0.364 OA
ATOM     15  H   UNL     1      33.558 -21.488 -20.315  0.00  0.00    +0.213 HD
ENDBRANCH  11  14
ENDBRANCH   4   7
BRANCH   2  16
ATOM     16  O   UNL     1      36.073 -23.828 -11.965  0.00  0.00    -0.382 OA
ATOM     17  H   UNL     1      35.176 -23.508 -11.777  0.00  0.00    +0.210 HD
ENDBRANCH   2  16
BRANCH   3  18
ATOM     18  C   UNL     1      37.705 -25.650 -14.782  0.00  0.00    +0.186 C 
BRANCH  18  19
ATOM     19  O   UNL     1      38.815 -26.332 -14.219  0.00  0.00    -0.271 OA
BRANCH  19  20
ATOM     20  P   UNL     1      40.305 -25.828 -14.604  0.00  0.00    +0.473 P 
ATOM     21  O   UNL     1      40.711 -24.523 -13.987  0.00  0.00    -0.227 OA
BRANCH  20  22
ATOM     22  O   UNL     1      40.316 -25.862 -16.221  0.00  0.00    -0.303 OA
ATOM     23  H   UNL     1      39.741 -25.160 -16.564  0.00  0.00    +0.222 HD
ENDBRANCH  20  22
BRANCH  20  24
ATOM     24  O   UNL     1      41.228 -27.092 -14.199  0.00  0.00    -0.303 OA
ATOM     25  H   UNL     1      41.414 -27.065 -13.248  0.00  0.00    +0.222 HD
ENDBRANCH  20  24
ENDBRANCH  19  20
ENDBRANCH  18  19
ENDBRANCH   3  18
TORSDOF 8
ENDMDL
MODEL 6
REMARK VINA RESULT:      -7.6     11.028     13.220
REMARK  Name = 449076
REMARK  8 active torsions:
REMARK  status: ('A' for Active; 'I' for Inactive)
REMARK    1  A    between atoms: C_2  and  O_16
REMARK    2  A    between atoms: C_3  and  C_18
REMARK    3  A    between atoms: C_4  and  N_7
REMARK    4  A    between atoms: C_11  and  O_14
REMARK    5  A    between atoms: C_18  and  O_19
REMARK    6  A    between atoms: O_19  and  P_20
REMARK    7  A    between atoms: P_20  and  O_22
REMARK    8  A    between atoms: P_20  and  O_24
REMARK                            x       y       z     vdW  Elec       q    Type
REMARK                         _______ _______ _______ _____ _____    ______ ____
ROOT
ATOM      1  O   UNL     1      34.608 -13.942 -22.344  0.00  0.00    -0.335 OA
ATOM      2  C   UNL     1      32.860 -14.854 -21.026  0.00  0.00    +0.144 C 
ATOM      3  C   UNL     1      34.335 -14.978 -21.380  0.00  0.00    +0.174 C 
ATOM      4  C   UNL     1      33.368 -13.400 -22.820  0.00  0.00    +0.202 C 
ATOM      5  C   UNL     1      32.252 -14.285 -22.288  0.00  0.00    +0.083 C 
ENDROOT
BRANCH   4   7
ATOM      6  O   UNL     1      34.064 -11.108 -24.281  0.00  0.00    -0.252 OA
ATOM      7  N   UNL     1      33.395 -13.341 -24.253  0.00  0.00    -0.219 N 
ATOM      8  N   UNL     1      33.765 -12.154 -26.284  0.00  0.00    -0.263 N 
ATOM      9  C   UNL     1      33.759 -12.135 -24.895  0.00  0.00    +0.311 C 
ATOM     10  C   UNL     1      33.064 -14.468 -24.992  0.00  0.00    +0.071 C 
ATOM     11  C   UNL     1      33.419 -13.283 -27.131  0.00  0.00    +0.214 C 
ATOM     12  C   UNL     1      33.060 -14.483 -26.327  0.00  0.00    +0.040 C 
ATOM     13  H   UNL     1      34.031 -11.322 -26.738  0.00  0.00    +0.153 HD
BRANCH  11  14
ATOM     14  O   UNL     1      32.314 -12.918 -27.943  0.00  0.00    -0.364 OA
ATOM     15  H   UNL     1      32.589 -12.895 -28.873  0.00  0.00    +0.213 HD
ENDBRANCH  11  14
ENDBRANCH   4   7
BRANCH   2  16
ATOM     16  O   UNL     1      32.694 -13.928 -19.954  0.00  0.00    -0.382 OA
ATOM     17  H   UNL     1      33.093 -13.078 -20.197  0.00  0.00    +0.210 HD
ENDBRANCH   2  16
BRANCH   3  18
ATOM     18  C   UNL     1      34.680 -16.316 -22.021  0.00  0.00    +0.186 C 
BRANCH  18  19
ATOM     19  O   UNL     1      35.130 -17.205 -21.011  0.00  0.00    -0.271 OA
BRANCH  19  20
ATOM     20  P   UNL     1      35.770 -18.623 -21.461  0.00  0.00    +0.473 P 
ATOM     21  O   UNL     1      36.532 -19.343 -20.389  0.00  0.00    -0.227 OA
BRANCH  20  22
ATOM     22  O   UNL     1      36.619 -18.256 -22.787  0.00  0.00    -0.303 OA
ATOM     23  H   UNL     1      37.514 -18.621 -22.710  0.00  0.00    +0.222 HD
ENDBRANCH  20  22
BRANCH  20  24
ATOM     24  O   UNL     1      34.493 -19.423 -22.046  0.00  0.00    -0.303 OA
ATOM     25  H   UNL     1      34.794 -20.102 -22.669  0.00  0.00    +0.222 HD
ENDBRANCH  20  24
ENDBRANCH  19  20
ENDBRANCH  18  19
ENDBRANCH   3  18
TORSDOF 8
ENDMDL
MODEL 7
REMARK VINA RESULT:      -7.6      8.947     11.613
REMARK  Name = 449076
REMARK  8 active torsions:
REMARK  status: ('A' for Active; 'I' for Inactive)
REMARK    1  A    between atoms: C_2  and  O_16
REMARK    2  A    between atoms: C_3  and  C_18
REMARK    3  A    between atoms: C_4  and  N_7
REMARK    4  A    between atoms: C_11  and  O_14
REMARK    5  A    between atoms: C_18  and  O_19
REMARK    6  A    between atoms: O_19  and  P_20
REMARK    7  A    between atoms: P_20  and  O_22
REMARK    8  A    between atoms: P_20  and  O_24
REMARK                            x       y       z     vdW  Elec       q    Type
REMARK                         _______ _______ _______ _____ _____    ______ ____
ROOT
ATOM      1  O   UNL     1      35.748 -16.957 -22.598  0.00  0.00    -0.335 OA
ATOM      2  C   UNL     1      34.431 -17.027 -24.569  0.00  0.00    +0.144 C 
ATOM      3  C   UNL     1      34.859 -16.153 -23.398  0.00  0.00    +0.174 C 
ATOM      4  C   UNL     1      35.659 -18.325 -23.020  0.00  0.00    +0.202 C 
ATOM      5  C   UNL     1      34.497 -18.424 -23.995  0.00  0.00    +0.083 C 
ENDROOT
BRANCH   4   7
ATOM      6  O   UNL     1      37.750 -19.051 -21.297  0.00  0.00    -0.252 OA
ATOM      7  N   UNL     1      35.494 -19.166 -21.871  0.00  0.00    -0.219 N 
ATOM      8  N   UNL     1      36.377 -20.294 -19.968  0.00  0.00    -0.263 N 
ATOM      9  C   UNL     1      36.614 -19.475 -21.065  0.00  0.00    +0.311 C 
ATOM     10  C   UNL     1      34.237 -19.669 -21.563  0.00  0.00    +0.071 C 
ATOM     11  C   UNL     1      35.100 -20.871 -19.585  0.00  0.00    +0.214 C 
ATOM     12  C   UNL     1      34.011 -20.464 -20.514  0.00  0.00    +0.040 C 
ATOM     13  H   UNL     1      37.149 -20.502 -19.394  0.00  0.00    +0.153 HD
BRANCH  11  14
ATOM     14  O   UNL     1      35.220 -22.286 -19.599  0.00  0.00    -0.364 OA
ATOM     15  H   UNL     1      35.754 -22.557 -20.362  0.00  0.00    +0.213 HD
ENDBRANCH  11  14
ENDBRANCH   4   7
BRANCH   2  16
ATOM     16  O   UNL     1      35.370 -16.902 -25.635  0.00  0.00    -0.382 OA
ATOM     17  H   UNL     1      36.263 -17.088 -25.303  0.00  0.00    +0.210 HD
ENDBRANCH   2  16
BRANCH   3  18
ATOM     18  C   UNL     1      33.691 -15.729 -22.517  0.00  0.00    +0.186 C 
BRANCH  18  19
ATOM     19  O   UNL     1      33.737 -14.322 -22.340  0.00  0.00    -0.271 OA
BRANCH  19  20
ATOM     20  P   UNL     1      33.024 -13.382 -23.449  0.00  0.00    +0.473 P 
ATOM     21  O   UNL     1      32.611 -14.088 -24.706  0.00  0.00    -0.227 OA
BRANCH  20  22
ATOM     22  O   UNL     1      34.069 -12.165 -23.650  0.00  0.00    -0.303 OA
ATOM     23  H   UNL     1      33.692 -11.511 -24.259  0.00  0.00    +0.222 HD
ENDBRANCH  20  22
BRANCH  20  24
ATOM     24  O   UNL     1      31.815 -12.701 -22.619  0.00  0.00    -0.303 OA
ATOM     25  H   UNL     1      31.992 -11.754 -22.508  0.00  0.00    +0.222 HD
ENDBRANCH  20  24
ENDBRANCH  19  20
ENDBRANCH  18  19
ENDBRANCH   3  18
TORSDOF 8
ENDMDL
MODEL 8
REMARK VINA RESULT:      -7.5     11.220     13.241
REMARK  Name = 449076
REMARK  8 active torsions:
REMARK  status: ('A' for Active; 'I' for Inactive)
REMARK    1  A    between atoms: C_2  and  O_16
REMARK    2  A    between atoms: C_3  and  C_18
REMARK    3  A    between atoms: C_4  and  N_7
REMARK    4  A    between atoms: C_11  and  O_14
REMARK    5  A    between atoms: C_18  and  O_19
REMARK    6  A    between atoms: O_19  and  P_20
REMARK    7  A    between atoms: P_20  and  O_22
REMARK    8  A    between atoms: P_20  and  O_24
REMARK                            x       y       z     vdW  Elec       q    Type
REMARK                         _______ _______ _______ _____ _____    ______ ____
ROOT
ATOM      1  O   UNL     1      32.039 -14.308 -22.130  0.00  0.00    -0.335 OA
ATOM      2  C   UNL     1      33.997 -14.607 -23.434  0.00  0.00    +0.144 C 
ATOM      3  C   UNL     1      33.125 -15.230 -22.353  0.00  0.00    +0.174 C 
ATOM      4  C   UNL     1      32.341 -13.058 -22.765  0.00  0.00    +0.202 C 
ATOM      5  C   UNL     1      33.786 -13.124 -23.233  0.00  0.00    +0.083 C 
ENDROOT
BRANCH   4   7
ATOM      6  O   UNL     1      32.370 -10.343 -23.470  0.00  0.00    -0.252 OA
ATOM      7  N   UNL     1      32.104 -11.988 -21.840  0.00  0.00    -0.219 N 
ATOM      8  N   UNL     1      31.901  -9.667 -21.345  0.00  0.00    -0.263 N 
ATOM      9  C   UNL     1      32.142 -10.650 -22.297  0.00  0.00    +0.311 C 
ATOM     10  C   UNL     1      31.841 -12.277 -20.509  0.00  0.00    +0.071 C 
ATOM     11  C   UNL     1      31.632  -9.883 -19.934  0.00  0.00    +0.214 C 
ATOM     12  C   UNL     1      31.619 -11.332 -19.592  0.00  0.00    +0.040 C 
ATOM     13  H   UNL     1      31.912  -8.734 -21.658  0.00  0.00    +0.153 HD
BRANCH  11  14
ATOM     14  O   UNL     1      32.643  -9.235 -19.176  0.00  0.00    -0.364 OA
ATOM     15  H   UNL     1      33.125  -9.893 -18.651  0.00  0.00    +0.213 HD
ENDBRANCH  11  14
ENDBRANCH   4   7
BRANCH   2  16
ATOM     16  O   UNL     1      33.519 -14.988 -24.723  0.00  0.00    -0.382 OA
ATOM     17  H   UNL     1      32.548 -15.010 -24.714  0.00  0.00    +0.210 HD
ENDBRANCH   2  16
BRANCH   3  18
ATOM     18  C   UNL     1      33.861 -15.415 -21.032  0.00  0.00    +0.186 C 
BRANCH  18  19
ATOM     19  O   UNL     1      35.018 -16.203 -21.259  0.00  0.00    -0.271 OA
BRANCH  19  20
ATOM     20  P   UNL     1      34.839 -17.803 -21.432  0.00  0.00    +0.473 P 
ATOM     21  O   UNL     1      33.501 -18.339 -21.017  0.00  0.00    -0.227 OA
BRANCH  20  22
ATOM     22  O   UNL     1      36.108 -18.418 -20.640  0.00  0.00    -0.303 OA
ATOM     23  H   UNL     1      36.919 -18.247 -21.144  0.00  0.00    +0.222 HD
ENDBRANCH  20  22
BRANCH  20  24
ATOM     24  O   UNL     1      35.219 -18.041 -22.985  0.00  0.00    -0.303 OA
ATOM     25  H   UNL     1      34.424 -17.944 -23.531  0.00  0.00    +0.222 HD
ENDBRANCH  20  24
ENDBRANCH  19  20
ENDBRANCH  18  19
ENDBRANCH   3  18
TORSDOF 8
ENDMDL
MODEL 9
REMARK VINA RESULT:      -7.4      2.496      3.168
REMARK  Name = 449076
REMARK  8 active torsions:
REMARK  status: ('A' for Active; 'I' for Inactive)
REMARK    1  A    between atoms: C_2  and  O_16
REMARK    2  A    between atoms: C_3  and  C_18
REMARK    3  A    between atoms: C_4  and  N_7
REMARK    4  A    between atoms: C_11  and  O_14
REMARK    5  A    between atoms: C_18  and  O_19
REMARK    6  A    between atoms: O_19  and  P_20
REMARK    7  A    between atoms: P_20  and  O_22
REMARK    8  A    between atoms: P_20  and  O_24
REMARK                            x       y       z     vdW  Elec       q    Type
REMARK                         _______ _______ _______ _____ _____    ______ ____
ROOT
ATOM      1  O   UNL     1      36.055 -24.399 -15.937  0.00  0.00    -0.335 OA
ATOM      2  C   UNL     1      37.161 -22.312 -15.728  0.00  0.00    +0.144 C 
ATOM      3  C   UNL     1      37.321 -23.817 -15.569  0.00  0.00    +0.174 C 
ATOM      4  C   UNL     1      35.064 -23.365 -16.016  0.00  0.00    +0.202 C 
ATOM      5  C   UNL     1      35.689 -22.095 -15.463  0.00  0.00    +0.083 C 
ENDROOT
BRANCH   4   7
ATOM      6  O   UNL     1      32.442 -23.035 -16.957  0.00  0.00    -0.252 OA
ATOM      7  N   UNL     1      33.896 -23.772 -15.291  0.00  0.00    -0.219 N 
ATOM      8  N   UNL     1      31.532 -23.981 -15.095  0.00  0.00    -0.263 N 
ATOM      9  C   UNL     1      32.616 -23.560 -15.853  0.00  0.00    +0.311 C 
ATOM     10  C   UNL     1      34.034 -24.369 -14.046  0.00  0.00    +0.071 C 
ATOM     11  C   UNL     1      31.589 -24.599 -13.781  0.00  0.00    +0.214 C 
ATOM     12  C   UNL     1      32.992 -24.765 -13.312  0.00  0.00    +0.040 C 
ATOM     13  H   UNL     1      30.638 -23.849 -15.486  0.00  0.00    +0.153 HD
BRANCH  11  14
ATOM     14  O   UNL     1      30.884 -23.777 -12.862  0.00  0.00    -0.364 OA
ATOM     15  H   UNL     1      30.680 -24.288 -12.063  0.00  0.00    +0.213 HD
ENDBRANCH  11  14
ENDBRANCH   4   7
BRANCH   2  16
ATOM     16  O   UNL     1      37.468 -21.929 -17.067  0.00  0.00    -0.382 OA
ATOM     17  H   UNL     1      37.158 -21.023 -17.223  0.00  0.00    +0.210 HD
ENDBRANCH   2  16
BRANCH   3  18
ATOM     18  C   UNL     1      37.629 -24.233 -14.137  0.00  0.00    +0.186 C 
BRANCH  18  19
ATOM     19  O   UNL     1      39.010 -24.540 -14.035  0.00  0.00    -0.271 OA
BRANCH  19  20
ATOM     20  P   UNL     1      39.529 -25.959 -14.615  0.00  0.00    +0.473 P 
ATOM     21  O   UNL     1      38.488 -27.037 -14.677  0.00  0.00    -0.227 OA
BRANCH  20  22
ATOM     22  O   UNL     1      40.822 -26.297 -13.704  0.00  0.00    -0.303 OA
ATOM     23  H   UNL     1      41.522 -25.651 -13.883  0.00  0.00    +0.222 HD
ENDBRANCH  20  22
BRANCH  20  24
ATOM     24  O   UNL     1      40.176 -25.550 -16.040  0.00  0.00    -0.303 OA
ATOM     25  H   UNL     1      39.706 -26.012 -16.752  0.00  0.00    +0.222 HD
ENDBRANCH  20  24
ENDBRANCH  19  20
ENDBRANCH  18  19
ENDBRANCH   3  18
TORSDOF 8
ENDMDL
