MODEL 1
REMARK VINA RESULT:     -11.4      0.000      0.000
REMARK  Name = 24812718
REMARK  6 active torsions:
REMARK  status: ('A' for Active; 'I' for Inactive)
REMARK    1  A    between atoms: C_1  and  C_10
REMARK    2  A    between atoms: C_4  and  C_21
REMARK    3  A    between atoms: N_9  and  C_12
REMARK    4  A    between atoms: C_12  and  C_13
REMARK    5  A    between atoms: C_13  and  C_14
REMARK    6  A    between atoms: N_20  and  C_25
REMARK                            x       y       z     vdW  Elec       q    Type
REMARK                         _______ _______ _______ _____ _____    ______ ____
ROOT
ATOM      1  C   UNL     1      34.762 -16.531 -22.859  0.00  0.00    +0.053 C 
ATOM      2  C   UNL     1      34.281 -15.229 -22.718  0.00  0.00    +0.009 C 
ATOM      3  C   UNL     1      34.695 -17.169 -24.098  0.00  0.00    +0.004 C 
ATOM      4  C   UNL     1      33.733 -14.565 -23.815  0.00  0.00    +0.050 C 
ATOM      5  C   UNL     1      33.667 -15.203 -25.054  0.00  0.00    -0.017 C 
ATOM      6  C   UNL     1      34.147 -16.505 -25.196  0.00  0.00    -0.004 C 
ATOM      7  C   UNL     1      33.084 -14.515 -26.246  0.00  0.00    +0.031 C 
ENDROOT
BRANCH   1  10
ATOM      8  O   UNL     1      35.061 -16.861 -20.556  0.00  0.00    -0.270 OA
ATOM      9  N   UNL     1      36.172 -18.319 -21.979  0.00  0.00    -0.301 N 
ATOM     10  C   UNL     1      35.345 -17.239 -21.690  0.00  0.00    +0.246 C 
ATOM     11  H   UNL     1      36.340 -18.546 -22.922  0.00  0.00    +0.150 HD
BRANCH   9  12
ATOM     12  C   UNL     1      36.789 -19.119 -20.957  0.00  0.00    +0.090 C 
BRANCH  12  13
ATOM     13  C   UNL     1      36.226 -20.536 -20.910  0.00  0.00    +0.021 C 
BRANCH  13  14
ATOM     14  C   UNL     1      35.097 -20.688 -19.904  0.00  0.00    +0.002 C 
ATOM     15  C   UNL     1      34.916 -22.122 -19.416  0.00  0.00    +0.000 C 
ATOM     16  C   UNL     1      33.725 -20.367 -20.487  0.00  0.00    +0.000 C 
ATOM     17  C   UNL     1      33.517 -22.129 -18.809  0.00  0.00    +0.000 C 
ATOM     18  C   UNL     1      32.747 -21.007 -19.507  0.00  0.00    +0.000 C 
ENDBRANCH  13  14
ENDBRANCH  12  13
ENDBRANCH   9  12
ENDBRANCH   1  10
BRANCH   4  21
ATOM     19  O   UNL     1      32.092 -13.037 -23.199  0.00  0.00    -0.270 OA
ATOM     20  N   UNL     1      34.136 -12.183 -23.972  0.00  0.00    -0.279 N 
ATOM     21  C   UNL     1      33.239 -13.206 -23.640  0.00  0.00    +0.249 C 
ATOM     22  H   UNL     1      35.013 -12.476 -24.311  0.00  0.00    +0.155 HD
BRANCH  20  25
ATOM     23  N   UNL     1      32.556  -8.928 -23.197  0.00  0.00    -0.228 NA
ATOM     24  N   UNL     1      33.307  -6.698 -23.574  0.00  0.00    -0.343 N 
ATOM     25  C   UNL     1      33.947 -10.782 -23.883  0.00  0.00    +0.070 C 
ATOM     26  C   UNL     1      34.906  -9.896 -24.361  0.00  0.00    +0.019 C 
ATOM     27  C   UNL     1      32.799 -10.253 -23.315  0.00  0.00    +0.115 C 
ATOM     28  C   UNL     1      34.691  -8.526 -24.256  0.00  0.00    +0.035 C 
ATOM     29  C   UNL     1      33.510  -8.097 -23.672  0.00  0.00    +0.125 C 
ATOM     30  H   UNL     1      32.482  -6.349 -23.165  0.00  0.00    +0.144 HD
ATOM     31  H   UNL     1      33.990  -6.076 -23.914  0.00  0.00    +0.144 HD
ENDBRANCH  20  25
ENDBRANCH   4  21
TORSDOF 6
ENDMDL
MODEL 2
REMARK VINA RESULT:     -11.3      2.642      9.596
REMARK  Name = 24812718
REMARK  6 active torsions:
REMARK  status: ('A' for Active; 'I' for Inactive)
REMARK    1  A    between atoms: C_1  and  C_10
REMARK    2  A    between atoms: C_4  and  C_21
REMARK    3  A    between atoms: N_9  and  C_12
REMARK    4  A    between atoms: C_12  and  C_13
REMARK    5  A    between atoms: C_13  and  C_14
REMARK    6  A    between atoms: N_20  and  C_25
REMARK                            x       y       z     vdW  Elec       q    Type
REMARK                         _______ _______ _______ _____ _____    ______ ____
ROOT
ATOM      1  C   UNL     1      33.952 -15.371 -23.668  0.00  0.00    +0.053 C 
ATOM      2  C   UNL     1      34.178 -16.178 -22.553  0.00  0.00    +0.009 C 
ATOM      3  C   UNL     1      34.120 -15.891 -24.951  0.00  0.00    +0.004 C 
ATOM      4  C   UNL     1      34.571 -17.505 -22.721  0.00  0.00    +0.050 C 
ATOM      5  C   UNL     1      34.739 -18.026 -24.004  0.00  0.00    -0.017 C 
ATOM      6  C   UNL     1      34.514 -17.219 -25.120  0.00  0.00    -0.004 C 
ATOM      7  C   UNL     1      35.160 -19.444 -24.213  0.00  0.00    +0.031 C 
ENDROOT
BRANCH   1  10
ATOM      8  O   UNL     1      34.145 -13.070 -24.080  0.00  0.00    -0.270 OA
ATOM      9  N   UNL     1      32.435 -13.742 -22.663  0.00  0.00    -0.301 N 
ATOM     10  C   UNL     1      33.533 -13.956 -23.490  0.00  0.00    +0.246 C 
ATOM     11  H   UNL     1      32.010 -14.519 -22.233  0.00  0.00    +0.150 HD
BRANCH   9  12
ATOM     12  C   UNL     1      31.896 -12.434 -22.412  0.00  0.00    +0.090 C 
BRANCH  12  13
ATOM     13  C   UNL     1      31.684 -12.171 -20.925  0.00  0.00    +0.021 C 
BRANCH  13  14
ATOM     14  C   UNL     1      31.389 -10.712 -20.620  0.00  0.00    +0.002 C 
ATOM     15  C   UNL     1      31.946  -9.754 -21.667  0.00  0.00    +0.000 C 
ATOM     16  C   UNL     1      32.054 -10.219 -19.339  0.00  0.00    +0.000 C 
ATOM     17  C   UNL     1      31.943  -8.399 -20.964  0.00  0.00    +0.000 C 
ATOM     18  C   UNL     1      32.024  -8.699 -19.467  0.00  0.00    +0.000 C 
ENDBRANCH  13  14
ENDBRANCH  12  13
ENDBRANCH   9  12
ENDBRANCH   1  10
BRANCH   4  21
ATOM     19  O   UNL     1      35.618 -17.941 -20.690  0.00  0.00    -0.270 OA
ATOM     20  N   UNL     1      34.038 -19.498 -21.454  0.00  0.00    -0.279 N 
ATOM     21  C   UNL     1      34.800 -18.326 -21.539  0.00  0.00    +0.249 C 
ATOM     22  H   UNL     1      33.430 -19.669 -22.210  0.00  0.00    +0.155 HD
BRANCH  20  25
ATOM     23  N   UNL     1      32.752 -21.820 -18.875  0.00  0.00    -0.228 NA
ATOM     24  N   UNL     1      33.894 -23.306 -17.403  0.00  0.00    -0.343 N 
ATOM     25  C   UNL     1      34.026 -20.468 -20.422  0.00  0.00    +0.070 C 
ATOM     26  C   UNL     1      35.209 -21.020 -19.942  0.00  0.00    +0.019 C 
ATOM     27  C   UNL     1      32.834 -20.897 -19.860  0.00  0.00    +0.115 C 
ATOM     28  C   UNL     1      35.164 -21.972 -18.930  0.00  0.00    +0.035 C 
ATOM     29  C   UNL     1      33.922 -22.334 -18.435  0.00  0.00    +0.125 C 
ATOM     30  H   UNL     1      33.032 -23.593 -17.021  0.00  0.00    +0.144 HD
ATOM     31  H   UNL     1      34.734 -23.692 -17.068  0.00  0.00    +0.144 HD
ENDBRANCH  20  25
ENDBRANCH   4  21
TORSDOF 6
ENDMDL
MODEL 3
REMARK VINA RESULT:     -11.2      2.067     10.087
REMARK  Name = 24812718
REMARK  6 active torsions:
REMARK  status: ('A' for Active; 'I' for Inactive)
REMARK    1  A    between atoms: C_1  and  C_10
REMARK    2  A    between atoms: C_4  and  C_21
REMARK    3  A    between atoms: N_9  and  C_12
REMARK    4  A    between atoms: C_12  and  C_13
REMARK    5  A    between atoms: C_13  and  C_14
REMARK    6  A    between atoms: N_20  and  C_25
REMARK                            x       y       z     vdW  Elec       q    Type
REMARK                         _______ _______ _______ _____ _____    ______ ____
ROOT
ATOM      1  C   UNL     1      32.903 -13.600 -22.413  0.00  0.00    +0.053 C 
ATOM      2  C   UNL     1      33.292 -14.673 -21.612  0.00  0.00    +0.009 C 
ATOM      3  C   UNL     1      33.181 -13.614 -23.780  0.00  0.00    +0.004 C 
ATOM      4  C   UNL     1      33.958 -15.761 -22.176  0.00  0.00    +0.050 C 
ATOM      5  C   UNL     1      34.235 -15.775 -23.543  0.00  0.00    -0.017 C 
ATOM      6  C   UNL     1      33.847 -14.702 -24.346  0.00  0.00    -0.004 C 
ATOM      7  C   UNL     1      34.947 -16.927 -24.174  0.00  0.00    +0.031 C 
ENDROOT
BRANCH   1  10
ATOM      8  O   UNL     1      31.746 -12.537 -20.673  0.00  0.00    -0.270 OA
ATOM      9  N   UNL     1      32.114 -11.297 -22.599  0.00  0.00    -0.301 N 
ATOM     10  C   UNL     1      32.195 -12.441 -21.812  0.00  0.00    +0.246 C 
ATOM     11  H   UNL     1      32.505 -11.318 -23.503  0.00  0.00    +0.150 HD
BRANCH   9  12
ATOM     12  C   UNL     1      31.482 -10.087 -22.149  0.00  0.00    +0.090 C 
BRANCH  12  13
ATOM     13  C   UNL     1      32.483  -8.955 -21.941  0.00  0.00    +0.021 C 
BRANCH  13  14
ATOM     14  C   UNL     1      32.892  -8.283 -23.241  0.00  0.00    +0.002 C 
ATOM     15  C   UNL     1      34.362  -7.879 -23.273  0.00  0.00    +0.000 C 
ATOM     16  C   UNL     1      32.183  -6.954 -23.479  0.00  0.00    +0.000 C 
ATOM     17  C   UNL     1      34.439  -6.865 -24.410  0.00  0.00    +0.000 C 
ATOM     18  C   UNL     1      33.039  -6.261 -24.534  0.00  0.00    +0.000 C 
ENDBRANCH  13  14
ENDBRANCH  12  13
ENDBRANCH   9  12
ENDBRANCH   1  10
BRANCH   4  21
ATOM     19  O   UNL     1      35.221 -16.678 -20.451  0.00  0.00    -0.270 OA
ATOM     20  N   UNL     1      33.679 -18.078 -21.532  0.00  0.00    -0.279 N 
ATOM     21  C   UNL     1      34.352 -16.869 -21.316  0.00  0.00    +0.249 C 
ATOM     22  H   UNL     1      33.013 -18.073 -22.259  0.00  0.00    +0.155 HD
BRANCH  20  25
ATOM     23  N   UNL     1      32.799 -21.170 -19.700  0.00  0.00    -0.228 NA
ATOM     24  N   UNL     1      34.172 -22.906 -18.816  0.00  0.00    -0.343 N 
ATOM     25  C   UNL     1      33.829 -19.305 -20.842  0.00  0.00    +0.070 C 
ATOM     26  C   UNL     1      35.087 -19.857 -20.623  0.00  0.00    +0.019 C 
ATOM     27  C   UNL     1      32.726 -19.995 -20.364  0.00  0.00    +0.115 C 
ATOM     28  C   UNL     1      35.201 -21.065 -19.944  0.00  0.00    +0.035 C 
ATOM     29  C   UNL     1      34.037 -21.675 -19.507  0.00  0.00    +0.125 C 
ATOM     30  H   UNL     1      33.371 -23.375 -18.487  0.00  0.00    +0.144 HD
ATOM     31  H   UNL     1      35.065 -23.290 -18.664  0.00  0.00    +0.144 HD
ENDBRANCH  20  25
ENDBRANCH   4  21
TORSDOF 6
ENDMDL
MODEL 4
REMARK VINA RESULT:     -11.1      3.232      6.240
REMARK  Name = 24812718
REMARK  6 active torsions:
REMARK  status: ('A' for Active; 'I' for Inactive)
REMARK    1  A    between atoms: C_1  and  C_10
REMARK    2  A    between atoms: C_4  and  C_21
REMARK    3  A    between atoms: N_9  and  C_12
REMARK    4  A    between atoms: C_12  and  C_13
REMARK    5  A    between atoms: C_13  and  C_14
REMARK    6  A    between atoms: N_20  and  C_25
REMARK                            x       y       z     vdW  Elec       q    Type
REMARK                         _______ _______ _______ _____ _____    ______ ____
ROOT
ATOM      1  C   UNL     1      34.724 -21.333 -19.485  0.00  0.00    +0.053 C 
ATOM      2  C   UNL     1      34.240 -20.278 -20.258  0.00  0.00    +0.009 C 
ATOM      3  C   UNL     1      36.096 -21.576 -19.416  0.00  0.00    +0.004 C 
ATOM      4  C   UNL     1      35.128 -19.464 -20.961  0.00  0.00    +0.050 C 
ATOM      5  C   UNL     1      36.500 -19.706 -20.891  0.00  0.00    -0.017 C 
ATOM      6  C   UNL     1      36.984 -20.762 -20.119  0.00  0.00    -0.004 C 
ATOM      7  C   UNL     1      37.473 -18.850 -21.635  0.00  0.00    +0.031 C 
ENDROOT
BRANCH   1  10
ATOM      8  O   UNL     1      32.637 -22.354 -19.163  0.00  0.00    -0.270 OA
ATOM      9  N   UNL     1      34.281 -22.809 -17.591  0.00  0.00    -0.301 N 
ATOM     10  C   UNL     1      33.778 -22.201 -18.736  0.00  0.00    +0.246 C 
ATOM     11  H   UNL     1      35.212 -22.624 -17.329  0.00  0.00    +0.150 HD
BRANCH   9  12
ATOM     12  C   UNL     1      33.498 -23.695 -16.774  0.00  0.00    +0.090 C 
BRANCH  12  13
ATOM     13  C   UNL     1      33.388 -23.209 -15.333  0.00  0.00    +0.021 C 
BRANCH  13  14
ATOM     14  C   UNL     1      31.965 -23.253 -14.803  0.00  0.00    +0.002 C 
ATOM     15  C   UNL     1      31.589 -24.601 -14.197  0.00  0.00    +0.000 C 
ATOM     16  C   UNL     1      30.912 -23.080 -15.892  0.00  0.00    +0.000 C 
ATOM     17  C   UNL     1      30.064 -24.572 -14.155  0.00  0.00    +0.000 C 
ATOM     18  C   UNL     1      29.629 -23.602 -15.254  0.00  0.00    +0.000 C 
ENDBRANCH  13  14
ENDBRANCH  12  13
ENDBRANCH   9  12
ENDBRANCH   1  10
BRANCH   4  21
ATOM     19  O   UNL     1      34.256 -18.590 -22.933  0.00  0.00    -0.270 OA
ATOM     20  N   UNL     1      34.489 -17.133 -21.108  0.00  0.00    -0.279 N 
ATOM     21  C   UNL     1      34.596 -18.368 -21.760  0.00  0.00    +0.249 C 
ATOM     22  H   UNL     1      34.802 -17.114 -20.174  0.00  0.00    +0.155 HD
BRANCH  20  25
ATOM     23  N   UNL     1      34.207 -14.089 -23.193  0.00  0.00    -0.228 NA
ATOM     24  N   UNL     1      32.604 -12.326 -23.173  0.00  0.00    -0.343 N 
ATOM     25  C   UNL     1      33.991 -15.909 -21.616  0.00  0.00    +0.070 C 
ATOM     26  C   UNL     1      32.846 -15.324 -21.086  0.00  0.00    +0.019 C 
ATOM     27  C   UNL     1      34.630 -15.257 -22.660  0.00  0.00    +0.115 C 
ATOM     28  C   UNL     1      32.381 -14.122 -21.609  0.00  0.00    +0.035 C 
ATOM     29  C   UNL     1      33.092 -13.551 -22.652  0.00  0.00    +0.125 C 
ATOM     30  H   UNL     1      33.078 -11.884 -23.915  0.00  0.00    +0.144 HD
ATOM     31  H   UNL     1      31.794 -11.917 -22.793  0.00  0.00    +0.144 HD
ENDBRANCH  20  25
ENDBRANCH   4  21
TORSDOF 6
ENDMDL
MODEL 5
REMARK VINA RESULT:     -11.1      1.758      2.426
REMARK  Name = 24812718
REMARK  6 active torsions:
REMARK  status: ('A' for Active; 'I' for Inactive)
REMARK    1  A    between atoms: C_1  and  C_10
REMARK    2  A    between atoms: C_4  and  C_21
REMARK    3  A    between atoms: N_9  and  C_12
REMARK    4  A    between atoms: C_12  and  C_13
REMARK    5  A    between atoms: C_13  and  C_14
REMARK    6  A    between atoms: N_20  and  C_25
REMARK                            x       y       z     vdW  Elec       q    Type
REMARK                         _______ _______ _______ _____ _____    ______ ____
ROOT
ATOM      1  C   UNL     1      33.743 -14.878 -23.187  0.00  0.00    +0.053 C 
ATOM      2  C   UNL     1      33.727 -13.500 -22.973  0.00  0.00    +0.009 C 
ATOM      3  C   UNL     1      33.622 -15.384 -24.482  0.00  0.00    +0.004 C 
ATOM      4  C   UNL     1      33.590 -12.628 -24.052  0.00  0.00    +0.050 C 
ATOM      5  C   UNL     1      33.470 -13.133 -25.347  0.00  0.00    -0.017 C 
ATOM      6  C   UNL     1      33.486 -14.511 -25.562  0.00  0.00    -0.004 C 
ATOM      7  C   UNL     1      33.323 -12.221 -26.521  0.00  0.00    +0.031 C 
ENDROOT
BRANCH   1  10
ATOM      8  O   UNL     1      33.013 -15.837 -21.176  0.00  0.00    -0.270 OA
ATOM      9  N   UNL     1      35.022 -16.613 -22.040  0.00  0.00    -0.301 N 
ATOM     10  C   UNL     1      33.887 -15.808 -22.038  0.00  0.00    +0.246 C 
ATOM     11  H   UNL     1      35.667 -16.516 -22.777  0.00  0.00    +0.150 HD
BRANCH   9  12
ATOM     12  C   UNL     1      35.290 -17.579 -21.011  0.00  0.00    +0.090 C 
BRANCH  12  13
ATOM     13  C   UNL     1      35.895 -18.864 -21.567  0.00  0.00    +0.021 C 
BRANCH  13  14
ATOM     14  C   UNL     1      35.124 -20.106 -21.155  0.00  0.00    +0.002 C 
ATOM     15  C   UNL     1      33.711 -19.803 -20.669  0.00  0.00    +0.000 C 
ATOM     16  C   UNL     1      35.735 -20.824 -19.956  0.00  0.00    +0.000 C 
ATOM     17  C   UNL     1      33.305 -21.064 -19.911  0.00  0.00    +0.000 C 
ATOM     18  C   UNL     1      34.607 -21.714 -19.443  0.00  0.00    +0.000 C 
ENDBRANCH  13  14
ENDBRANCH  12  13
ENDBRANCH   9  12
ENDBRANCH   1  10
BRANCH   4  21
ATOM     19  O   UNL     1      34.516 -10.500 -24.224  0.00  0.00    -0.270 OA
ATOM     20  N   UNL     1      32.464 -10.705 -23.104  0.00  0.00    -0.279 N 
ATOM     21  C   UNL     1      33.577 -11.192 -23.800  0.00  0.00    +0.249 C 
ATOM     22  H   UNL     1      31.800 -11.381 -22.832  0.00  0.00    +0.155 HD
BRANCH  20  25
ATOM     23  N   UNL     1      32.094  -7.664 -21.028  0.00  0.00    -0.228 NA
ATOM     24  N   UNL     1      31.335  -5.476 -21.586  0.00  0.00    -0.343 N 
ATOM     25  C   UNL     1      32.168  -9.369 -22.741  0.00  0.00    +0.070 C 
ATOM     26  C   UNL     1      31.684  -8.461 -23.676  0.00  0.00    +0.019 C 
ATOM     27  C   UNL     1      32.354  -8.925 -21.441  0.00  0.00    +0.115 C 
ATOM     28  C   UNL     1      31.405  -7.155 -23.288  0.00  0.00    +0.035 C 
ATOM     29  C   UNL     1      31.625  -6.810 -21.964  0.00  0.00    +0.125 C 
ATOM     30  H   UNL     1      31.477  -5.187 -20.655  0.00  0.00    +0.144 HD
ATOM     31  H   UNL     1      30.993  -4.838 -22.252  0.00  0.00    +0.144 HD
ENDBRANCH  20  25
ENDBRANCH   4  21
TORSDOF 6
ENDMDL
MODEL 6
REMARK VINA RESULT:     -10.9      2.245      8.686
REMARK  Name = 24812718
REMARK  6 active torsions:
REMARK  status: ('A' for Active; 'I' for Inactive)
REMARK    1  A    between atoms: C_1  and  C_10
REMARK    2  A    between atoms: C_4  and  C_21
REMARK    3  A    between atoms: N_9  and  C_12
REMARK    4  A    between atoms: C_12  and  C_13
REMARK    5  A    between atoms: C_13  and  C_14
REMARK    6  A    between atoms: N_20  and  C_25
REMARK                            x       y       z     vdW  Elec       q    Type
REMARK                         _______ _______ _______ _____ _____    ______ ____
ROOT
ATOM      1  C   UNL     1      33.843 -11.530 -24.625  0.00  0.00    +0.053 C 
ATOM      2  C   UNL     1      33.806 -12.617 -23.752  0.00  0.00    +0.009 C 
ATOM      3  C   UNL     1      33.657 -11.727 -25.993  0.00  0.00    +0.004 C 
ATOM      4  C   UNL     1      33.583 -13.902 -24.247  0.00  0.00    +0.050 C 
ATOM      5  C   UNL     1      33.396 -14.099 -25.616  0.00  0.00    -0.017 C 
ATOM      6  C   UNL     1      33.434 -13.012 -26.489  0.00  0.00    -0.004 C 
ATOM      7  C   UNL     1      33.156 -15.464 -26.173  0.00  0.00    +0.031 C 
ENDROOT
BRANCH   1  10
ATOM      8  O   UNL     1      35.224  -9.711 -24.092  0.00  0.00    -0.270 OA
ATOM      9  N   UNL     1      32.957  -9.468 -23.662  0.00  0.00    -0.301 N 
ATOM     10  C   UNL     1      34.081 -10.161 -24.098  0.00  0.00    +0.246 C 
ATOM     11  H   UNL     1      32.081  -9.915 -23.707  0.00  0.00    +0.150 HD
BRANCH   9  12
ATOM     12  C   UNL     1      33.022  -8.127 -23.150  0.00  0.00    +0.090 C 
BRANCH  12  13
ATOM     13  C   UNL     1      32.356  -7.996 -21.784  0.00  0.00    +0.021 C 
BRANCH  13  14
ATOM     14  C   UNL     1      32.282  -9.315 -21.035  0.00  0.00    +0.002 C 
ATOM     15  C   UNL     1      31.200 -10.250 -21.565  0.00  0.00    +0.000 C 
ATOM     16  C   UNL     1      31.884  -9.154 -19.571  0.00  0.00    +0.000 C 
ATOM     17  C   UNL     1      31.001 -11.259 -20.439  0.00  0.00    +0.000 C 
ATOM     18  C   UNL     1      31.431 -10.550 -19.154  0.00  0.00    +0.000 C 
ENDBRANCH  13  14
ENDBRANCH  12  13
ENDBRANCH   9  12
ENDBRANCH   1  10
BRANCH   4  21
ATOM     19  O   UNL     1      32.572 -15.141 -22.558  0.00  0.00    -0.270 OA
ATOM     20  N   UNL     1      34.639 -15.897 -23.371  0.00  0.00    -0.279 N 
ATOM     21  C   UNL     1      33.548 -15.020 -23.314  0.00  0.00    +0.249 C 
ATOM     22  H   UNL     1      35.339 -15.666 -24.025  0.00  0.00    +0.155 HD
BRANCH  20  25
ATOM     23  N   UNL     1      35.540 -18.077 -20.521  0.00  0.00    -0.228 NA
ATOM     24  N   UNL     1      35.552 -20.451 -20.313  0.00  0.00    -0.343 N 
ATOM     25  C   UNL     1      34.866 -17.070 -22.613  0.00  0.00    +0.070 C 
ATOM     26  C   UNL     1      34.652 -18.331 -23.159  0.00  0.00    +0.019 C 
ATOM     27  C   UNL     1      35.307 -16.998 -21.301  0.00  0.00    +0.115 C 
ATOM     28  C   UNL     1      34.882 -19.465 -22.387  0.00  0.00    +0.035 C 
ATOM     29  C   UNL     1      35.322 -19.285 -21.086  0.00  0.00    +0.125 C 
ATOM     30  H   UNL     1      35.865 -20.370 -19.383  0.00  0.00    +0.144 HD
ATOM     31  H   UNL     1      35.399 -21.340 -20.706  0.00  0.00    +0.144 HD
ENDBRANCH  20  25
ENDBRANCH   4  21
TORSDOF 6
ENDMDL
MODEL 7
REMARK VINA RESULT:     -10.9      2.431      4.213
REMARK  Name = 24812718
REMARK  6 active torsions:
REMARK  status: ('A' for Active; 'I' for Inactive)
REMARK    1  A    between atoms: C_1  and  C_10
REMARK    2  A    between atoms: C_4  and  C_21
REMARK    3  A    between atoms: N_9  and  C_12
REMARK    4  A    between atoms: C_12  and  C_13
REMARK    5  A    between atoms: C_13  and  C_14
REMARK    6  A    between atoms: N_20  and  C_25
REMARK                            x       y       z     vdW  Elec       q    Type
REMARK                         _______ _______ _______ _____ _____    ______ ____
ROOT
ATOM      1  C   UNL     1      32.944 -13.972 -22.951  0.00  0.00    +0.053 C 
ATOM      2  C   UNL     1      32.430 -12.687 -23.121  0.00  0.00    +0.009 C 
ATOM      3  C   UNL     1      33.032 -14.524 -21.673  0.00  0.00    +0.004 C 
ATOM      4  C   UNL     1      32.004 -11.954 -22.014  0.00  0.00    +0.050 C 
ATOM      5  C   UNL     1      32.092 -12.507 -20.736  0.00  0.00    -0.017 C 
ATOM      6  C   UNL     1      32.607 -13.792 -20.565  0.00  0.00    -0.004 C 
ATOM      7  C   UNL     1      31.644 -11.744 -19.532  0.00  0.00    +0.031 C 
ENDROOT
BRANCH   1  10
ATOM      8  O   UNL     1      33.181 -14.318 -25.259  0.00  0.00    -0.270 OA
ATOM      9  N   UNL     1      34.074 -15.937 -23.858  0.00  0.00    -0.301 N 
ATOM     10  C   UNL     1      33.398 -14.753 -24.131  0.00  0.00    +0.246 C 
ATOM     11  H   UNL     1      34.200 -16.202 -22.918  0.00  0.00    +0.150 HD
BRANCH   9  12
ATOM     12  C   UNL     1      34.597 -16.789 -24.890  0.00  0.00    +0.090 C 
BRANCH  12  13
ATOM     13  C   UNL     1      34.905 -18.193 -24.382  0.00  0.00    +0.021 C 
BRANCH  13  14
ATOM     14  C   UNL     1      35.018 -18.261 -22.868  0.00  0.00    +0.002 C 
ATOM     15  C   UNL     1      36.449 -18.457 -22.379  0.00  0.00    +0.000 C 
ATOM     16  C   UNL     1      34.299 -19.464 -22.265  0.00  0.00    +0.000 C 
ATOM     17  C   UNL     1      36.283 -18.938 -20.941  0.00  0.00    +0.000 C 
ATOM     18  C   UNL     1      34.904 -19.596 -20.871  0.00  0.00    +0.000 C 
ENDBRANCH  13  14
ENDBRANCH  12  13
ENDBRANCH   9  12
ENDBRANCH   1  10
BRANCH   4  21
ATOM     19  O   UNL     1      30.261 -10.480 -22.464  0.00  0.00    -0.270 OA
ATOM     20  N   UNL     1      32.390  -9.565 -22.094  0.00  0.00    -0.279 N 
ATOM     21  C   UNL     1      31.470 -10.614 -22.219  0.00  0.00    +0.249 C 
ATOM     22  H   UNL     1      33.318  -9.831 -21.897  0.00  0.00    +0.155 HD
BRANCH  20  25
ATOM     23  N   UNL     1      31.779  -6.259 -23.641  0.00  0.00    -0.228 NA
ATOM     24  N   UNL     1      31.476  -4.108 -22.661  0.00  0.00    -0.343 N 
ATOM     25  C   UNL     1      32.159  -8.173 -22.213  0.00  0.00    +0.070 C 
ATOM     26  C   UNL     1      32.081  -7.358 -21.089  0.00  0.00    +0.019 C 
ATOM     27  C   UNL     1      32.003  -7.580 -23.456  0.00  0.00    +0.115 C 
ATOM     28  C   UNL     1      31.851  -5.995 -21.239  0.00  0.00    +0.035 C 
ATOM     29  C   UNL     1      31.709  -5.500 -22.525  0.00  0.00    +0.125 C 
ATOM     30  H   UNL     1      31.369  -3.713 -23.557  0.00  0.00    +0.144 HD
ATOM     31  H   UNL     1      31.422  -3.538 -21.861  0.00  0.00    +0.144 HD
ENDBRANCH  20  25
ENDBRANCH   4  21
TORSDOF 6
ENDMDL
MODEL 8
REMARK VINA RESULT:     -10.8      2.671      3.889
REMARK  Name = 24812718
REMARK  6 active torsions:
REMARK  status: ('A' for Active; 'I' for Inactive)
REMARK    1  A    between atoms: C_1  and  C_10
REMARK    2  A    between atoms: C_4  and  C_21
REMARK    3  A    between atoms: N_9  and  C_12
REMARK    4  A    between atoms: C_12  and  C_13
REMARK    5  A    between atoms: C_13  and  C_14
REMARK    6  A    between atoms: N_20  and  C_25
REMARK                            x       y       z     vdW  Elec       q    Type
REMARK                         _______ _______ _______ _____ _____    ______ ____
ROOT
ATOM      1  C   UNL     1      34.562 -19.246 -21.419  0.00  0.00    +0.053 C 
ATOM      2  C   UNL     1      34.339 -17.913 -21.076  0.00  0.00    +0.009 C 
ATOM      3  C   UNL     1      34.908 -19.580 -22.729  0.00  0.00    +0.004 C 
ATOM      4  C   UNL     1      34.462 -16.914 -22.040  0.00  0.00    +0.050 C 
ATOM      5  C   UNL     1      34.808 -17.248 -23.350  0.00  0.00    -0.017 C 
ATOM      6  C   UNL     1      35.031 -18.581 -23.695  0.00  0.00    -0.004 C 
ATOM      7  C   UNL     1      34.946 -16.198 -24.404  0.00  0.00    +0.031 C 
ENDROOT
BRANCH   1  10
ATOM      8  O   UNL     1      33.320 -20.773 -20.145  0.00  0.00    -0.270 OA
ATOM      9  N   UNL     1      35.612 -20.730 -19.789  0.00  0.00    -0.301 N 
ATOM     10  C   UNL     1      34.431 -20.311 -20.391  0.00  0.00    +0.246 C 
ATOM     11  H   UNL     1      36.456 -20.297 -20.054  0.00  0.00    +0.150 HD
BRANCH   9  12
ATOM     12  C   UNL     1      35.652 -21.768 -18.796  0.00  0.00    +0.090 C 
BRANCH  12  13
ATOM     13  C   UNL     1      36.862 -21.642 -17.875  0.00  0.00    +0.021 C 
BRANCH  13  14
ATOM     14  C   UNL     1      36.555 -22.040 -16.441  0.00  0.00    +0.002 C 
ATOM     15  C   UNL     1      37.600 -22.973 -15.839  0.00  0.00    +0.000 C 
ATOM     16  C   UNL     1      35.273 -22.855 -16.304  0.00  0.00    +0.000 C 
ATOM     17  C   UNL     1      36.896 -23.581 -14.630  0.00  0.00    +0.000 C 
ATOM     18  C   UNL     1      35.399 -23.516 -14.935  0.00  0.00    +0.000 C 
ENDBRANCH  13  14
ENDBRANCH  12  13
ENDBRANCH   9  12
ENDBRANCH   1  10
BRANCH   4  21
ATOM     19  O   UNL     1      34.968 -15.004 -20.812  0.00  0.00    -0.270 OA
ATOM     20  N   UNL     1      33.162 -14.888 -22.305  0.00  0.00    -0.279 N 
ATOM     21  C   UNL     1      34.224 -15.529 -21.654  0.00  0.00    +0.249 C 
ATOM     22  H   UNL     1      32.661 -15.438 -22.951  0.00  0.00    +0.155 HD
BRANCH  20  25
ATOM     23  N   UNL     1      32.538 -11.322 -23.071  0.00  0.00    -0.228 NA
ATOM     24  N   UNL     1      31.440  -9.623 -21.811  0.00  0.00    -0.343 N 
ATOM     25  C   UNL     1      32.715 -13.553 -22.156  0.00  0.00    +0.070 C 
ATOM     26  C   UNL     1      32.038 -13.145 -21.012  0.00  0.00    +0.019 C 
ATOM     27  C   UNL     1      32.939 -12.611 -23.148  0.00  0.00    +0.115 C 
ATOM     28  C   UNL     1      31.610 -11.827 -20.897  0.00  0.00    +0.035 C 
ATOM     29  C   UNL     1      31.883 -10.963 -21.945  0.00  0.00    +0.125 C 
ATOM     30  H   UNL     1      31.613  -8.974 -22.531  0.00  0.00    +0.144 HD
ATOM     31  H   UNL     1      30.962  -9.341 -20.998  0.00  0.00    +0.144 HD
ENDBRANCH  20  25
ENDBRANCH   4  21
TORSDOF 6
ENDMDL
MODEL 9
REMARK VINA RESULT:     -10.8      2.348     10.232
REMARK  Name = 24812718
REMARK  6 active torsions:
REMARK  status: ('A' for Active; 'I' for Inactive)
REMARK    1  A    between atoms: C_1  and  C_10
REMARK    2  A    between atoms: C_4  and  C_21
REMARK    3  A    between atoms: N_9  and  C_12
REMARK    4  A    between atoms: C_12  and  C_13
REMARK    5  A    between atoms: C_13  and  C_14
REMARK    6  A    between atoms: N_20  and  C_25
REMARK                            x       y       z     vdW  Elec       q    Type
REMARK                         _______ _______ _______ _____ _____    ______ ____
ROOT
ATOM      1  C   UNL     1      33.864 -11.395 -24.572  0.00  0.00    +0.053 C 
ATOM      2  C   UNL     1      33.822 -12.503 -23.727  0.00  0.00    +0.009 C 
ATOM      3  C   UNL     1      33.654 -11.555 -25.942  0.00  0.00    +0.004 C 
ATOM      4  C   UNL     1      33.569 -13.771 -24.250  0.00  0.00    +0.050 C 
ATOM      5  C   UNL     1      33.358 -13.930 -25.620  0.00  0.00    -0.017 C 
ATOM      6  C   UNL     1      33.401 -12.823 -26.466  0.00  0.00    -0.004 C 
ATOM      7  C   UNL     1      33.085 -15.277 -26.207  0.00  0.00    +0.031 C 
ENDROOT
BRANCH   1  10
ATOM      8  O   UNL     1      35.287  -9.621 -24.000  0.00  0.00    -0.270 OA
ATOM      9  N   UNL     1      33.027  -9.335 -23.564  0.00  0.00    -0.301 N 
ATOM     10  C   UNL     1      34.134 -10.044 -24.016  0.00  0.00    +0.246 C 
ATOM     11  H   UNL     1      32.140  -9.760 -23.618  0.00  0.00    +0.150 HD
BRANCH   9  12
ATOM     12  C   UNL     1      33.123  -8.007 -23.023  0.00  0.00    +0.090 C 
BRANCH  12  13
ATOM     13  C   UNL     1      31.776  -7.481 -22.537  0.00  0.00    +0.021 C 
BRANCH  13  14
ATOM     14  C   UNL     1      31.288  -6.283 -23.333  0.00  0.00    +0.002 C 
ATOM     15  C   UNL     1      32.214  -5.910 -24.487  0.00  0.00    +0.000 C 
ATOM     16  C   UNL     1      31.249  -4.995 -22.518  0.00  0.00    +0.000 C 
ATOM     17  C   UNL     1      31.803  -4.484 -24.841  0.00  0.00    +0.000 C 
ATOM     18  C   UNL     1      31.193  -3.892 -23.570  0.00  0.00    +0.000 C 
ENDBRANCH  13  14
ENDBRANCH  12  13
ENDBRANCH   9  12
ENDBRANCH   1  10
BRANCH   4  21
ATOM     19  O   UNL     1      32.569 -15.026 -22.566  0.00  0.00    -0.270 OA
ATOM     20  N   UNL     1      34.594 -15.814 -23.452  0.00  0.00    -0.279 N 
ATOM     21  C   UNL     1      33.529 -14.911 -23.344  0.00  0.00    +0.249 C 
ATOM     22  H   UNL     1      35.283 -15.585 -24.118  0.00  0.00    +0.155 HD
BRANCH  20  25
ATOM     23  N   UNL     1      35.320 -18.090 -20.626  0.00  0.00    -0.228 NA
ATOM     24  N   UNL     1      35.451 -20.467 -20.529  0.00  0.00    -0.343 N 
ATOM     25  C   UNL     1      34.810 -17.012 -22.729  0.00  0.00    +0.070 C 
ATOM     26  C   UNL     1      34.730 -18.252 -23.353  0.00  0.00    +0.019 C 
ATOM     27  C   UNL     1      35.106 -16.985 -21.375  0.00  0.00    +0.115 C 
ATOM     28  C   UNL     1      34.944 -19.411 -22.615  0.00  0.00    +0.035 C 
ATOM     29  C   UNL     1      35.234 -19.276 -21.267  0.00  0.00    +0.125 C 
ATOM     30  H   UNL     1      35.660 -20.419 -19.568  0.00  0.00    +0.144 HD
ATOM     31  H   UNL     1      35.393 -21.341 -20.977  0.00  0.00    +0.144 HD
ENDBRANCH  20  25
ENDBRANCH   4  21
TORSDOF 6
ENDMDL
