MODEL 1
REMARK VINA RESULT:     -10.8      0.000      0.000
REMARK  Name = 6914573
REMARK  5 active torsions:
REMARK  status: ('A' for Active; 'I' for Inactive)
REMARK    1  A    between atoms: N_1  and  N_4
REMARK    2  A    between atoms: N_1  and  S_17
REMARK    3  A    between atoms: C_5  and  C_11
REMARK    4  A    between atoms: S_17  and  C_20
REMARK    5  A    between atoms: C_21  and  C_29
REMARK                            x       y       z     vdW  Elec       q    Type
REMARK                         _______ _______ _______ _____ _____    ______ ____
ROOT
ATOM      1  N   UNL     1      35.451 -21.591 -20.224  0.00  0.00    -0.108 NA
ATOM      2  H   UNL     1      35.637 -22.220 -21.005  0.00  0.00    +0.172 HD
ENDROOT
BRANCH   1   4
ATOM      3  O   UNL     1      37.205 -19.507 -20.611  0.00  0.00    -0.265 OA
ATOM      4  N   UNL     1      35.062 -20.307 -20.775  0.00  0.00    -0.225 N 
ATOM      5  C   UNL     1      36.014 -19.284 -20.945  0.00  0.00    +0.295 C 
ATOM      6  H   UNL     1      34.125 -20.150 -21.032  0.00  0.00    +0.171 HD
BRANCH   5  11
ATOM      7 CL   UNL     1      33.654 -12.821 -24.262  0.00  0.00    -0.082 Cl
ATOM      8  O   UNL     1      35.065 -17.125 -20.608  0.00  0.00    -0.449 OA
ATOM      9  C   UNL     1      34.937 -16.274 -22.696  0.00  0.00    +0.039 C 
ATOM     10  C   UNL     1      34.691 -16.043 -21.347  0.00  0.00    +0.146 C 
ATOM     11  C   UNL     1      35.550 -18.048 -21.478  0.00  0.00    +0.200 C 
ATOM     12  C   UNL     1      35.495 -17.578 -22.769  0.00  0.00    +0.045 C 
ATOM     13  C   UNL     1      34.614 -15.266 -23.620  0.00  0.00    +0.015 C 
ATOM     14  C   UNL     1      34.139 -14.867 -20.843  0.00  0.00    +0.038 C 
ATOM     15  C   UNL     1      34.057 -14.070 -23.144  0.00  0.00    +0.058 C 
ATOM     16  C   UNL     1      33.824 -13.877 -21.780  0.00  0.00    +0.015 C 
ENDBRANCH   5  11
ENDBRANCH   1   4
BRANCH   1  17
ATOM     17  S   UNL     1      34.318 -22.354 -19.203  0.00  0.00    +0.075 S 
ATOM     18  O   UNL     1      33.183 -21.472 -19.008  0.00  0.00    -0.152 OA
ATOM     19  O   UNL     1      34.115 -23.717 -19.655  0.00  0.00    -0.152 OA
BRANCH  17  20
ATOM     20  C   UNL     1      35.196 -22.417 -17.668  0.00  0.00    +0.127 C 
ATOM     21  C   UNL     1      34.590 -22.925 -16.532  0.00  0.00    +0.090 C 
ATOM     22  C   UNL     1      36.499 -21.946 -17.642  0.00  0.00    +0.020 C 
ATOM     23  C   UNL     1      35.305 -22.964 -15.334  0.00  0.00    +0.005 C 
ATOM     24  C   UNL     1      37.215 -21.985 -16.445  0.00  0.00    +0.001 C 
ATOM     25  C   UNL     1      36.619 -22.495 -15.292  0.00  0.00    +0.000 C 
BRANCH  21  29
ATOM     26  F   UNL     1      32.252 -22.462 -16.741  0.00  0.00    -0.166 F 
ATOM     27  F   UNL     1      32.953 -24.361 -17.521  0.00  0.00    -0.166 F 
ATOM     28  F   UNL     1      32.842 -24.045 -15.372  0.00  0.00    -0.166 F 
ATOM     29  C   UNL     1      33.187 -23.437 -16.543  0.00  0.00    +0.420 C 
ENDBRANCH  21  29
ENDBRANCH  17  20
ENDBRANCH   1  17
TORSDOF 5
ENDMDL
MODEL 2
REMARK VINA RESULT:     -10.5      3.420      4.747
REMARK  Name = 6914573
REMARK  5 active torsions:
REMARK  status: ('A' for Active; 'I' for Inactive)
REMARK    1  A    between atoms: N_1  and  N_4
REMARK    2  A    between atoms: N_1  and  S_17
REMARK    3  A    between atoms: C_5  and  C_11
REMARK    4  A    between atoms: S_17  and  C_20
REMARK    5  A    between atoms: C_21  and  C_29
REMARK                            x       y       z     vdW  Elec       q    Type
REMARK                         _______ _______ _______ _____ _____    ______ ____
ROOT
ATOM      1  N   UNL     1      34.312 -23.836 -16.538  0.00  0.00    -0.108 NA
ATOM      2  H   UNL     1      33.375 -24.218 -16.655  0.00  0.00    +0.172 HD
ENDROOT
BRANCH   1   4
ATOM      3  O   UNL     1      33.795 -23.886 -19.240  0.00  0.00    -0.265 OA
ATOM      4  N   UNL     1      34.425 -22.674 -17.398  0.00  0.00    -0.225 N 
ATOM      5  C   UNL     1      34.144 -22.773 -18.774  0.00  0.00    +0.295 C 
ATOM      6  H   UNL     1      34.699 -21.809 -17.016  0.00  0.00    +0.171 HD
BRANCH   5  11
ATOM      7 CL   UNL     1      34.433 -16.404 -22.982  0.00  0.00    -0.082 Cl
ATOM      8  O   UNL     1      35.552 -21.165 -19.828  0.00  0.00    -0.449 OA
ATOM      9  C   UNL     1      34.092 -19.732 -20.784  0.00  0.00    +0.039 C 
ATOM     10  C   UNL     1      35.434 -20.033 -20.576  0.00  0.00    +0.146 C 
ATOM     11  C   UNL     1      34.292 -21.591 -19.553  0.00  0.00    +0.200 C 
ATOM     12  C   UNL     1      33.360 -20.749 -20.115  0.00  0.00    +0.045 C 
ATOM     13  C   UNL     1      33.768 -18.592 -21.539  0.00  0.00    +0.015 C 
ATOM     14  C   UNL     1      36.491 -19.272 -21.073  0.00  0.00    +0.038 C 
ATOM     15  C   UNL     1      34.810 -17.807 -22.052  0.00  0.00    +0.058 C 
ATOM     16  C   UNL     1      36.146 -18.143 -21.821  0.00  0.00    +0.015 C 
ENDBRANCH   5  11
ENDBRANCH   1   4
BRANCH   1  17
ATOM     17  S   UNL     1      34.563 -23.574 -14.871  0.00  0.00    +0.075 S 
ATOM     18  O   UNL     1      35.267 -22.319 -14.687  0.00  0.00    -0.152 OA
ATOM     19  O   UNL     1      33.324 -23.828 -14.161  0.00  0.00    -0.152 OA
BRANCH  17  20
ATOM     20  C   UNL     1      35.697 -24.870 -14.465  0.00  0.00    +0.127 C 
ATOM     21  C   UNL     1      36.272 -24.933 -13.207  0.00  0.00    +0.090 C 
ATOM     22  C   UNL     1      35.986 -25.812 -15.439  0.00  0.00    +0.020 C 
ATOM     23  C   UNL     1      37.162 -25.966 -12.913  0.00  0.00    +0.005 C 
ATOM     24  C   UNL     1      36.876 -26.846 -15.145  0.00  0.00    +0.001 C 
ATOM     25  C   UNL     1      37.463 -26.923 -13.882  0.00  0.00    +0.000 C 
BRANCH  21  29
ATOM     26  F   UNL     1      34.638 -23.655 -12.013  0.00  0.00    -0.166 F 
ATOM     27  F   UNL     1      36.384 -24.303 -10.902  0.00  0.00    -0.166 F 
ATOM     28  F   UNL     1      36.567 -22.721 -12.384  0.00  0.00    -0.166 F 
ATOM     29  C   UNL     1      35.970 -23.925 -12.147  0.00  0.00    +0.420 C 
ENDBRANCH  21  29
ENDBRANCH  17  20
ENDBRANCH   1  17
TORSDOF 5
ENDMDL
MODEL 3
REMARK VINA RESULT:     -10.5      4.821      9.098
REMARK  Name = 6914573
REMARK  5 active torsions:
REMARK  status: ('A' for Active; 'I' for Inactive)
REMARK    1  A    between atoms: N_1  and  N_4
REMARK    2  A    between atoms: N_1  and  S_17
REMARK    3  A    between atoms: C_5  and  C_11
REMARK    4  A    between atoms: S_17  and  C_20
REMARK    5  A    between atoms: C_21  and  C_29
REMARK                            x       y       z     vdW  Elec       q    Type
REMARK                         _______ _______ _______ _____ _____    ______ ____
ROOT
ATOM      1  N   UNL     1      34.645 -20.194 -21.177  0.00  0.00    -0.108 NA
ATOM      2  H   UNL     1      35.351 -20.417 -21.877  0.00  0.00    +0.172 HD
ENDROOT
BRANCH   1   4
ATOM      3  O   UNL     1      33.042 -21.980 -19.832  0.00  0.00    -0.265 OA
ATOM      4  N   UNL     1      35.032 -20.845 -19.939  0.00  0.00    -0.225 N 
ATOM      5  C   UNL     1      34.159 -21.749 -19.305  0.00  0.00    +0.295 C 
ATOM      6  H   UNL     1      35.911 -20.653 -19.541  0.00  0.00    +0.171 HD
BRANCH   5  11
ATOM      7 CL   UNL     1      36.080 -25.065 -12.697  0.00  0.00    -0.082 Cl
ATOM      8  O   UNL     1      35.906 -22.161 -17.738  0.00  0.00    -0.449 OA
ATOM      9  C   UNL     1      34.897 -23.394 -16.136  0.00  0.00    +0.039 C 
ATOM     10  C   UNL     1      36.087 -22.805 -16.551  0.00  0.00    +0.146 C 
ATOM     11  C   UNL     1      34.605 -22.335 -18.087  0.00  0.00    +0.200 C 
ATOM     12  C   UNL     1      33.942 -23.082 -17.141  0.00  0.00    +0.045 C 
ATOM     13  C   UNL     1      34.886 -24.107 -14.925  0.00  0.00    +0.015 C 
ATOM     14  C   UNL     1      37.283 -22.875 -15.838  0.00  0.00    +0.038 C 
ATOM     15  C   UNL     1      36.073 -24.195 -14.186  0.00  0.00    +0.058 C 
ATOM     16  C   UNL     1      37.249 -23.590 -14.637  0.00  0.00    +0.015 C 
ENDBRANCH   5  11
ENDBRANCH   1   4
BRANCH   1  17
ATOM     17  S   UNL     1      34.485 -18.497 -21.123  0.00  0.00    +0.075 S 
ATOM     18  O   UNL     1      33.158 -18.159 -20.646  0.00  0.00    -0.152 OA
ATOM     19  O   UNL     1      35.658 -17.930 -20.486  0.00  0.00    -0.152 OA
BRANCH  17  20
ATOM     20  C   UNL     1      34.543 -18.072 -22.840  0.00  0.00    +0.127 C 
ATOM     21  C   UNL     1      34.453 -16.749 -23.240  0.00  0.00    +0.090 C 
ATOM     22  C   UNL     1      34.681 -19.097 -23.762  0.00  0.00    +0.020 C 
ATOM     23  C   UNL     1      34.503 -16.441 -24.600  0.00  0.00    +0.005 C 
ATOM     24  C   UNL     1      34.731 -18.789 -25.121  0.00  0.00    +0.001 C 
ATOM     25  C   UNL     1      34.642 -17.462 -25.541  0.00  0.00    +0.000 C 
BRANCH  21  29
ATOM     26  F   UNL     1      33.067 -15.570 -21.687  0.00  0.00    -0.166 F 
ATOM     27  F   UNL     1      35.179 -15.708 -21.213  0.00  0.00    -0.166 F 
ATOM     28  F   UNL     1      34.511 -14.408 -22.825  0.00  0.00    -0.166 F 
ATOM     29  C   UNL     1      34.305 -15.633 -22.259  0.00  0.00    +0.420 C 
ENDBRANCH  21  29
ENDBRANCH  17  20
ENDBRANCH   1  17
TORSDOF 5
ENDMDL
MODEL 4
REMARK VINA RESULT:     -10.2      8.359     11.718
REMARK  Name = 6914573
REMARK  5 active torsions:
REMARK  status: ('A' for Active; 'I' for Inactive)
REMARK    1  A    between atoms: N_1  and  N_4
REMARK    2  A    between atoms: N_1  and  S_17
REMARK    3  A    between atoms: C_5  and  C_11
REMARK    4  A    between atoms: S_17  and  C_20
REMARK    5  A    between atoms: C_21  and  C_29
REMARK                            x       y       z     vdW  Elec       q    Type
REMARK                         _______ _______ _______ _____ _____    ______ ____
ROOT
ATOM      1  N   UNL     1      30.903 -10.848 -22.346  0.00  0.00    -0.108 NA
ATOM      2  H   UNL     1      30.257 -10.848 -23.135  0.00  0.00    +0.172 HD
ENDROOT
BRANCH   1   4
ATOM      3  O   UNL     1      31.766 -12.176 -20.096  0.00  0.00    -0.265 OA
ATOM      4  N   UNL     1      31.647 -12.092 -22.385  0.00  0.00    -0.225 N 
ATOM      5  C   UNL     1      32.057 -12.717 -21.192  0.00  0.00    +0.295 C 
ATOM      6  H   UNL     1      31.866 -12.503 -23.252  0.00  0.00    +0.171 HD
BRANCH   5  11
ATOM      7 CL   UNL     1      35.868 -19.335 -21.382  0.00  0.00    -0.082 Cl
ATOM      8  O   UNL     1      33.480 -14.140 -22.469  0.00  0.00    -0.449 OA
ATOM      9  C   UNL     1      33.810 -15.913 -21.108  0.00  0.00    +0.039 C 
ATOM     10  C   UNL     1      34.098 -15.348 -22.346  0.00  0.00    +0.146 C 
ATOM     11  C   UNL     1      32.796 -13.928 -21.315  0.00  0.00    +0.200 C 
ATOM     12  C   UNL     1      32.964 -14.982 -20.447  0.00  0.00    +0.045 C 
ATOM     13  C   UNL     1      34.363 -17.167 -20.797  0.00  0.00    +0.015 C 
ATOM     14  C   UNL     1      34.906 -15.949 -23.310  0.00  0.00    +0.038 C 
ATOM     15  C   UNL     1      35.180 -17.796 -21.746  0.00  0.00    +0.058 C 
ATOM     16  C   UNL     1      35.445 -17.196 -22.979  0.00  0.00    +0.015 C 
ENDBRANCH   5  11
ENDBRANCH   1   4
BRANCH   1  17
ATOM     17  S   UNL     1      31.820  -9.412 -22.427  0.00  0.00    +0.075 S 
ATOM     18  O   UNL     1      31.028  -8.376 -23.061  0.00  0.00    -0.152 OA
ATOM     19  O   UNL     1      32.440  -9.174 -21.138  0.00  0.00    -0.152 OA
BRANCH  17  20
ATOM     20  C   UNL     1      33.097  -9.860 -23.567  0.00  0.00    +0.127 C 
ATOM     21  C   UNL     1      34.139  -8.988 -23.834  0.00  0.00    +0.090 C 
ATOM     22  C   UNL     1      33.021 -11.101 -24.177  0.00  0.00    +0.020 C 
ATOM     23  C   UNL     1      35.133  -9.366 -24.737  0.00  0.00    +0.005 C 
ATOM     24  C   UNL     1      34.015 -11.480 -25.080  0.00  0.00    +0.001 C 
ATOM     25  C   UNL     1      35.071 -10.613 -25.359  0.00  0.00    +0.000 C 
BRANCH  21  29
ATOM     26  F   UNL     1      33.208  -6.808 -23.508  0.00  0.00    -0.166 F 
ATOM     27  F   UNL     1      34.237  -7.701 -21.820  0.00  0.00    -0.166 F 
ATOM     28  F   UNL     1      35.376  -6.980 -23.527  0.00  0.00    -0.166 F 
ATOM     29  C   UNL     1      34.236  -7.646 -23.184  0.00  0.00    +0.420 C 
ENDBRANCH  21  29
ENDBRANCH  17  20
ENDBRANCH   1  17
TORSDOF 5
ENDMDL
MODEL 5
REMARK VINA RESULT:     -10.2      6.109      8.758
REMARK  Name = 6914573
REMARK  5 active torsions:
REMARK  status: ('A' for Active; 'I' for Inactive)
REMARK    1  A    between atoms: N_1  and  N_4
REMARK    2  A    between atoms: N_1  and  S_17
REMARK    3  A    between atoms: C_5  and  C_11
REMARK    4  A    between atoms: S_17  and  C_20
REMARK    5  A    between atoms: C_21  and  C_29
REMARK                            x       y       z     vdW  Elec       q    Type
REMARK                         _______ _______ _______ _____ _____    ______ ____
ROOT
ATOM      1  N   UNL     1      33.632 -13.505 -23.576  0.00  0.00    -0.108 NA
ATOM      2  H   UNL     1      33.065 -13.847 -24.351  0.00  0.00    +0.172 HD
ENDROOT
BRANCH   1   4
ATOM      3  O   UNL     1      34.148 -11.180 -24.956  0.00  0.00    -0.265 OA
ATOM      4  N   UNL     1      33.111 -12.208 -23.188  0.00  0.00    -0.225 N 
ATOM      5  C   UNL     1      33.416 -11.060 -23.942  0.00  0.00    +0.295 C 
ATOM      6  H   UNL     1      32.538 -12.132 -22.391  0.00  0.00    +0.171 HD
BRANCH   5  11
ATOM      7 CL   UNL     1      30.352  -4.346 -21.970  0.00  0.00    -0.082 Cl
ATOM      8  O   UNL     1      33.087  -9.478 -22.190  0.00  0.00    -0.449 OA
ATOM      9  C   UNL     1      31.889  -7.838 -23.179  0.00  0.00    +0.039 C 
ATOM     10  C   UNL     1      32.485  -8.271 -21.999  0.00  0.00    +0.146 C 
ATOM     11  C   UNL     1      32.878  -9.822 -23.487  0.00  0.00    +0.200 C 
ATOM     12  C   UNL     1      32.150  -8.853 -24.138  0.00  0.00    +0.045 C 
ATOM     13  C   UNL     1      31.216  -6.605 -23.179  0.00  0.00    +0.015 C 
ATOM     14  C   UNL     1      32.460  -7.556 -20.803  0.00  0.00    +0.038 C 
ATOM     15  C   UNL     1      31.173  -5.862 -21.990  0.00  0.00    +0.058 C 
ATOM     16  C   UNL     1      31.784  -6.332 -20.825  0.00  0.00    +0.015 C 
ENDBRANCH   5  11
ENDBRANCH   1   4
BRANCH   1  17
ATOM     17  S   UNL     1      33.646 -14.710 -22.370  0.00  0.00    +0.075 S 
ATOM     18  O   UNL     1      34.718 -14.434 -21.433  0.00  0.00    -0.152 OA
ATOM     19  O   UNL     1      32.292 -14.917 -21.892  0.00  0.00    -0.152 OA
BRANCH  17  20
ATOM     20  C   UNL     1      34.119 -16.143 -23.292  0.00  0.00    +0.127 C 
ATOM     21  C   UNL     1      34.381 -17.340 -22.647  0.00  0.00    +0.090 C 
ATOM     22  C   UNL     1      34.218 -16.030 -24.670  0.00  0.00    +0.020 C 
ATOM     23  C   UNL     1      34.752 -18.455 -23.399  0.00  0.00    +0.005 C 
ATOM     24  C   UNL     1      34.588 -17.145 -25.422  0.00  0.00    +0.001 C 
ATOM     25  C   UNL     1      34.854 -18.357 -24.786  0.00  0.00    +0.000 C 
BRANCH  21  29
ATOM     26  F   UNL     1      35.208 -16.747 -20.481  0.00  0.00    -0.166 F 
ATOM     27  F   UNL     1      33.072 -17.083 -20.661  0.00  0.00    -0.166 F 
ATOM     28  F   UNL     1      34.447 -18.767 -20.746  0.00  0.00    -0.166 F 
ATOM     29  C   UNL     1      34.279 -17.479 -21.163  0.00  0.00    +0.420 C 
ENDBRANCH  21  29
ENDBRANCH  17  20
ENDBRANCH   1  17
TORSDOF 5
ENDMDL
MODEL 6
REMARK VINA RESULT:     -10.1      8.354     11.271
REMARK  Name = 6914573
REMARK  5 active torsions:
REMARK  status: ('A' for Active; 'I' for Inactive)
REMARK    1  A    between atoms: N_1  and  N_4
REMARK    2  A    between atoms: N_1  and  S_17
REMARK    3  A    between atoms: C_5  and  C_11
REMARK    4  A    between atoms: S_17  and  C_20
REMARK    5  A    between atoms: C_21  and  C_29
REMARK                            x       y       z     vdW  Elec       q    Type
REMARK                         _______ _______ _______ _____ _____    ______ ____
ROOT
ATOM      1  N   UNL     1      32.819 -10.898 -24.414  0.00  0.00    -0.108 NA
ATOM      2  H   UNL     1      33.283 -10.753 -25.310  0.00  0.00    +0.172 HD
ENDROOT
BRANCH   1   4
ATOM      3  O   UNL     1      33.056 -13.255 -25.814  0.00  0.00    -0.265 OA
ATOM      4  N   UNL     1      33.341 -12.123 -23.840  0.00  0.00    -0.225 N 
ATOM      5  C   UNL     1      33.434 -13.294 -24.616  0.00  0.00    +0.295 C 
ATOM      6  H   UNL     1      33.634 -12.136 -22.900  0.00  0.00    +0.171 HD
BRANCH   5  11
ATOM      7 CL   UNL     1      36.189 -19.278 -20.751  0.00  0.00    -0.082 Cl
ATOM      8  O   UNL     1      34.112 -15.575 -24.731  0.00  0.00    -0.449 OA
ATOM      9  C   UNL     1      34.752 -16.041 -22.615  0.00  0.00    +0.039 C 
ATOM     10  C   UNL     1      34.603 -16.541 -23.905  0.00  0.00    +0.146 C 
ATOM     11  C   UNL     1      33.943 -14.459 -23.976  0.00  0.00    +0.200 C 
ATOM     12  C   UNL     1      34.320 -14.689 -22.673  0.00  0.00    +0.045 C 
ATOM     13  C   UNL     1      35.249 -16.896 -21.617  0.00  0.00    +0.015 C 
ATOM     14  C   UNL     1      34.919 -17.846 -24.278  0.00  0.00    +0.038 C 
ATOM     15  C   UNL     1      35.576 -18.215 -21.962  0.00  0.00    +0.058 C 
ATOM     16  C   UNL     1      35.412 -18.679 -23.269  0.00  0.00    +0.015 C 
ENDBRANCH   5  11
ENDBRANCH   1   4
BRANCH   1  17
ATOM     17  S   UNL     1      33.022  -9.480 -23.488  0.00  0.00    +0.075 S 
ATOM     18  O   UNL     1      34.436  -9.263 -23.253  0.00  0.00    -0.152 OA
ATOM     19  O   UNL     1      32.204  -8.424 -24.054  0.00  0.00    -0.152 OA
BRANCH  17  20
ATOM     20  C   UNL     1      32.305  -9.950 -21.941  0.00  0.00    +0.127 C 
ATOM     21  C   UNL     1      32.250  -9.050 -20.889  0.00  0.00    +0.090 C 
ATOM     22  C   UNL     1      31.803 -11.235 -21.818  0.00  0.00    +0.020 C 
ATOM     23  C   UNL     1      31.679  -9.447 -19.679  0.00  0.00    +0.005 C 
ATOM     24  C   UNL     1      31.230 -11.631 -20.609  0.00  0.00    +0.001 C 
ATOM     25  C   UNL     1      31.168 -10.737 -19.540  0.00  0.00    +0.000 C 
BRANCH  21  29
ATOM     26  F   UNL     1      34.035  -7.602 -21.555  0.00  0.00    -0.166 F 
ATOM     27  F   UNL     1      32.015  -6.844 -21.781  0.00  0.00    -0.166 F 
ATOM     28  F   UNL     1      32.886  -7.036 -19.797  0.00  0.00    -0.166 F 
ATOM     29  C   UNL     1      32.786  -7.661 -21.006  0.00  0.00    +0.420 C 
ENDBRANCH  21  29
ENDBRANCH  17  20
ENDBRANCH   1  17
TORSDOF 5
ENDMDL
MODEL 7
REMARK VINA RESULT:     -10.0      5.911      8.674
REMARK  Name = 6914573
REMARK  5 active torsions:
REMARK  status: ('A' for Active; 'I' for Inactive)
REMARK    1  A    between atoms: N_1  and  N_4
REMARK    2  A    between atoms: N_1  and  S_17
REMARK    3  A    between atoms: C_5  and  C_11
REMARK    4  A    between atoms: S_17  and  C_20
REMARK    5  A    between atoms: C_21  and  C_29
REMARK                            x       y       z     vdW  Elec       q    Type
REMARK                         _______ _______ _______ _____ _____    ______ ____
ROOT
ATOM      1  N   UNL     1      31.944 -14.049 -22.141  0.00  0.00    -0.108 NA
ATOM      2  H   UNL     1      31.255 -13.941 -21.397  0.00  0.00    +0.172 HD
ENDROOT
BRANCH   1   4
ATOM      3  O   UNL     1      31.050 -11.714 -20.991  0.00  0.00    -0.265 OA
ATOM      4  N   UNL     1      32.217 -12.732 -22.683  0.00  0.00    -0.225 N 
ATOM      5  C   UNL     1      31.727 -11.579 -22.040  0.00  0.00    +0.295 C 
ATOM      6  H   UNL     1      32.750 -12.643 -23.506  0.00  0.00    +0.171 HD
BRANCH   5  11
ATOM      7 CL   UNL     1      32.832  -4.739 -25.257  0.00  0.00    -0.082 Cl
ATOM      8  O   UNL     1      33.323 -10.055 -22.941  0.00  0.00    -0.449 OA
ATOM      9  C   UNL     1      32.067  -8.284 -23.563  0.00  0.00    +0.039 C 
ATOM     10  C   UNL     1      33.352  -8.814 -23.501  0.00  0.00    +0.146 C 
ATOM     11  C   UNL     1      32.026 -10.324 -22.643  0.00  0.00    +0.200 C 
ATOM     12  C   UNL     1      31.215  -9.273 -23.003  0.00  0.00    +0.045 C 
ATOM     13  C   UNL     1      31.894  -7.003 -24.114  0.00  0.00    +0.015 C 
ATOM     14  C   UNL     1      34.492  -8.152 -23.953  0.00  0.00    +0.038 C 
ATOM     15  C   UNL     1      33.023  -6.312 -24.578  0.00  0.00    +0.058 C 
ATOM     16  C   UNL     1      34.298  -6.879 -24.497  0.00  0.00    +0.015 C 
ENDBRANCH   5  11
ENDBRANCH   1   4
BRANCH   1  17
ATOM     17  S   UNL     1      33.277 -14.895 -21.496  0.00  0.00    +0.075 S 
ATOM     18  O   UNL     1      34.310 -13.947 -21.127  0.00  0.00    -0.152 OA
ATOM     19  O   UNL     1      32.798 -15.868 -20.532  0.00  0.00    -0.152 OA
BRANCH  17  20
ATOM     20  C   UNL     1      33.866 -15.779 -22.910  0.00  0.00    +0.127 C 
ATOM     21  C   UNL     1      34.647 -16.912 -22.757  0.00  0.00    +0.090 C 
ATOM     22  C   UNL     1      33.521 -15.305 -24.166  0.00  0.00    +0.020 C 
ATOM     23  C   UNL     1      35.098 -17.591 -23.889  0.00  0.00    +0.005 C 
ATOM     24  C   UNL     1      33.971 -15.985 -25.299  0.00  0.00    +0.001 C 
ATOM     25  C   UNL     1      34.759 -17.127 -25.160  0.00  0.00    +0.000 C 
BRANCH  21  29
ATOM     26  F   UNL     1      35.335 -16.456 -20.511  0.00  0.00    -0.166 F 
ATOM     27  F   UNL     1      34.042 -18.172 -20.815  0.00  0.00    -0.166 F 
ATOM     28  F   UNL     1      36.120 -18.251 -21.455  0.00  0.00    -0.166 F 
ATOM     29  C   UNL     1      35.027 -17.436 -21.410  0.00  0.00    +0.420 C 
ENDBRANCH  21  29
ENDBRANCH  17  20
ENDBRANCH   1  17
TORSDOF 5
ENDMDL
MODEL 8
REMARK VINA RESULT:     -10.0      9.285     13.359
REMARK  Name = 6914573
REMARK  5 active torsions:
REMARK  status: ('A' for Active; 'I' for Inactive)
REMARK    1  A    between atoms: N_1  and  N_4
REMARK    2  A    between atoms: N_1  and  S_17
REMARK    3  A    between atoms: C_5  and  C_11
REMARK    4  A    between atoms: S_17  and  C_20
REMARK    5  A    between atoms: C_21  and  C_29
REMARK                            x       y       z     vdW  Elec       q    Type
REMARK                         _______ _______ _______ _____ _____    ______ ____
ROOT
ATOM      1  N   UNL     1      32.628  -9.307 -23.538  0.00  0.00    -0.108 NA
ATOM      2  H   UNL     1      32.172  -9.018 -24.403  0.00  0.00    +0.172 HD
ENDROOT
BRANCH   1   4
ATOM      3  O   UNL     1      31.652 -11.459 -22.128  0.00  0.00    -0.265 OA
ATOM      4  N   UNL     1      33.100 -10.666 -23.721  0.00  0.00    -0.225 N 
ATOM      5  C   UNL     1      32.554 -11.720 -22.964  0.00  0.00    +0.295 C 
ATOM      6  H   UNL     1      33.806 -10.853 -24.380  0.00  0.00    +0.171 HD
BRANCH   5  11
ATOM      7 CL   UNL     1      35.518 -18.722 -23.694  0.00  0.00    -0.082 Cl
ATOM      8  O   UNL     1      32.985 -13.536 -24.445  0.00  0.00    -0.449 OA
ATOM      9  C   UNL     1      34.014 -15.056 -23.128  0.00  0.00    +0.039 C 
ATOM     10  C   UNL     1      33.552 -14.774 -24.409  0.00  0.00    +0.146 C 
ATOM     11  C   UNL     1      33.081 -13.023 -23.191  0.00  0.00    +0.200 C 
ATOM     12  C   UNL     1      33.702 -13.912 -22.345  0.00  0.00    +0.045 C 
ATOM     13  C   UNL     1      34.634 -16.296 -22.894  0.00  0.00    +0.015 C 
ATOM     14  C   UNL     1      33.664 -15.648 -25.489  0.00  0.00    +0.038 C 
ATOM     15  C   UNL     1      34.761 -17.196 -23.961  0.00  0.00    +0.058 C 
ATOM     16  C   UNL     1      34.283 -16.876 -25.234  0.00  0.00    +0.015 C 
ENDBRANCH   5  11
ENDBRANCH   1   4
BRANCH   1  17
ATOM     17  S   UNL     1      33.810  -8.138 -23.158  0.00  0.00    +0.075 S 
ATOM     18  O   UNL     1      33.653  -7.734 -21.774  0.00  0.00    -0.152 OA
ATOM     19  O   UNL     1      35.098  -8.591 -23.646  0.00  0.00    -0.152 OA
BRANCH  17  20
ATOM     20  C   UNL     1      33.303  -6.769 -24.158  0.00  0.00    +0.127 C 
ATOM     21  C   UNL     1      32.166  -6.046 -23.837  0.00  0.00    +0.090 C 
ATOM     22  C   UNL     1      34.075  -6.446 -25.262  0.00  0.00    +0.020 C 
ATOM     23  C   UNL     1      31.789  -4.971 -24.642  0.00  0.00    +0.005 C 
ATOM     24  C   UNL     1      33.699  -5.370 -26.067  0.00  0.00    +0.001 C 
ATOM     25  C   UNL     1      32.557  -4.633 -25.757  0.00  0.00    +0.000 C 
BRANCH  21  29
ATOM     26  F   UNL     1      30.889  -7.676 -22.637  0.00  0.00    -0.166 F 
ATOM     27  F   UNL     1      31.967  -6.208 -21.459  0.00  0.00    -0.166 F 
ATOM     28  F   UNL     1      30.197  -5.615 -22.575  0.00  0.00    -0.166 F 
ATOM     29  C   UNL     1      31.323  -6.382 -22.650  0.00  0.00    +0.420 C 
ENDBRANCH  21  29
ENDBRANCH  17  20
ENDBRANCH   1  17
TORSDOF 5
ENDMDL
MODEL 9
REMARK VINA RESULT:      -9.9      4.144      5.743
REMARK  Name = 6914573
REMARK  5 active torsions:
REMARK  status: ('A' for Active; 'I' for Inactive)
REMARK    1  A    between atoms: N_1  and  N_4
REMARK    2  A    between atoms: N_1  and  S_17
REMARK    3  A    between atoms: C_5  and  C_11
REMARK    4  A    between atoms: S_17  and  C_20
REMARK    5  A    between atoms: C_21  and  C_29
REMARK                            x       y       z     vdW  Elec       q    Type
REMARK                         _______ _______ _______ _____ _____    ______ ____
ROOT
ATOM      1  N   UNL     1      33.968 -24.260 -15.273  0.00  0.00    -0.108 NA
ATOM      2  H   UNL     1      32.976 -24.144 -15.066  0.00  0.00    +0.172 HD
ENDROOT
BRANCH   1   4
ATOM      3  O   UNL     1      32.238 -23.655 -17.327  0.00  0.00    -0.265 OA
ATOM      4  N   UNL     1      34.298 -23.360 -16.362  0.00  0.00    -0.225 N 
ATOM      5  C   UNL     1      33.363 -23.096 -17.380  0.00  0.00    +0.295 C 
ATOM      6  H   UNL     1      35.183 -22.930 -16.388  0.00  0.00    +0.171 HD
BRANCH   5  11
ATOM      7 CL   UNL     1      36.016 -18.508 -22.881  0.00  0.00    -0.082 Cl
ATOM      8  O   UNL     1      32.806 -21.494 -19.054  0.00  0.00    -0.449 OA
ATOM      9  C   UNL     1      34.805 -20.969 -19.967  0.00  0.00    +0.039 C 
ATOM     10  C   UNL     1      33.434 -20.735 -19.995  0.00  0.00    +0.146 C 
ATOM     11  C   UNL     1      33.768 -22.214 -18.422  0.00  0.00    +0.200 C 
ATOM     12  C   UNL     1      35.010 -21.931 -18.941  0.00  0.00    +0.045 C 
ATOM     13  C   UNL     1      35.625 -20.273 -20.871  0.00  0.00    +0.015 C 
ATOM     14  C   UNL     1      32.811 -19.847 -20.871  0.00  0.00    +0.038 C 
ATOM     15  C   UNL     1      35.027 -19.372 -21.764  0.00  0.00    +0.058 C 
ATOM     16  C   UNL     1      33.646 -19.165 -21.762  0.00  0.00    +0.015 C 
ENDBRANCH   5  11
ENDBRANCH   1   4
BRANCH   1  17
ATOM     17  S   UNL     1      34.831 -24.041 -13.819  0.00  0.00    +0.075 S 
ATOM     18  O   UNL     1      35.337 -22.682 -13.766  0.00  0.00    -0.152 OA
ATOM     19  O   UNL     1      34.050 -24.574 -12.720  0.00  0.00    -0.152 OA
BRANCH  17  20
ATOM     20  C   UNL     1      36.225 -25.104 -14.060  0.00  0.00    +0.127 C 
ATOM     21  C   UNL     1      37.337 -25.001 -13.241  0.00  0.00    +0.090 C 
ATOM     22  C   UNL     1      36.167 -26.034 -15.085  0.00  0.00    +0.020 C 
ATOM     23  C   UNL     1      38.422 -25.852 -13.452  0.00  0.00    +0.005 C 
ATOM     24  C   UNL     1      37.251 -26.886 -15.296  0.00  0.00    +0.001 C 
ATOM     25  C   UNL     1      38.378 -26.795 -14.479  0.00  0.00    +0.000 C 
BRANCH  21  29
ATOM     26  F   UNL     1      38.586 -24.057 -11.431  0.00  0.00    -0.166 F 
ATOM     27  F   UNL     1      37.310 -22.710 -12.555  0.00  0.00    -0.166 F 
ATOM     28  F   UNL     1      36.426 -24.172 -11.208  0.00  0.00    -0.166 F 
ATOM     29  C   UNL     1      37.415 -24.004 -12.132  0.00  0.00    +0.420 C 
ENDBRANCH  21  29
ENDBRANCH  17  20
ENDBRANCH   1  17
TORSDOF 5
ENDMDL
