MODEL 1
REMARK VINA RESULT:      -9.4      0.000      0.000
REMARK  Name = 27934
REMARK  3 active torsions:
REMARK  status: ('A' for Active; 'I' for Inactive)
REMARK    1  A    between atoms: C_2  and  C_11
REMARK    2  A    between atoms: C_11  and  C_12
REMARK    3  A    between atoms: C_12  and  C_14
REMARK                            x       y       z     vdW  Elec       q    Type
REMARK                         _______ _______ _______ _____ _____    ______ ____
ROOT
ATOM      1  N   UNL     1      34.623 -16.695 -24.701  0.00  0.00    -0.312 N 
ATOM      2  C   UNL     1      34.850 -18.136 -23.028  0.00  0.00    -0.006 C 
ATOM      3  C   UNL     1      34.670 -16.837 -22.475  0.00  0.00    +0.011 C 
ATOM      4  C   UNL     1      34.531 -15.952 -23.546  0.00  0.00    +0.048 C 
ATOM      5  C   UNL     1      34.816 -18.016 -24.398  0.00  0.00    +0.058 C 
ATOM      6  C   UNL     1      34.612 -16.329 -21.162  0.00  0.00    +0.001 C 
ATOM      7  C   UNL     1      34.336 -14.578 -23.369  0.00  0.00    +0.015 C 
ATOM      8  C   UNL     1      34.418 -14.956 -20.970  0.00  0.00    +0.000 C 
ATOM      9  C   UNL     1      34.282 -14.096 -22.058  0.00  0.00    +0.001 C 
ATOM     10  H   UNL     1      34.561 -16.329 -25.613  0.00  0.00    +0.152 HD
ENDROOT
BRANCH   2  11
ATOM     11  C   UNL     1      35.039 -19.394 -22.277  0.00  0.00    +0.032 C 
BRANCH  11  12
ATOM     12  C   UNL     1      33.893 -19.734 -21.298  0.00  0.00    +0.031 C 
BRANCH  12  14
ATOM     13  N   UNL     1      35.050 -22.506 -18.241  0.00  0.00    -0.242 NA
ATOM     14  C   UNL     1      34.300 -20.710 -20.221  0.00  0.00    -0.019 C 
ATOM     15  C   UNL     1      33.334 -21.470 -19.590  0.00  0.00    +0.016 C 
ATOM     16  C   UNL     1      35.634 -20.830 -19.881  0.00  0.00    +0.016 C 
ATOM     17  C   UNL     1      33.758 -22.351 -18.610  0.00  0.00    +0.099 C 
ATOM     18  C   UNL     1      35.956 -21.740 -18.888  0.00  0.00    +0.099 C 
ENDBRANCH  12  14
ENDBRANCH  11  12
ENDBRANCH   2  11
TORSDOF 3
ENDMDL
MODEL 2
REMARK VINA RESULT:      -9.2      1.503      6.551
REMARK  Name = 27934
REMARK  3 active torsions:
REMARK  status: ('A' for Active; 'I' for Inactive)
REMARK    1  A    between atoms: C_2  and  C_11
REMARK    2  A    between atoms: C_11  and  C_12
REMARK    3  A    between atoms: C_12  and  C_14
REMARK                            x       y       z     vdW  Elec       q    Type
REMARK                         _______ _______ _______ _____ _____    ______ ____
ROOT
ATOM      1  N   UNL     1      32.691 -20.351 -20.644  0.00  0.00    -0.312 N 
ATOM      2  C   UNL     1      34.652 -19.484 -21.221  0.00  0.00    -0.006 C 
ATOM      3  C   UNL     1      34.879 -20.472 -20.222  0.00  0.00    +0.011 C 
ATOM      4  C   UNL     1      33.633 -21.001 -19.878  0.00  0.00    +0.048 C 
ATOM      5  C   UNL     1      33.298 -19.433 -21.459  0.00  0.00    +0.058 C 
ATOM      6  C   UNL     1      36.029 -20.969 -19.577  0.00  0.00    +0.001 C 
ATOM      7  C   UNL     1      33.479 -22.005 -18.916  0.00  0.00    +0.015 C 
ATOM      8  C   UNL     1      35.890 -21.975 -18.613  0.00  0.00    +0.000 C 
ATOM      9  C   UNL     1      34.633 -22.483 -18.289  0.00  0.00    +0.001 C 
ATOM     10  H   UNL     1      31.723 -20.522 -20.610  0.00  0.00    +0.152 HD
ENDROOT
BRANCH   2  11
ATOM     11  C   UNL     1      35.676 -18.656 -21.889  0.00  0.00    +0.032 C 
BRANCH  11  12
ATOM     12  C   UNL     1      35.515 -18.551 -23.422  0.00  0.00    +0.031 C 
BRANCH  12  14
ATOM     13  N   UNL     1      33.730 -14.864 -24.684  0.00  0.00    -0.242 NA
ATOM     14  C   UNL     1      34.887 -17.251 -23.866  0.00  0.00    -0.019 C 
ATOM     15  C   UNL     1      34.323 -17.164 -25.125  0.00  0.00    +0.016 C 
ATOM     16  C   UNL     1      34.883 -16.169 -23.008  0.00  0.00    +0.016 C 
ATOM     17  C   UNL     1      33.759 -15.952 -25.486  0.00  0.00    +0.099 C 
ATOM     18  C   UNL     1      34.294 -15.001 -23.463  0.00  0.00    +0.099 C 
ENDBRANCH  12  14
ENDBRANCH  11  12
ENDBRANCH   2  11
TORSDOF 3
ENDMDL
MODEL 3
REMARK VINA RESULT:      -9.1      1.382      2.265
REMARK  Name = 27934
REMARK  3 active torsions:
REMARK  status: ('A' for Active; 'I' for Inactive)
REMARK    1  A    between atoms: C_2  and  C_11
REMARK    2  A    between atoms: C_11  and  C_12
REMARK    3  A    between atoms: C_12  and  C_14
REMARK                            x       y       z     vdW  Elec       q    Type
REMARK                         _______ _______ _______ _____ _____    ______ ____
ROOT
ATOM      1  N   UNL     1      34.068 -14.563 -21.226  0.00  0.00    -0.312 N 
ATOM      2  C   UNL     1      34.775 -16.645 -21.529  0.00  0.00    -0.006 C 
ATOM      3  C   UNL     1      34.375 -16.122 -22.792  0.00  0.00    +0.011 C 
ATOM      4  C   UNL     1      33.936 -14.815 -22.573  0.00  0.00    +0.048 C 
ATOM      5  C   UNL     1      34.574 -15.663 -20.587  0.00  0.00    +0.058 C 
ATOM      6  C   UNL     1      34.347 -16.638 -24.102  0.00  0.00    +0.001 C 
ATOM      7  C   UNL     1      33.467 -13.994 -23.604  0.00  0.00    +0.015 C 
ATOM      8  C   UNL     1      33.880 -15.828 -25.144  0.00  0.00    +0.000 C 
ATOM      9  C   UNL     1      33.447 -14.527 -24.896  0.00  0.00    +0.001 C 
ATOM     10  H   UNL     1      33.831 -13.715 -20.786  0.00  0.00    +0.152 HD
ENDROOT
BRANCH   2  11
ATOM     11  C   UNL     1      35.310 -17.996 -21.266  0.00  0.00    +0.032 C 
BRANCH  11  12
ATOM     12  C   UNL     1      34.275 -19.134 -21.412  0.00  0.00    +0.031 C 
BRANCH  12  14
ATOM     13  N   UNL     1      34.941 -22.383 -18.695  0.00  0.00    -0.242 NA
ATOM     14  C   UNL     1      34.510 -20.278 -20.454  0.00  0.00    -0.019 C 
ATOM     15  C   UNL     1      33.429 -20.972 -19.945  0.00  0.00    +0.016 C 
ATOM     16  C   UNL     1      35.802 -20.616 -20.102  0.00  0.00    +0.016 C 
ATOM     17  C   UNL     1      33.696 -22.013 -19.072  0.00  0.00    +0.099 C 
ATOM     18  C   UNL     1      35.964 -21.673 -19.222  0.00  0.00    +0.099 C 
ENDBRANCH  12  14
ENDBRANCH  11  12
ENDBRANCH   2  11
TORSDOF 3
ENDMDL
MODEL 4
REMARK VINA RESULT:      -9.1      1.771      6.663
REMARK  Name = 27934
REMARK  3 active torsions:
REMARK  status: ('A' for Active; 'I' for Inactive)
REMARK    1  A    between atoms: C_2  and  C_11
REMARK    2  A    between atoms: C_11  and  C_12
REMARK    3  A    between atoms: C_12  and  C_14
REMARK                            x       y       z     vdW  Elec       q    Type
REMARK                         _______ _______ _______ _____ _____    ______ ____
ROOT
ATOM      1  N   UNL     1      36.819 -20.237 -20.332  0.00  0.00    -0.312 N 
ATOM      2  C   UNL     1      35.555 -18.648 -21.230  0.00  0.00    -0.006 C 
ATOM      3  C   UNL     1      34.697 -19.643 -20.680  0.00  0.00    +0.011 C 
ATOM      4  C   UNL     1      35.515 -20.628 -20.124  0.00  0.00    +0.048 C 
ATOM      5  C   UNL     1      36.853 -19.042 -21.000  0.00  0.00    +0.058 C 
ATOM      6  C   UNL     1      33.299 -19.798 -20.604  0.00  0.00    +0.001 C 
ATOM      7  C   UNL     1      35.003 -21.766 -19.491  0.00  0.00    +0.015 C 
ATOM      8  C   UNL     1      32.772 -20.932 -19.973  0.00  0.00    +0.000 C 
ATOM      9  C   UNL     1      33.613 -21.899 -19.427  0.00  0.00    +0.001 C 
ATOM     10  H   UNL     1      37.611 -20.744 -20.043  0.00  0.00    +0.152 HD
ENDROOT
BRANCH   2  11
ATOM     11  C   UNL     1      35.139 -17.413 -21.924  0.00  0.00    +0.032 C 
BRANCH  11  12
ATOM     12  C   UNL     1      34.692 -16.270 -20.984  0.00  0.00    +0.031 C 
BRANCH  12  14
ATOM     13  N   UNL     1      32.696 -13.081 -23.039  0.00  0.00    -0.242 NA
ATOM     14  C   UNL     1      33.989 -15.146 -21.708  0.00  0.00    -0.019 C 
ATOM     15  C   UNL     1      34.447 -14.744 -22.947  0.00  0.00    +0.016 C 
ATOM     16  C   UNL     1      32.898 -14.537 -21.120  0.00  0.00    +0.016 C 
ATOM     17  C   UNL     1      33.769 -13.710 -23.571  0.00  0.00    +0.099 C 
ATOM     18  C   UNL     1      32.288 -13.512 -21.825  0.00  0.00    +0.099 C 
ENDBRANCH  12  14
ENDBRANCH  11  12
ENDBRANCH   2  11
TORSDOF 3
ENDMDL
MODEL 5
REMARK VINA RESULT:      -9.0      1.318      2.094
REMARK  Name = 27934
REMARK  3 active torsions:
REMARK  status: ('A' for Active; 'I' for Inactive)
REMARK    1  A    between atoms: C_2  and  C_11
REMARK    2  A    between atoms: C_11  and  C_12
REMARK    3  A    between atoms: C_12  and  C_14
REMARK                            x       y       z     vdW  Elec       q    Type
REMARK                         _______ _______ _______ _____ _____    ______ ____
ROOT
ATOM      1  N   UNL     1      34.176 -15.380 -24.002  0.00  0.00    -0.312 N 
ATOM      2  C   UNL     1      34.676 -16.396 -22.093  0.00  0.00    -0.006 C 
ATOM      3  C   UNL     1      33.807 -15.306 -21.803  0.00  0.00    +0.011 C 
ATOM      4  C   UNL     1      33.509 -14.686 -23.018  0.00  0.00    +0.048 C 
ATOM      5  C   UNL     1      34.884 -16.416 -23.452  0.00  0.00    +0.058 C 
ATOM      6  C   UNL     1      33.245 -14.788 -20.620  0.00  0.00    +0.001 C 
ATOM      7  C   UNL     1      32.673 -13.568 -23.109  0.00  0.00    +0.015 C 
ATOM      8  C   UNL     1      32.406 -13.669 -20.696  0.00  0.00    +0.000 C 
ATOM      9  C   UNL     1      32.127 -13.070 -21.923  0.00  0.00    +0.001 C 
ATOM     10  H   UNL     1      34.149 -15.163 -24.961  0.00  0.00    +0.152 HD
ENDROOT
BRANCH   2  11
ATOM     11  C   UNL     1      35.255 -17.342 -21.118  0.00  0.00    +0.032 C 
BRANCH  11  12
ATOM     12  C   UNL     1      35.537 -18.752 -21.684  0.00  0.00    +0.031 C 
BRANCH  12  14
ATOM     13  N   UNL     1      34.060 -21.902 -19.181  0.00  0.00    -0.242 NA
ATOM     14  C   UNL     1      35.016 -19.862 -20.803  0.00  0.00    -0.019 C 
ATOM     15  C   UNL     1      35.910 -20.714 -20.183  0.00  0.00    +0.016 C 
ATOM     16  C   UNL     1      33.654 -20.010 -20.628  0.00  0.00    +0.016 C 
ATOM     17  C   UNL     1      35.384 -21.716 -19.384  0.00  0.00    +0.099 C 
ATOM     18  C   UNL     1      33.228 -21.042 -19.809  0.00  0.00    +0.099 C 
ENDBRANCH  12  14
ENDBRANCH  11  12
ENDBRANCH   2  11
TORSDOF 3
ENDMDL
MODEL 6
REMARK VINA RESULT:      -8.9      3.159      8.222
REMARK  Name = 27934
REMARK  3 active torsions:
REMARK  status: ('A' for Active; 'I' for Inactive)
REMARK    1  A    between atoms: C_2  and  C_11
REMARK    2  A    between atoms: C_11  and  C_12
REMARK    3  A    between atoms: C_12  and  C_14
REMARK                            x       y       z     vdW  Elec       q    Type
REMARK                         _______ _______ _______ _____ _____    ______ ____
ROOT
ATOM      1  N   UNL     1      34.071 -23.276 -14.712  0.00  0.00    -0.312 N 
ATOM      2  C   UNL     1      33.590 -23.136 -16.874  0.00  0.00    -0.006 C 
ATOM      3  C   UNL     1      32.367 -23.150 -16.147  0.00  0.00    +0.011 C 
ATOM      4  C   UNL     1      32.696 -23.239 -14.793  0.00  0.00    +0.048 C 
ATOM      5  C   UNL     1      34.619 -23.214 -15.965  0.00  0.00    +0.058 C 
ATOM      6  C   UNL     1      31.007 -23.096 -16.513  0.00  0.00    +0.001 C 
ATOM      7  C   UNL     1      31.731 -23.276 -13.781  0.00  0.00    +0.015 C 
ATOM      8  C   UNL     1      30.030 -23.132 -15.511  0.00  0.00    +0.000 C 
ATOM      9  C   UNL     1      30.389 -23.221 -14.167  0.00  0.00    +0.001 C 
ATOM     10  H   UNL     1      34.584 -23.339 -13.875  0.00  0.00    +0.152 HD
ENDROOT
BRANCH   2  11
ATOM     11  C   UNL     1      33.741 -23.052 -18.341  0.00  0.00    +0.032 C 
BRANCH  11  12
ATOM     12  C   UNL     1      34.962 -22.231 -18.814  0.00  0.00    +0.031 C 
BRANCH  12  14
ATOM     13  N   UNL     1      33.924 -19.064 -21.509  0.00  0.00    -0.242 NA
ATOM     14  C   UNL     1      34.596 -21.116 -19.764  0.00  0.00    -0.019 C 
ATOM     15  C   UNL     1      33.267 -20.784 -19.944  0.00  0.00    +0.016 C 
ATOM     16  C   UNL     1      35.596 -20.442 -20.438  0.00  0.00    +0.016 C 
ATOM     17  C   UNL     1      32.983 -19.754 -20.825  0.00  0.00    +0.099 C 
ATOM     18  C   UNL     1      35.209 -19.427 -21.297  0.00  0.00    +0.099 C 
ENDBRANCH  12  14
ENDBRANCH  11  12
ENDBRANCH   2  11
TORSDOF 3
ENDMDL
MODEL 7
REMARK VINA RESULT:      -8.9      1.915      2.894
REMARK  Name = 27934
REMARK  3 active torsions:
REMARK  status: ('A' for Active; 'I' for Inactive)
REMARK    1  A    between atoms: C_2  and  C_11
REMARK    2  A    between atoms: C_11  and  C_12
REMARK    3  A    between atoms: C_12  and  C_14
REMARK                            x       y       z     vdW  Elec       q    Type
REMARK                         _______ _______ _______ _____ _____    ______ ____
ROOT
ATOM      1  N   UNL     1      32.708 -14.162 -24.596  0.00  0.00    -0.312 N 
ATOM      2  C   UNL     1      34.149 -15.821 -24.282  0.00  0.00    -0.006 C 
ATOM      3  C   UNL     1      33.794 -15.294 -23.008  0.00  0.00    +0.011 C 
ATOM      4  C   UNL     1      32.889 -14.254 -23.234  0.00  0.00    +0.048 C 
ATOM      5  C   UNL     1      33.466 -15.105 -25.237  0.00  0.00    +0.058 C 
ATOM      6  C   UNL     1      34.157 -15.603 -21.683  0.00  0.00    +0.001 C 
ATOM      7  C   UNL     1      32.326 -13.505 -22.195  0.00  0.00    +0.015 C 
ATOM      8  C   UNL     1      33.601 -14.861 -20.633  0.00  0.00    +0.000 C 
ATOM      9  C   UNL     1      32.700 -13.828 -20.888  0.00  0.00    +0.001 C 
ATOM     10  H   UNL     1      32.120 -13.512 -25.043  0.00  0.00    +0.152 HD
ENDROOT
BRANCH   2  11
ATOM     11  C   UNL     1      35.082 -16.936 -24.543  0.00  0.00    +0.032 C 
BRANCH  11  12
ATOM     12  C   UNL     1      34.537 -18.330 -24.161  0.00  0.00    +0.031 C 
BRANCH  12  14
ATOM     13  N   UNL     1      35.851 -19.657 -20.302  0.00  0.00    -0.242 NA
ATOM     14  C   UNL     1      35.000 -18.797 -22.801  0.00  0.00    -0.019 C 
ATOM     15  C   UNL     1      34.133 -19.511 -21.996  0.00  0.00    +0.016 C 
ATOM     16  C   UNL     1      36.283 -18.505 -22.382  0.00  0.00    +0.016 C 
ATOM     17  C   UNL     1      34.604 -19.918 -20.759  0.00  0.00    +0.099 C 
ATOM     18  C   UNL     1      36.659 -18.957 -21.128  0.00  0.00    +0.099 C 
ENDBRANCH  12  14
ENDBRANCH  11  12
ENDBRANCH   2  11
TORSDOF 3
ENDMDL
MODEL 8
REMARK VINA RESULT:      -8.8      3.041      5.716
REMARK  Name = 27934
REMARK  3 active torsions:
REMARK  status: ('A' for Active; 'I' for Inactive)
REMARK    1  A    between atoms: C_2  and  C_11
REMARK    2  A    between atoms: C_11  and  C_12
REMARK    3  A    between atoms: C_12  and  C_14
REMARK                            x       y       z     vdW  Elec       q    Type
REMARK                         _______ _______ _______ _____ _____    ______ ____
ROOT
ATOM      1  N   UNL     1      36.460 -20.962 -19.346  0.00  0.00    -0.312 N 
ATOM      2  C   UNL     1      34.586 -22.035 -18.829  0.00  0.00    -0.006 C 
ATOM      3  C   UNL     1      34.270 -21.018 -19.774  0.00  0.00    +0.011 C 
ATOM      4  C   UNL     1      35.463 -20.360 -20.081  0.00  0.00    +0.048 C 
ATOM      5  C   UNL     1      35.939 -21.975 -18.586  0.00  0.00    +0.058 C 
ATOM      6  C   UNL     1      33.080 -20.595 -20.398  0.00  0.00    +0.001 C 
ATOM      7  C   UNL     1      35.526 -19.295 -20.986  0.00  0.00    +0.015 C 
ATOM      8  C   UNL     1      33.129 -19.530 -21.306  0.00  0.00    +0.000 C 
ATOM      9  C   UNL     1      34.334 -18.891 -21.593  0.00  0.00    +0.001 C 
ATOM     10  H   UNL     1      37.408 -20.701 -19.363  0.00  0.00    +0.152 HD
ENDROOT
BRANCH   2  11
ATOM     11  C   UNL     1      33.641 -22.988 -18.213  0.00  0.00    +0.032 C 
BRANCH  11  12
ATOM     12  C   UNL     1      33.900 -23.270 -16.716  0.00  0.00    +0.031 C 
BRANCH  12  14
ATOM     13  N   UNL     1      30.335 -23.187 -14.338  0.00  0.00    -0.242 NA
ATOM     14  C   UNL     1      32.644 -23.241 -15.878  0.00  0.00    -0.019 C 
ATOM     15  C   UNL     1      32.734 -23.418 -14.511  0.00  0.00    +0.016 C 
ATOM     16  C   UNL     1      31.423 -23.039 -16.491  0.00  0.00    +0.016 C 
ATOM     17  C   UNL     1      31.554 -23.382 -13.787  0.00  0.00    +0.099 C 
ATOM     18  C   UNL     1      30.301 -23.020 -15.679  0.00  0.00    +0.099 C 
ENDBRANCH  12  14
ENDBRANCH  11  12
ENDBRANCH   2  11
TORSDOF 3
ENDMDL
MODEL 9
REMARK VINA RESULT:      -8.7      1.354      6.530
REMARK  Name = 27934
REMARK  3 active torsions:
REMARK  status: ('A' for Active; 'I' for Inactive)
REMARK    1  A    between atoms: C_2  and  C_11
REMARK    2  A    between atoms: C_11  and  C_12
REMARK    3  A    between atoms: C_12  and  C_14
REMARK                            x       y       z     vdW  Elec       q    Type
REMARK                         _______ _______ _______ _____ _____    ______ ____
ROOT
ATOM      1  N   UNL     1      36.871 -20.498 -19.609  0.00  0.00    -0.312 N 
ATOM      2  C   UNL     1      35.185 -19.908 -20.926  0.00  0.00    -0.006 C 
ATOM      3  C   UNL     1      34.697 -20.846 -19.973  0.00  0.00    +0.011 C 
ATOM      4  C   UNL     1      35.775 -21.201 -19.159  0.00  0.00    +0.048 C 
ATOM      5  C   UNL     1      36.523 -19.714 -20.676  0.00  0.00    +0.058 C 
ATOM      6  C   UNL     1      33.438 -21.429 -19.726  0.00  0.00    +0.001 C 
ATOM      7  C   UNL     1      35.656 -22.112 -18.105  0.00  0.00    +0.015 C 
ATOM      8  C   UNL     1      33.305 -22.343 -18.673  0.00  0.00    +0.000 C 
ATOM      9  C   UNL     1      34.399 -22.678 -17.877  0.00  0.00    +0.001 C 
ATOM     10  H   UNL     1      37.773 -20.553 -19.219  0.00  0.00    +0.152 HD
ENDROOT
BRANCH   2  11
ATOM     11  C   UNL     1      34.404 -19.253 -21.996  0.00  0.00    +0.032 C 
BRANCH  11  12
ATOM     12  C   UNL     1      35.207 -18.247 -22.851  0.00  0.00    +0.031 C 
BRANCH  12  14
ATOM     13  N   UNL     1      34.238 -14.159 -22.003  0.00  0.00    -0.242 NA
ATOM     14  C   UNL     1      34.865 -16.807 -22.552  0.00  0.00    -0.019 C 
ATOM     15  C   UNL     1      34.754 -16.393 -21.239  0.00  0.00    +0.016 C 
ATOM     16  C   UNL     1      34.669 -15.924 -23.596  0.00  0.00    +0.016 C 
ATOM     17  C   UNL     1      34.439 -15.062 -21.017  0.00  0.00    +0.099 C 
ATOM     18  C   UNL     1      34.359 -14.614 -23.270  0.00  0.00    +0.099 C 
ENDBRANCH  12  14
ENDBRANCH  11  12
ENDBRANCH   2  11
TORSDOF 3
ENDMDL
