MODEL 1
REMARK VINA RESULT:      -9.8      0.000      0.000
REMARK  Name = 25023709
REMARK  6 active torsions:
REMARK  status: ('A' for Active; 'I' for Inactive)
REMARK    1  A    between atoms: C_3  and  N_22
REMARK    2  A    between atoms: C_4  and  C_13
REMARK    3  A    between atoms: N_10  and  C_16
REMARK    4  A    between atoms: C_16  and  C_17
REMARK    5  A    between atoms: C_17  and  N_18
REMARK    6  A    between atoms: N_22  and  C_26
REMARK                            x       y       z     vdW  Elec       q    Type
REMARK                         _______ _______ _______ _____ _____    ______ ____
ROOT
ATOM      1  F   UNL     1      32.935 -23.788 -12.914  0.00  0.00    -0.200 F 
ATOM      2  F   UNL     1      30.411 -24.781 -13.172  0.00  0.00    -0.202 F 
ATOM      3  C   UNL     1      33.007 -23.283 -15.234  0.00  0.00    +0.083 C 
ATOM      4  C   UNL     1      32.380 -23.288 -16.480  0.00  0.00    +0.071 C 
ATOM      5  C   UNL     1      32.342 -23.788 -14.117  0.00  0.00    +0.181 C 
ATOM      6  C   UNL     1      31.087 -23.797 -16.608  0.00  0.00    +0.008 C 
ATOM      7  C   UNL     1      31.050 -24.297 -14.245  0.00  0.00    +0.169 C 
ATOM      8  C   UNL     1      30.422 -24.301 -15.491  0.00  0.00    +0.032 C 
ENDROOT
BRANCH   4  13
ATOM      9  O   UNL     1      32.411 -21.750 -18.297  0.00  0.00    -0.405 OA
ATOM     10  N   UNL     1      32.932 -20.523 -20.178  0.00  0.00    -0.289 N 
ATOM     11  N   UNL     1      34.172 -23.127 -18.224  0.00  0.00    -0.106 NA
ATOM     12  N   UNL     1      34.323 -22.298 -19.319  0.00  0.00    -0.092 NA
ATOM     13  C   UNL     1      33.043 -22.771 -17.657  0.00  0.00    +0.252 A 
ATOM     14  C   UNL     1      33.273 -21.512 -19.323  0.00  0.00    +0.309 A 
ATOM     15  H   UNL     1      32.089 -20.042 -20.007  0.00  0.00    +0.151 HD
BRANCH  10  16
ATOM     16  C   UNL     1      33.722 -20.112 -21.339  0.00  0.00    +0.067 C 
BRANCH  16  17
ATOM     17  C   UNL     1      34.705 -19.021 -20.929  0.00  0.00    -0.064 C 
BRANCH  17  18
ATOM     18  N   UNL     1      35.946 -19.613 -20.445  0.00  0.00    +0.382 N 
ATOM     19  H   UNL     1      36.031 -19.452 -19.442  0.00  0.00    -0.089 HD
ATOM     20  H   UNL     1      36.737 -19.184 -20.927  0.00  0.00    -0.089 HD
ATOM     21  H   UNL     1      35.940 -20.616 -20.630  0.00  0.00    -0.089 HD
ENDBRANCH  17  18
ENDBRANCH  16  17
ENDBRANCH  10  16
ENDBRANCH   4  13
BRANCH   3  22
ATOM     22  N   UNL     1      34.317 -22.772 -15.076  0.00  0.00    -0.309 N 
ATOM     23  H   UNL     1      34.355 -21.790 -15.022  0.00  0.00    +0.152 HD
BRANCH  22  26
ATOM     24  I   UNL     1      39.922 -25.556 -14.660  0.00  0.00    -0.042 I 
ATOM     25  F   UNL     1      36.583 -21.635 -16.220  0.00  0.00    -0.203 F 
ATOM     26  C   UNL     1      35.574 -23.394 -14.984  0.00  0.00    +0.076 C 
ATOM     27  C   UNL     1      36.694 -22.800 -15.568  0.00  0.00    +0.154 C 
ATOM     28  C   UNL     1      35.701 -24.607 -14.307  0.00  0.00    +0.017 C 
ATOM     29  C   UNL     1      37.939 -23.420 -15.474  0.00  0.00    +0.037 C 
ATOM     30  C   UNL     1      36.947 -25.227 -14.215  0.00  0.00    +0.007 C 
ATOM     31  C   UNL     1      38.067 -24.633 -14.798  0.00  0.00    +0.032 C 
ENDBRANCH  22  26
ENDBRANCH   3  22
TORSDOF 6
ENDMDL
MODEL 2
REMARK VINA RESULT:      -9.3      6.439      9.906
REMARK  Name = 25023709
REMARK  6 active torsions:
REMARK  status: ('A' for Active; 'I' for Inactive)
REMARK    1  A    between atoms: C_3  and  N_22
REMARK    2  A    between atoms: C_4  and  C_13
REMARK    3  A    between atoms: N_10  and  C_16
REMARK    4  A    between atoms: C_16  and  C_17
REMARK    5  A    between atoms: C_17  and  N_18
REMARK    6  A    between atoms: N_22  and  C_26
REMARK                            x       y       z     vdW  Elec       q    Type
REMARK                         _______ _______ _______ _____ _____    ______ ____
ROOT
ATOM      1  F   UNL     1      35.385 -18.771 -23.771  0.00  0.00    -0.200 F 
ATOM      2  F   UNL     1      35.081 -17.968 -26.356  0.00  0.00    -0.202 F 
ATOM      3  C   UNL     1      34.316 -16.796 -22.998  0.00  0.00    +0.083 C 
ATOM      4  C   UNL     1      33.693 -15.581 -23.286  0.00  0.00    +0.071 C 
ATOM      5  C   UNL     1      34.785 -17.601 -24.035  0.00  0.00    +0.181 C 
ATOM      6  C   UNL     1      33.538 -15.174 -24.611  0.00  0.00    +0.008 C 
ATOM      7  C   UNL     1      34.630 -17.193 -25.360  0.00  0.00    +0.169 C 
ATOM      8  C   UNL     1      34.007 -15.980 -25.648  0.00  0.00    +0.032 C 
ENDROOT
BRANCH   4  13
ATOM      9  O   UNL     1      32.451 -13.657 -22.634  0.00  0.00    -0.405 OA
ATOM     10  N   UNL     1      31.398 -11.962 -21.480  0.00  0.00    -0.289 N 
ATOM     11  N   UNL     1      33.342 -14.801 -20.931  0.00  0.00    -0.106 NA
ATOM     12  N   UNL     1      32.656 -13.721 -20.408  0.00  0.00    -0.092 NA
ATOM     13  C   UNL     1      33.195 -14.724 -22.233  0.00  0.00    +0.252 A 
ATOM     14  C   UNL     1      32.152 -13.082 -21.438  0.00  0.00    +0.309 A 
ATOM     15  H   UNL     1      31.115 -11.635 -22.365  0.00  0.00    +0.151 HD
BRANCH  10  16
ATOM     16  C   UNL     1      30.969 -11.198 -20.308  0.00  0.00    +0.067 C 
BRANCH  16  17
ATOM     17  C   UNL     1      31.679  -9.850 -20.287  0.00  0.00    -0.064 C 
BRANCH  17  18
ATOM     18  N   UNL     1      32.467  -9.710 -19.069  0.00  0.00    +0.382 N 
ATOM     19  H   UNL     1      31.851  -9.474 -18.291  0.00  0.00    -0.089 HD
ATOM     20  H   UNL     1      33.158  -8.969 -19.193  0.00  0.00    -0.089 HD
ATOM     21  H   UNL     1      32.946 -10.589 -18.870  0.00  0.00    -0.089 HD
ENDBRANCH  17  18
ENDBRANCH  16  17
ENDBRANCH  10  16
ENDBRANCH   4  13
BRANCH   3  22
ATOM     22  N   UNL     1      34.484 -17.233 -21.663  0.00  0.00    -0.309 N 
ATOM     23  H   UNL     1      34.730 -16.512 -21.039  0.00  0.00    +0.152 HD
BRANCH  22  26
ATOM     24  I   UNL     1      33.962 -22.865 -18.954  0.00  0.00    -0.042 I 
ATOM     25  F   UNL     1      36.731 -18.744 -21.028  0.00  0.00    -0.203 F 
ATOM     26  C   UNL     1      34.370 -18.494 -21.055  0.00  0.00    +0.076 C 
ATOM     27  C   UNL     1      35.514 -19.231 -20.748  0.00  0.00    +0.154 C 
ATOM     28  C   UNL     1      33.108 -19.011 -20.760  0.00  0.00    +0.017 C 
ATOM     29  C   UNL     1      35.397 -20.483 -20.146  0.00  0.00    +0.037 C 
ATOM     30  C   UNL     1      32.991 -20.264 -20.158  0.00  0.00    +0.007 C 
ATOM     31  C   UNL     1      34.136 -21.000 -19.850  0.00  0.00    +0.032 C 
ENDBRANCH  22  26
ENDBRANCH   3  22
TORSDOF 6
ENDMDL
MODEL 3
REMARK VINA RESULT:      -8.8      3.533      6.177
REMARK  Name = 25023709
REMARK  6 active torsions:
REMARK  status: ('A' for Active; 'I' for Inactive)
REMARK    1  A    between atoms: C_3  and  N_22
REMARK    2  A    between atoms: C_4  and  C_13
REMARK    3  A    between atoms: N_10  and  C_16
REMARK    4  A    between atoms: C_16  and  C_17
REMARK    5  A    between atoms: C_17  and  N_18
REMARK    6  A    between atoms: N_22  and  C_26
REMARK                            x       y       z     vdW  Elec       q    Type
REMARK                         _______ _______ _______ _____ _____    ______ ____
ROOT
ATOM      1  F   UNL     1      37.625 -24.330 -15.325  0.00  0.00    -0.200 F 
ATOM      2  F   UNL     1      38.722 -24.201 -12.836  0.00  0.00    -0.202 F 
ATOM      3  C   UNL     1      35.443 -24.135 -14.408  0.00  0.00    +0.083 C 
ATOM      4  C   UNL     1      34.624 -24.002 -13.287  0.00  0.00    +0.071 C 
ATOM      5  C   UNL     1      36.827 -24.203 -14.255  0.00  0.00    +0.181 C 
ATOM      6  C   UNL     1      35.189 -23.935 -12.014  0.00  0.00    +0.008 C 
ATOM      7  C   UNL     1      37.392 -24.136 -12.982  0.00  0.00    +0.169 C 
ATOM      8  C   UNL     1      36.574 -24.002 -11.861  0.00  0.00    +0.032 C 
ENDROOT
BRANCH   4  13
ATOM      9  O   UNL     1      32.608 -24.856 -14.225  0.00  0.00    -0.405 OA
ATOM     10  N   UNL     1      30.421 -25.264 -14.828  0.00  0.00    -0.289 N 
ATOM     11  N   UNL     1      32.323 -23.102 -12.866  0.00  0.00    -0.106 NA
ATOM     12  N   UNL     1      31.080 -23.489 -13.332  0.00  0.00    -0.092 NA
ATOM     13  C   UNL     1      33.184 -23.928 -13.413  0.00  0.00    +0.252 A 
ATOM     14  C   UNL     1      31.295 -24.515 -14.121  0.00  0.00    +0.309 A 
ATOM     15  H   UNL     1      30.786 -26.001 -15.369  0.00  0.00    +0.151 HD
BRANCH  10  16
ATOM     16  C   UNL     1      28.972 -25.061 -14.849  0.00  0.00    +0.067 C 
BRANCH  16  17
ATOM     17  C   UNL     1      28.602 -24.124 -15.993  0.00  0.00    -0.064 C 
BRANCH  17  18
ATOM     18  N   UNL     1      28.636 -22.738 -15.544  0.00  0.00    +0.382 N 
ATOM     19  H   UNL     1      28.316 -22.685 -14.577  0.00  0.00    -0.089 HD
ATOM     20  H   UNL     1      28.026 -22.173 -16.136  0.00  0.00    -0.089 HD
ATOM     21  H   UNL     1      29.591 -22.383 -15.606  0.00  0.00    -0.089 HD
ENDBRANCH  17  18
ENDBRANCH  16  17
ENDBRANCH  10  16
ENDBRANCH   4  13
BRANCH   3  22
ATOM     22  N   UNL     1      34.895 -24.204 -15.711  0.00  0.00    -0.309 N 
ATOM     23  H   UNL     1      34.401 -25.037 -15.888  0.00  0.00    +0.152 HD
BRANCH  22  26
ATOM     24  I   UNL     1      35.016 -20.241 -20.571  0.00  0.00    -0.042 I 
ATOM     25  F   UNL     1      32.651 -23.806 -17.306  0.00  0.00    -0.203 F 
ATOM     26  C   UNL     1      34.920 -23.316 -16.800  0.00  0.00    +0.076 C 
ATOM     27  C   UNL     1      33.779 -23.136 -17.583  0.00  0.00    +0.154 C 
ATOM     28  C   UNL     1      36.088 -22.614 -17.098  0.00  0.00    +0.017 C 
ATOM     29  C   UNL     1      33.807 -22.255 -18.663  0.00  0.00    +0.037 C 
ATOM     30  C   UNL     1      36.115 -21.733 -18.178  0.00  0.00    +0.007 C 
ATOM     31  C   UNL     1      34.974 -21.553 -18.962  0.00  0.00    +0.032 C 
ENDBRANCH  22  26
ENDBRANCH   3  22
TORSDOF 6
ENDMDL
MODEL 4
REMARK VINA RESULT:      -8.8      3.453      5.880
REMARK  Name = 25023709
REMARK  6 active torsions:
REMARK  status: ('A' for Active; 'I' for Inactive)
REMARK    1  A    between atoms: C_3  and  N_22
REMARK    2  A    between atoms: C_4  and  C_13
REMARK    3  A    between atoms: N_10  and  C_16
REMARK    4  A    between atoms: C_16  and  C_17
REMARK    5  A    between atoms: C_17  and  N_18
REMARK    6  A    between atoms: N_22  and  C_26
REMARK                            x       y       z     vdW  Elec       q    Type
REMARK                         _______ _______ _______ _____ _____    ______ ____
ROOT
ATOM      1  F   UNL     1      37.559 -23.965 -15.175  0.00  0.00    -0.200 F 
ATOM      2  F   UNL     1      38.403 -23.714 -12.598  0.00  0.00    -0.202 F 
ATOM      3  C   UNL     1      35.293 -24.000 -14.463  0.00  0.00    +0.083 C 
ATOM      4  C   UNL     1      34.365 -23.952 -13.423  0.00  0.00    +0.071 C 
ATOM      5  C   UNL     1      36.657 -23.920 -14.183  0.00  0.00    +0.181 C 
ATOM      6  C   UNL     1      34.801 -23.822 -12.104  0.00  0.00    +0.008 C 
ATOM      7  C   UNL     1      37.093 -23.791 -12.865  0.00  0.00    +0.169 C 
ATOM      8  C   UNL     1      36.165 -23.741 -11.825  0.00  0.00    +0.032 C 
ENDROOT
BRANCH   4  13
ATOM      9  O   UNL     1      32.422 -23.045 -14.458  0.00  0.00    -0.405 OA
ATOM     10  N   UNL     1      30.287 -22.615 -15.215  0.00  0.00    -0.289 N 
ATOM     11  N   UNL     1      32.055 -24.911 -13.280  0.00  0.00    -0.106 NA
ATOM     12  N   UNL     1      30.850 -24.502 -13.820  0.00  0.00    -0.092 NA
ATOM     13  C   UNL     1      32.944 -24.032 -13.679  0.00  0.00    +0.252 A 
ATOM     14  C   UNL     1      31.111 -23.410 -14.499  0.00  0.00    +0.309 A 
ATOM     15  H   UNL     1      30.683 -21.829 -15.658  0.00  0.00    +0.151 HD
BRANCH  10  16
ATOM     16  C   UNL     1      28.851 -22.835 -15.383  0.00  0.00    +0.067 C 
BRANCH  16  17
ATOM     17  C   UNL     1      28.601 -23.644 -16.650  0.00  0.00    -0.064 C 
BRANCH  17  18
ATOM     18  N   UNL     1      27.840 -22.857 -17.613  0.00  0.00    +0.382 N 
ATOM     19  H   UNL     1      26.894 -22.712 -17.262  0.00  0.00    -0.089 HD
ATOM     20  H   UNL     1      27.801 -23.354 -18.503  0.00  0.00    -0.089 HD
ATOM     21  H   UNL     1      28.295 -21.953 -17.749  0.00  0.00    -0.089 HD
ENDBRANCH  17  18
ENDBRANCH  16  17
ENDBRANCH  10  16
ENDBRANCH   4  13
BRANCH   3  22
ATOM     22  N   UNL     1      34.877 -24.130 -15.809  0.00  0.00    -0.309 N 
ATOM     23  H   UNL     1      34.494 -25.012 -16.021  0.00  0.00    +0.152 HD
BRANCH  22  26
ATOM     24  I   UNL     1      35.016 -20.187 -20.684  0.00  0.00    -0.042 I 
ATOM     25  F   UNL     1      32.648 -23.759 -17.429  0.00  0.00    -0.203 F 
ATOM     26  C   UNL     1      34.906 -23.247 -16.901  0.00  0.00    +0.076 C 
ATOM     27  C   UNL     1      33.772 -23.080 -17.697  0.00  0.00    +0.154 C 
ATOM     28  C   UNL     1      36.071 -22.535 -17.189  0.00  0.00    +0.017 C 
ATOM     29  C   UNL     1      33.804 -22.203 -18.781  0.00  0.00    +0.037 C 
ATOM     30  C   UNL     1      36.102 -21.658 -18.274  0.00  0.00    +0.007 C 
ATOM     31  C   UNL     1      34.968 -21.492 -19.070  0.00  0.00    +0.032 C 
ENDBRANCH  22  26
ENDBRANCH   3  22
TORSDOF 6
ENDMDL
MODEL 5
REMARK VINA RESULT:      -8.8      3.610      6.651
REMARK  Name = 25023709
REMARK  6 active torsions:
REMARK  status: ('A' for Active; 'I' for Inactive)
REMARK    1  A    between atoms: C_3  and  N_22
REMARK    2  A    between atoms: C_4  and  C_13
REMARK    3  A    between atoms: N_10  and  C_16
REMARK    4  A    between atoms: C_16  and  C_17
REMARK    5  A    between atoms: C_17  and  N_18
REMARK    6  A    between atoms: N_22  and  C_26
REMARK                            x       y       z     vdW  Elec       q    Type
REMARK                         _______ _______ _______ _____ _____    ______ ____
ROOT
ATOM      1  F   UNL     1      37.254 -21.965 -18.285  0.00  0.00    -0.200 F 
ATOM      2  F   UNL     1      38.292 -22.452 -15.814  0.00  0.00    -0.202 F 
ATOM      3  C   UNL     1      35.071 -22.486 -17.505  0.00  0.00    +0.083 C 
ATOM      4  C   UNL     1      34.236 -22.878 -16.459  0.00  0.00    +0.071 C 
ATOM      5  C   UNL     1      36.441 -22.342 -17.287  0.00  0.00    +0.181 C 
ATOM      6  C   UNL     1      34.771 -23.126 -15.195  0.00  0.00    +0.008 C 
ATOM      7  C   UNL     1      36.976 -22.590 -16.023  0.00  0.00    +0.169 C 
ATOM      8  C   UNL     1      36.141 -22.982 -14.976  0.00  0.00    +0.032 C 
ENDROOT
BRANCH   4  13
ATOM      9  O   UNL     1      32.105 -23.458 -15.569  0.00  0.00    -0.405 OA
ATOM     10  N   UNL     1      29.866 -23.892 -15.234  0.00  0.00    -0.289 N 
ATOM     11  N   UNL     1      32.070 -22.837 -17.717  0.00  0.00    -0.106 NA
ATOM     12  N   UNL     1      30.776 -23.141 -17.340  0.00  0.00    -0.092 NA
ATOM     13  C   UNL     1      32.811 -23.036 -16.653  0.00  0.00    +0.252 A 
ATOM     14  C   UNL     1      30.844 -23.499 -16.079  0.00  0.00    +0.309 A 
ATOM     15  H   UNL     1      30.124 -24.122 -14.312  0.00  0.00    +0.151 HD
BRANCH  10  16
ATOM     16  C   UNL     1      28.450 -23.999 -15.587  0.00  0.00    +0.067 C 
BRANCH  16  17
ATOM     17  C   UNL     1      27.868 -22.607 -15.801  0.00  0.00    -0.064 C 
BRANCH  17  18
ATOM     18  N   UNL     1      27.584 -22.388 -17.214  0.00  0.00    +0.382 N 
ATOM     19  H   UNL     1      27.507 -21.387 -17.394  0.00  0.00    -0.089 HD
ATOM     20  H   UNL     1      26.706 -22.847 -17.460  0.00  0.00    -0.089 HD
ATOM     21  H   UNL     1      28.339 -22.779 -17.778  0.00  0.00    -0.089 HD
ENDBRANCH  17  18
ENDBRANCH  16  17
ENDBRANCH  10  16
ENDBRANCH   4  13
BRANCH   3  22
ATOM     22  N   UNL     1      34.554 -22.228 -18.796  0.00  0.00    -0.309 N 
ATOM     23  H   UNL     1      34.014 -22.966 -19.161  0.00  0.00    +0.152 HD
BRANCH  22  26
ATOM     24  I   UNL     1      35.045 -17.305 -22.651  0.00  0.00    -0.042 I 
ATOM     25  F   UNL     1      32.319 -20.749 -19.542  0.00  0.00    -0.203 F 
ATOM     26  C   UNL     1      34.661 -21.124 -19.659  0.00  0.00    +0.076 C 
ATOM     27  C   UNL     1      33.523 -20.401 -20.017  0.00  0.00    +0.154 C 
ATOM     28  C   UNL     1      35.910 -20.752 -20.159  0.00  0.00    +0.017 C 
ATOM     29  C   UNL     1      33.633 -19.306 -20.874  0.00  0.00    +0.037 C 
ATOM     30  C   UNL     1      36.019 -19.657 -21.017  0.00  0.00    +0.007 C 
ATOM     31  C   UNL     1      34.881 -18.934 -21.375  0.00  0.00    +0.032 C 
ENDBRANCH  22  26
ENDBRANCH   3  22
TORSDOF 6
ENDMDL
MODEL 6
REMARK VINA RESULT:      -8.5      3.916      6.316
REMARK  Name = 25023709
REMARK  6 active torsions:
REMARK  status: ('A' for Active; 'I' for Inactive)
REMARK    1  A    between atoms: C_3  and  N_22
REMARK    2  A    between atoms: C_4  and  C_13
REMARK    3  A    between atoms: N_10  and  C_16
REMARK    4  A    between atoms: C_16  and  C_17
REMARK    5  A    between atoms: C_17  and  N_18
REMARK    6  A    between atoms: N_22  and  C_26
REMARK                            x       y       z     vdW  Elec       q    Type
REMARK                         _______ _______ _______ _____ _____    ______ ____
ROOT
ATOM      1  F   UNL     1      39.012 -23.667 -15.780  0.00  0.00    -0.200 F 
ATOM      2  F   UNL     1      39.868 -26.098 -14.900  0.00  0.00    -0.202 F 
ATOM      3  C   UNL     1      36.863 -24.050 -14.843  0.00  0.00    +0.083 C 
ATOM      4  C   UNL     1      35.997 -24.884 -14.135  0.00  0.00    +0.071 C 
ATOM      5  C   UNL     1      38.170 -24.461 -15.101  0.00  0.00    +0.181 C 
ATOM      6  C   UNL     1      36.440 -26.128 -13.685  0.00  0.00    +0.008 C 
ATOM      7  C   UNL     1      38.613 -25.705 -14.651  0.00  0.00    +0.169 C 
ATOM      8  C   UNL     1      37.748 -26.538 -13.943  0.00  0.00    +0.032 C 
ENDROOT
BRANCH   4  13
ATOM      9  O   UNL     1      33.815 -24.355 -14.928  0.00  0.00    -0.405 OA
ATOM     10  N   UNL     1      31.597 -23.766 -15.141  0.00  0.00    -0.289 N 
ATOM     11  N   UNL     1      34.046 -24.227 -12.707  0.00  0.00    -0.106 NA
ATOM     12  N   UNL     1      32.741 -23.897 -13.021  0.00  0.00    -0.092 NA
ATOM     13  C   UNL     1      34.636 -24.487 -13.850  0.00  0.00    +0.252 A 
ATOM     14  C   UNL     1      32.652 -23.985 -14.327  0.00  0.00    +0.309 A 
ATOM     15  H   UNL     1      31.735 -23.887 -16.109  0.00  0.00    +0.151 HD
BRANCH  10  16
ATOM     16  C   UNL     1      30.263 -23.365 -14.693  0.00  0.00    +0.067 C 
BRANCH  16  17
ATOM     17  C   UNL     1      29.241 -24.408 -15.127  0.00  0.00    -0.064 C 
BRANCH  17  18
ATOM     18  N   UNL     1      29.476 -25.668 -14.432  0.00  0.00    +0.382 N 
ATOM     19  H   UNL     1      30.311 -26.115 -14.810  0.00  0.00    -0.089 HD
ATOM     20  H   UNL     1      28.672 -26.283 -14.563  0.00  0.00    -0.089 HD
ATOM     21  H   UNL     1      29.606 -25.489 -13.437  0.00  0.00    -0.089 HD
ENDBRANCH  17  18
ENDBRANCH  16  17
ENDBRANCH  10  16
ENDBRANCH   4  13
BRANCH   3  22
ATOM     22  N   UNL     1      36.439 -22.783 -15.309  0.00  0.00    -0.309 N 
ATOM     23  H   UNL     1      36.322 -22.117 -14.594  0.00  0.00    +0.152 HD
BRANCH  22  26
ATOM     24  I   UNL     1      35.150 -20.592 -21.043  0.00  0.00    -0.042 I 
ATOM     25  F   UNL     1      38.142 -20.993 -16.588  0.00  0.00    -0.203 F 
ATOM     26  C   UNL     1      36.153 -22.292 -16.594  0.00  0.00    +0.076 C 
ATOM     27  C   UNL     1      37.025 -21.394 -17.211  0.00  0.00    +0.154 C 
ATOM     28  C   UNL     1      34.993 -22.702 -17.253  0.00  0.00    +0.017 C 
ATOM     29  C   UNL     1      36.737 -20.908 -18.486  0.00  0.00    +0.037 C 
ATOM     30  C   UNL     1      34.706 -22.215 -18.528  0.00  0.00    +0.007 C 
ATOM     31  C   UNL     1      35.578 -21.317 -19.145  0.00  0.00    +0.032 C 
ENDBRANCH  22  26
ENDBRANCH   3  22
TORSDOF 6
ENDMDL
MODEL 7
REMARK VINA RESULT:      -8.5     11.714     15.100
REMARK  Name = 25023709
REMARK  6 active torsions:
REMARK  status: ('A' for Active; 'I' for Inactive)
REMARK    1  A    between atoms: C_3  and  N_22
REMARK    2  A    between atoms: C_4  and  C_13
REMARK    3  A    between atoms: N_10  and  C_16
REMARK    4  A    between atoms: C_16  and  C_17
REMARK    5  A    between atoms: C_17  and  N_18
REMARK    6  A    between atoms: N_22  and  C_26
REMARK                            x       y       z     vdW  Elec       q    Type
REMARK                         _______ _______ _______ _____ _____    ______ ____
ROOT
ATOM      1  F   UNL     1      31.908  -8.271 -21.017  0.00  0.00    -0.200 F 
ATOM      2  F   UNL     1      31.020  -9.531 -18.771  0.00  0.00    -0.202 F 
ATOM      3  C   UNL     1      32.363 -10.362 -22.048  0.00  0.00    +0.083 C 
ATOM      4  C   UNL     1      32.360 -11.756 -21.980  0.00  0.00    +0.071 C 
ATOM      5  C   UNL     1      31.910  -9.611 -20.963  0.00  0.00    +0.181 C 
ATOM      6  C   UNL     1      31.904 -12.397 -20.829  0.00  0.00    +0.008 C 
ATOM      7  C   UNL     1      31.454 -10.253 -19.812  0.00  0.00    +0.169 C 
ATOM      8  C   UNL     1      31.450 -11.646 -19.745  0.00  0.00    +0.032 C 
ENDROOT
BRANCH   4  13
ATOM      9  O   UNL     1      33.021 -13.883 -22.822  0.00  0.00    -0.405 OA
ATOM     10  N   UNL     1      33.730 -15.650 -24.122  0.00  0.00    -0.289 N 
ATOM     11  N   UNL     1      33.088 -12.232 -24.330  0.00  0.00    -0.106 NA
ATOM     12  N   UNL     1      33.493 -13.397 -24.954  0.00  0.00    -0.092 NA
ATOM     13  C   UNL     1      32.822 -12.563 -23.088  0.00  0.00    +0.252 A 
ATOM     14  C   UNL     1      33.438 -14.334 -24.037  0.00  0.00    +0.309 A 
ATOM     15  H   UNL     1      33.623 -16.194 -23.308  0.00  0.00    +0.151 HD
BRANCH  10  16
ATOM     16  C   UNL     1      34.191 -16.327 -25.334  0.00  0.00    +0.067 C 
BRANCH  16  17
ATOM     17  C   UNL     1      34.562 -17.768 -25.006  0.00  0.00    -0.064 C 
BRANCH  17  18
ATOM     18  N   UNL     1      35.509 -17.808 -23.897  0.00  0.00    +0.382 N 
ATOM     19  H   UNL     1      36.041 -16.938 -23.873  0.00  0.00    -0.089 HD
ATOM     20  H   UNL     1      36.147 -18.595 -24.024  0.00  0.00    -0.089 HD
ATOM     21  H   UNL     1      35.001 -17.922 -23.020  0.00  0.00    -0.089 HD
ENDBRANCH  17  18
ENDBRANCH  16  17
ENDBRANCH  10  16
ENDBRANCH   4  13
BRANCH   3  22
ATOM     22  N   UNL     1      32.819  -9.687 -23.204  0.00  0.00    -0.309 N 
ATOM     23  H   UNL     1      33.408 -10.232 -23.774  0.00  0.00    +0.152 HD
BRANCH  22  26
ATOM     24  I   UNL     1      31.813  -3.898 -25.399  0.00  0.00    -0.042 I 
ATOM     25  F   UNL     1      34.920  -7.907 -23.597  0.00  0.00    -0.203 F 
ATOM     26  C   UNL     1      32.596  -8.390 -23.697  0.00  0.00    +0.076 C 
ATOM     27  C   UNL     1      33.669  -7.518 -23.884  0.00  0.00    +0.154 C 
ATOM     28  C   UNL     1      31.299  -7.974 -23.998  0.00  0.00    +0.017 C 
ATOM     29  C   UNL     1      33.444  -6.231 -24.372  0.00  0.00    +0.037 C 
ATOM     30  C   UNL     1      31.075  -6.687 -24.486  0.00  0.00    +0.007 C 
ATOM     31  C   UNL     1      32.148  -5.815 -24.673  0.00  0.00    +0.032 C 
ENDBRANCH  22  26
ENDBRANCH   3  22
TORSDOF 6
ENDMDL
MODEL 8
REMARK VINA RESULT:      -8.1      9.046     13.571
REMARK  Name = 25023709
REMARK  6 active torsions:
REMARK  status: ('A' for Active; 'I' for Inactive)
REMARK    1  A    between atoms: C_3  and  N_22
REMARK    2  A    between atoms: C_4  and  C_13
REMARK    3  A    between atoms: N_10  and  C_16
REMARK    4  A    between atoms: C_16  and  C_17
REMARK    5  A    between atoms: C_17  and  N_18
REMARK    6  A    between atoms: N_22  and  C_26
REMARK                            x       y       z     vdW  Elec       q    Type
REMARK                         _______ _______ _______ _____ _____    ______ ____
ROOT
ATOM      1  F   UNL     1      33.075 -11.441 -26.091  0.00  0.00    -0.200 F 
ATOM      2  F   UNL     1      32.405 -13.026 -28.202  0.00  0.00    -0.202 F 
ATOM      3  C   UNL     1      33.626 -13.351 -24.791  0.00  0.00    +0.083 C 
ATOM      4  C   UNL     1      33.729 -14.738 -24.687  0.00  0.00    +0.071 C 
ATOM      5  C   UNL     1      33.178 -12.773 -25.979  0.00  0.00    +0.181 C 
ATOM      6  C   UNL     1      33.385 -15.547 -25.770  0.00  0.00    +0.008 C 
ATOM      7  C   UNL     1      32.834 -13.582 -27.062  0.00  0.00    +0.169 C 
ATOM      8  C   UNL     1      32.938 -14.969 -26.958  0.00  0.00    +0.032 C 
ENDROOT
BRANCH   4  13
ATOM      9  O   UNL     1      34.737 -16.606 -23.608  0.00  0.00    -0.405 OA
ATOM     10  N   UNL     1      35.635 -18.097 -22.097  0.00  0.00    -0.289 N 
ATOM     11  N   UNL     1      34.169 -14.940 -22.228  0.00  0.00    -0.106 NA
ATOM     12  N   UNL     1      34.738 -15.946 -21.471  0.00  0.00    -0.092 NA
ATOM     13  C   UNL     1      34.190 -15.368 -23.469  0.00  0.00    +0.252 A 
ATOM     14  C   UNL     1      35.054 -16.898 -22.317  0.00  0.00    +0.309 A 
ATOM     15  H   UNL     1      35.791 -18.679 -22.876  0.00  0.00    +0.151 HD
BRANCH  10  16
ATOM     16  C   UNL     1      36.052 -18.596 -20.786  0.00  0.00    +0.067 C 
BRANCH  16  17
ATOM     17  C   UNL     1      35.611 -20.046 -20.626  0.00  0.00    -0.064 C 
BRANCH  17  18
ATOM     18  N   UNL     1      36.286 -20.659 -19.488  0.00  0.00    +0.382 N 
ATOM     19  H   UNL     1      35.726 -20.524 -18.647  0.00  0.00    -0.089 HD
ATOM     20  H   UNL     1      37.201 -20.224 -19.362  0.00  0.00    -0.089 HD
ATOM     21  H   UNL     1      36.407 -21.657 -19.661  0.00  0.00    -0.089 HD
ENDBRANCH  17  18
ENDBRANCH  16  17
ENDBRANCH  10  16
ENDBRANCH   4  13
BRANCH   3  22
ATOM     22  N   UNL     1      33.968 -12.508 -23.707  0.00  0.00    -0.309 N 
ATOM     23  H   UNL     1      34.647 -12.893 -23.107  0.00  0.00    +0.152 HD
BRANCH  22  26
ATOM     24  I   UNL     1      32.009  -6.802 -21.994  0.00  0.00    -0.042 I 
ATOM     25  F   UNL     1      31.743 -12.176 -22.072  0.00  0.00    -0.203 F 
ATOM     26  C   UNL     1      33.528 -11.231 -23.322  0.00  0.00    +0.076 C 
ATOM     27  C   UNL     1      32.408 -11.094 -22.501  0.00  0.00    +0.154 C 
ATOM     28  C   UNL     1      34.212 -10.097 -23.762  0.00  0.00    +0.017 C 
ATOM     29  C   UNL     1      31.973  -9.825 -22.120  0.00  0.00    +0.037 C 
ATOM     30  C   UNL     1      33.777  -8.828 -23.381  0.00  0.00    +0.007 C 
ATOM     31  C   UNL     1      32.657  -8.692 -22.560  0.00  0.00    +0.032 C 
ENDBRANCH  22  26
ENDBRANCH   3  22
TORSDOF 6
ENDMDL
MODEL 9
REMARK VINA RESULT:      -7.8      3.590      7.134
REMARK  Name = 25023709
REMARK  6 active torsions:
REMARK  status: ('A' for Active; 'I' for Inactive)
REMARK    1  A    between atoms: C_3  and  N_22
REMARK    2  A    between atoms: C_4  and  C_13
REMARK    3  A    between atoms: N_10  and  C_16
REMARK    4  A    between atoms: C_16  and  C_17
REMARK    5  A    between atoms: C_17  and  N_18
REMARK    6  A    between atoms: N_22  and  C_26
REMARK                            x       y       z     vdW  Elec       q    Type
REMARK                         _______ _______ _______ _____ _____    ______ ____
ROOT
ATOM      1  F   UNL     1      33.169 -22.254 -19.514  0.00  0.00    -0.200 F 
ATOM      2  F   UNL     1      34.789 -20.636 -20.990  0.00  0.00    -0.202 F 
ATOM      3  C   UNL     1      34.862 -22.499 -17.866  0.00  0.00    +0.083 C 
ATOM      4  C   UNL     1      36.148 -22.198 -17.418  0.00  0.00    +0.071 C 
ATOM      5  C   UNL     1      34.404 -21.972 -19.073  0.00  0.00    +0.181 C 
ATOM      6  C   UNL     1      36.975 -21.369 -18.176  0.00  0.00    +0.008 C 
ATOM      7  C   UNL     1      35.230 -21.142 -19.831  0.00  0.00    +0.169 C 
ATOM      8  C   UNL     1      36.516 -20.840 -19.382  0.00  0.00    +0.032 C 
ENDROOT
BRANCH   4  13
ATOM      9  O   UNL     1      36.254 -23.991 -15.855  0.00  0.00    -0.405 OA
ATOM     10  N   UNL     1      36.696 -25.367 -14.059  0.00  0.00    -0.289 N 
ATOM     11  N   UNL     1      37.446 -22.189 -15.275  0.00  0.00    -0.106 NA
ATOM     12  N   UNL     1      37.600 -23.141 -14.284  0.00  0.00    -0.092 NA
ATOM     13  C   UNL     1      36.653 -22.729 -16.171  0.00  0.00    +0.252 A 
ATOM     14  C   UNL     1      36.887 -24.175 -14.664  0.00  0.00    +0.309 A 
ATOM     15  H   UNL     1      36.116 -26.021 -14.512  0.00  0.00    +0.151 HD
BRANCH  10  16
ATOM     16  C   UNL     1      37.288 -25.760 -12.779  0.00  0.00    +0.067 C 
BRANCH  16  17
ATOM     17  C   UNL     1      36.566 -25.048 -11.641  0.00  0.00    -0.064 C 
BRANCH  17  18
ATOM     18  N   UNL     1      37.330 -23.886 -11.204  0.00  0.00    +0.382 N 
ATOM     19  H   UNL     1      36.890 -23.481 -10.378  0.00  0.00    -0.089 HD
ATOM     20  H   UNL     1      37.353 -23.193 -11.953  0.00  0.00    -0.089 HD
ATOM     21  H   UNL     1      38.283 -24.171 -10.978  0.00  0.00    -0.089 HD
ENDBRANCH  17  18
ENDBRANCH  16  17
ENDBRANCH  10  16
ENDBRANCH   4  13
BRANCH   3  22
ATOM     22  N   UNL     1      34.004 -23.337 -17.116  0.00  0.00    -0.309 N 
ATOM     23  H   UNL     1      34.374 -24.234 -16.949  0.00  0.00    +0.152 HD
BRANCH  22  26
ATOM     24  I   UNL     1      28.299 -22.452 -14.665  0.00  0.00    -0.042 I 
ATOM     25  F   UNL     1      33.586 -23.411 -14.367  0.00  0.00    -0.203 F 
ATOM     26  C   UNL     1      32.727 -23.138 -16.565  0.00  0.00    +0.076 C 
ATOM     27  C   UNL     1      32.547 -23.181 -15.182  0.00  0.00    +0.154 C 
ATOM     28  C   UNL     1      31.638 -22.899 -17.403  0.00  0.00    +0.017 C 
ATOM     29  C   UNL     1      31.278 -22.984 -14.638  0.00  0.00    +0.037 C 
ATOM     30  C   UNL     1      30.369 -22.702 -16.858  0.00  0.00    +0.007 C 
ATOM     31  C   UNL     1      30.188 -22.745 -15.475  0.00  0.00    +0.032 C 
ENDBRANCH  22  26
ENDBRANCH   3  22
TORSDOF 6
ENDMDL
