MODEL 1
REMARK VINA RESULT:      -8.8      0.000      0.000
REMARK  Name = 448403
REMARK  4 active torsions:
REMARK  status: ('A' for Active; 'I' for Inactive)
REMARK    1  A    between atoms: N_1  and  C_12
REMARK    2  A    between atoms: C_11  and  O_17
REMARK    3  A    between atoms: C_13  and  O_19
REMARK    4  A    between atoms: C_14  and  C_16
REMARK                            x       y       z     vdW  Elec       q    Type
REMARK                         _______ _______ _______ _____ _____    ______ ____
ROOT
ATOM      1  N   UNL     1      34.256 -19.399 -20.947  0.00  0.00    -0.247 N 
ATOM      2  N   UNL     1      32.710 -20.856 -20.263  0.00  0.00    -0.242 NA
ATOM      3  N   UNL     1      36.212 -20.322 -19.840  0.00  0.00    -0.228 NA
ATOM      4  N   UNL     1      35.646 -22.315 -18.550  0.00  0.00    -0.229 NA
ATOM      5  C   UNL     1      34.908 -20.302 -20.153  0.00  0.00    +0.152 C 
ATOM      6  C   UNL     1      32.938 -19.775 -20.981  0.00  0.00    +0.223 C 
ATOM      7  C   UNL     1      33.933 -21.196 -19.742  0.00  0.00    +0.140 C 
ATOM      8  C   UNL     1      34.342 -22.233 -18.909  0.00  0.00    +0.143 C 
ATOM      9  C   UNL     1      36.488 -21.368 -19.031  0.00  0.00    +0.253 C 
ATOM     10  N   UNL     1      33.420 -23.186 -18.444  0.00  0.00    -0.342 N 
ATOM     11  H   UNL     1      33.720 -23.916 -17.855  0.00  0.00    +0.144 HD
ATOM     12  H   UNL     1      32.472 -23.124 -18.707  0.00  0.00    +0.144 HD
ENDROOT
BRANCH   1  15
ATOM     13  O   UNL     1      34.683 -17.068 -20.822  0.00  0.00    -0.333 OA
ATOM     14  C   UNL     1      34.195 -17.932 -22.973  0.00  0.00    +0.187 C 
ATOM     15  C   UNL     1      34.841 -18.249 -21.632  0.00  0.00    +0.225 C 
ATOM     16  C   UNL     1      34.507 -16.455 -23.115  0.00  0.00    +0.171 C 
ATOM     17  C   UNL     1      34.360 -15.953 -21.682  0.00  0.00    +0.182 C 
BRANCH  17  19
ATOM     18  F   UNL     1      32.351 -16.438 -20.597  0.00  0.00    -0.232 F 
ATOM     19  C   UNL     1      32.946 -15.489 -21.358  0.00  0.00    +0.225 C 
ENDBRANCH  17  19
BRANCH  14  20
ATOM     20  O   UNL     1      34.738 -18.715 -24.017  0.00  0.00    -0.378 OA
ATOM     21  H   UNL     1      35.210 -18.140 -24.639  0.00  0.00    +0.211 HD
ENDBRANCH  14  20
BRANCH  16  22
ATOM     22  O   UNL     1      35.866 -16.293 -23.523  0.00  0.00    -0.379 OA
ATOM     23  H   UNL     1      35.954 -15.474 -24.034  0.00  0.00    +0.211 HD
ENDBRANCH  16  22
ENDBRANCH   1  15
TORSDOF 4
ENDMDL
MODEL 2
REMARK VINA RESULT:      -8.6      7.237      9.617
REMARK  Name = 448403
REMARK  4 active torsions:
REMARK  status: ('A' for Active; 'I' for Inactive)
REMARK    1  A    between atoms: N_1  and  C_12
REMARK    2  A    between atoms: C_11  and  O_17
REMARK    3  A    between atoms: C_13  and  O_19
REMARK    4  A    between atoms: C_14  and  C_16
REMARK                            x       y       z     vdW  Elec       q    Type
REMARK                         _______ _______ _______ _____ _____    ______ ____
ROOT
ATOM      1  N   UNL     1      35.614 -23.238 -14.760  0.00  0.00    -0.247 N 
ATOM      2  N   UNL     1      35.631 -22.859 -16.959  0.00  0.00    -0.242 NA
ATOM      3  N   UNL     1      33.226 -23.523 -14.408  0.00  0.00    -0.228 NA
ATOM      4  N   UNL     1      31.985 -23.281 -16.496  0.00  0.00    -0.229 NA
ATOM      5  C   UNL     1      34.309 -23.291 -15.166  0.00  0.00    +0.152 C 
ATOM      6  C   UNL     1      36.368 -22.975 -15.874  0.00  0.00    +0.223 C 
ATOM      7  C   UNL     1      34.342 -23.055 -16.530  0.00  0.00    +0.140 C 
ATOM      8  C   UNL     1      33.121 -23.055 -17.199  0.00  0.00    +0.143 C 
ATOM      9  C   UNL     1      32.107 -23.498 -15.163  0.00  0.00    +0.253 C 
ATOM     10  N   UNL     1      33.061 -22.825 -18.584  0.00  0.00    -0.342 N 
ATOM     11  H   UNL     1      32.193 -22.827 -19.046  0.00  0.00    +0.144 HD
ATOM     12  H   UNL     1      33.889 -22.661 -19.092  0.00  0.00    +0.144 HD
ENDROOT
BRANCH   1  15
ATOM     13  O   UNL     1      37.546 -23.230 -13.382  0.00  0.00    -0.333 OA
ATOM     14  C   UNL     1      35.871 -24.813 -12.833  0.00  0.00    +0.187 C 
ATOM     15  C   UNL     1      36.119 -23.423 -13.401  0.00  0.00    +0.225 C 
ATOM     16  C   UNL     1      36.978 -24.917 -11.802  0.00  0.00    +0.171 C 
ATOM     17  C   UNL     1      38.137 -24.208 -12.496  0.00  0.00    +0.182 C 
BRANCH  17  19
ATOM     18  F   UNL     1      38.973 -24.729 -14.612  0.00  0.00    -0.232 F 
ATOM     19  C   UNL     1      38.999 -25.150 -13.325  0.00  0.00    +0.225 C 
ENDBRANCH  17  19
BRANCH  14  20
ATOM     20  O   UNL     1      34.580 -24.930 -12.271  0.00  0.00    -0.378 OA
ATOM     21  H   UNL     1      34.630 -25.447 -11.452  0.00  0.00    +0.211 HD
ENDBRANCH  14  20
BRANCH  16  22
ATOM     22  O   UNL     1      36.615 -24.175 -10.637  0.00  0.00    -0.379 OA
ATOM     23  H   UNL     1      35.704 -23.858 -10.727  0.00  0.00    +0.211 HD
ENDBRANCH  16  22
ENDBRANCH   1  15
TORSDOF 4
ENDMDL
MODEL 3
REMARK VINA RESULT:      -8.3      6.752      9.375
REMARK  Name = 448403
REMARK  4 active torsions:
REMARK  status: ('A' for Active; 'I' for Inactive)
REMARK    1  A    between atoms: N_1  and  C_12
REMARK    2  A    between atoms: C_11  and  O_17
REMARK    3  A    between atoms: C_13  and  O_19
REMARK    4  A    between atoms: C_14  and  C_16
REMARK                            x       y       z     vdW  Elec       q    Type
REMARK                         _______ _______ _______ _____ _____    ______ ____
ROOT
ATOM      1  N   UNL     1      36.615 -23.315 -15.753  0.00  0.00    -0.247 N 
ATOM      2  N   UNL     1      37.159 -21.821 -17.320  0.00  0.00    -0.242 NA
ATOM      3  N   UNL     1      34.329 -23.798 -16.419  0.00  0.00    -0.228 NA
ATOM      4  N   UNL     1      33.686 -22.510 -18.389  0.00  0.00    -0.229 NA
ATOM      5  C   UNL     1      35.509 -23.173 -16.545  0.00  0.00    +0.152 C 
ATOM      6  C   UNL     1      37.579 -22.481 -16.260  0.00  0.00    +0.223 C 
ATOM      7  C   UNL     1      35.868 -22.245 -17.509  0.00  0.00    +0.140 C 
ATOM      8  C   UNL     1      34.902 -21.917 -18.456  0.00  0.00    +0.143 C 
ATOM      9  C   UNL     1      33.478 -23.400 -17.389  0.00  0.00    +0.253 C 
ATOM     10  N   UNL     1      35.180 -20.985 -19.471  0.00  0.00    -0.342 N 
ATOM     11  H   UNL     1      34.490 -20.761 -20.136  0.00  0.00    +0.144 HD
ATOM     12  H   UNL     1      36.066 -20.557 -19.517  0.00  0.00    +0.144 HD
ENDROOT
BRANCH   1  15
ATOM     13  O   UNL     1      37.954 -23.842 -13.866  0.00  0.00    -0.333 OA
ATOM     14  C   UNL     1      36.872 -25.662 -14.927  0.00  0.00    +0.187 C 
ATOM     15  C   UNL     1      36.755 -24.184 -14.587  0.00  0.00    +0.225 C 
ATOM     16  C   UNL     1      37.611 -26.193 -13.714  0.00  0.00    +0.171 C 
ATOM     17  C   UNL     1      38.584 -25.059 -13.405  0.00  0.00    +0.182 C 
BRANCH  17  19
ATOM     18  F   UNL     1      40.562 -26.283 -13.598  0.00  0.00    -0.232 F 
ATOM     19  C   UNL     1      39.919 -25.212 -14.121  0.00  0.00    +0.225 C 
ENDBRANCH  17  19
BRANCH  14  20
ATOM     20  O   UNL     1      35.606 -26.263 -15.110  0.00  0.00    -0.378 OA
ATOM     21  H   UNL     1      35.715 -27.222 -15.205  0.00  0.00    +0.211 HD
ENDBRANCH  14  20
BRANCH  16  22
ATOM     22  O   UNL     1      36.699 -26.327 -12.623  0.00  0.00    -0.379 OA
ATOM     23  H   UNL     1      36.298 -27.210 -12.643  0.00  0.00    +0.211 HD
ENDBRANCH  16  22
ENDBRANCH   1  15
TORSDOF 4
ENDMDL
MODEL 4
REMARK VINA RESULT:      -8.2      6.620      8.980
REMARK  Name = 448403
REMARK  4 active torsions:
REMARK  status: ('A' for Active; 'I' for Inactive)
REMARK    1  A    between atoms: N_1  and  C_12
REMARK    2  A    between atoms: C_11  and  O_17
REMARK    3  A    between atoms: C_13  and  O_19
REMARK    4  A    between atoms: C_14  and  C_16
REMARK                            x       y       z     vdW  Elec       q    Type
REMARK                         _______ _______ _______ _____ _____    ______ ____
ROOT
ATOM      1  N   UNL     1      34.844 -24.059 -15.460  0.00  0.00    -0.247 N 
ATOM      2  N   UNL     1      32.783 -23.953 -14.612  0.00  0.00    -0.242 NA
ATOM      3  N   UNL     1      34.438 -23.100 -17.656  0.00  0.00    -0.228 NA
ATOM      4  N   UNL     1      32.093 -22.484 -17.936  0.00  0.00    -0.229 NA
ATOM      5  C   UNL     1      34.060 -23.504 -16.434  0.00  0.00    +0.152 C 
ATOM      6  C   UNL     1      34.031 -24.311 -14.387  0.00  0.00    +0.223 C 
ATOM      7  C   UNL     1      32.788 -23.447 -15.887  0.00  0.00    +0.140 C 
ATOM      8  C   UNL     1      31.783 -22.913 -16.688  0.00  0.00    +0.143 C 
ATOM      9  C   UNL     1      33.382 -22.603 -18.336  0.00  0.00    +0.253 C 
ATOM     10  N   UNL     1      30.464 -22.815 -16.215  0.00  0.00    -0.342 N 
ATOM     11  H   UNL     1      29.761 -22.435 -16.789  0.00  0.00    +0.144 HD
ATOM     12  H   UNL     1      30.242 -23.126 -15.306  0.00  0.00    +0.144 HD
ENDROOT
BRANCH   1  15
ATOM     13  O   UNL     1      36.510 -25.746 -15.362  0.00  0.00    -0.333 OA
ATOM     14  C   UNL     1      37.103 -23.633 -14.473  0.00  0.00    +0.187 C 
ATOM     15  C   UNL     1      36.277 -24.336 -15.539  0.00  0.00    +0.225 C 
ATOM     16  C   UNL     1      38.314 -24.541 -14.383  0.00  0.00    +0.171 C 
ATOM     17  C   UNL     1      37.696 -25.925 -14.554  0.00  0.00    +0.182 C 
BRANCH  17  19
ATOM     18  F   UNL     1      38.060 -26.036 -12.251  0.00  0.00    -0.232 F 
ATOM     19  C   UNL     1      37.285 -26.559 -13.232  0.00  0.00    +0.225 C 
ENDBRANCH  17  19
BRANCH  14  20
ATOM     20  O   UNL     1      37.431 -22.310 -14.847  0.00  0.00    -0.378 OA
ATOM     21  H   UNL     1      37.561 -21.772 -14.050  0.00  0.00    +0.211 HD
ENDBRANCH  14  20
BRANCH  16  22
ATOM     22  O   UNL     1      39.183 -24.285 -15.486  0.00  0.00    -0.379 OA
ATOM     23  H   UNL     1      40.090 -24.165 -15.163  0.00  0.00    +0.211 HD
ENDBRANCH  16  22
ENDBRANCH   1  15
TORSDOF 4
ENDMDL
MODEL 5
REMARK VINA RESULT:      -8.1      6.527      8.522
REMARK  Name = 448403
REMARK  4 active torsions:
REMARK  status: ('A' for Active; 'I' for Inactive)
REMARK    1  A    between atoms: N_1  and  C_12
REMARK    2  A    between atoms: C_11  and  O_17
REMARK    3  A    between atoms: C_13  and  O_19
REMARK    4  A    between atoms: C_14  and  C_16
REMARK                            x       y       z     vdW  Elec       q    Type
REMARK                         _______ _______ _______ _____ _____    ______ ____
ROOT
ATOM      1  N   UNL     1      34.063 -24.089 -14.608  0.00  0.00    -0.247 N 
ATOM      2  N   UNL     1      31.856 -23.802 -14.444  0.00  0.00    -0.242 NA
ATOM      3  N   UNL     1      34.408 -23.344 -16.895  0.00  0.00    -0.228 NA
ATOM      4  N   UNL     1      32.308 -22.654 -17.931  0.00  0.00    -0.229 NA
ATOM      5  C   UNL     1      33.651 -23.603 -15.818  0.00  0.00    +0.152 C 
ATOM      6  C   UNL     1      32.947 -24.192 -13.818  0.00  0.00    +0.223 C 
ATOM      7  C   UNL     1      32.282 -23.431 -15.694  0.00  0.00    +0.140 C 
ATOM      8  C   UNL     1      31.607 -22.937 -16.807  0.00  0.00    +0.143 C 
ATOM      9  C   UNL     1      33.646 -22.872 -17.906  0.00  0.00    +0.253 C 
ATOM     10  N   UNL     1      30.217 -22.730 -16.770  0.00  0.00    -0.342 N 
ATOM     11  H   UNL     1      29.750 -22.380 -17.562  0.00  0.00    +0.144 HD
ATOM     12  H   UNL     1      29.710 -22.936 -15.950  0.00  0.00    +0.144 HD
ENDROOT
BRANCH   1  15
ATOM     13  O   UNL     1      36.240 -23.249 -14.178  0.00  0.00    -0.333 OA
ATOM     14  C   UNL     1      36.121 -25.390 -15.184  0.00  0.00    +0.187 C 
ATOM     15  C   UNL     1      35.428 -24.438 -14.221  0.00  0.00    +0.225 C 
ATOM     16  C   UNL     1      37.580 -25.068 -14.928  0.00  0.00    +0.171 C 
ATOM     17  C   UNL     1      37.547 -23.558 -14.714  0.00  0.00    +0.182 C 
BRANCH  17  19
ATOM     18  F   UNL     1      36.988 -21.645 -15.930  0.00  0.00    -0.232 F 
ATOM     19  C   UNL     1      37.736 -22.772 -16.005  0.00  0.00    +0.225 C 
ENDBRANCH  17  19
BRANCH  14  20
ATOM     20  O   UNL     1      35.797 -26.739 -14.916  0.00  0.00    -0.378 OA
ATOM     21  H   UNL     1      36.289 -27.040 -14.136  0.00  0.00    +0.211 HD
ENDBRANCH  14  20
BRANCH  16  22
ATOM     22  O   UNL     1      38.000 -25.696 -13.716  0.00  0.00    -0.379 OA
ATOM     23  H   UNL     1      38.417 -26.547 -13.920  0.00  0.00    +0.211 HD
ENDBRANCH  16  22
ENDBRANCH   1  15
TORSDOF 4
ENDMDL
MODEL 6
REMARK VINA RESULT:      -8.1      7.131      8.674
REMARK  Name = 448403
REMARK  4 active torsions:
REMARK  status: ('A' for Active; 'I' for Inactive)
REMARK    1  A    between atoms: N_1  and  C_12
REMARK    2  A    between atoms: C_11  and  O_17
REMARK    3  A    between atoms: C_13  and  O_19
REMARK    4  A    between atoms: C_14  and  C_16
REMARK                            x       y       z     vdW  Elec       q    Type
REMARK                         _______ _______ _______ _____ _____    ______ ____
ROOT
ATOM      1  N   UNL     1      33.695 -23.678 -15.368  0.00  0.00    -0.247 N 
ATOM      2  N   UNL     1      34.948 -22.979 -17.078  0.00  0.00    -0.242 NA
ATOM      3  N   UNL     1      35.376 -23.716 -13.613  0.00  0.00    -0.228 NA
ATOM      4  N   UNL     1      37.556 -23.014 -14.455  0.00  0.00    -0.229 NA
ATOM      5  C   UNL     1      34.958 -23.509 -14.871  0.00  0.00    +0.152 C 
ATOM      6  C   UNL     1      33.741 -23.347 -16.698  0.00  0.00    +0.223 C 
ATOM      7  C   UNL     1      35.717 -23.075 -15.946  0.00  0.00    +0.140 C 
ATOM      8  C   UNL     1      37.065 -22.825 -15.704  0.00  0.00    +0.143 C 
ATOM      9  C   UNL     1      36.694 -23.442 -13.502  0.00  0.00    +0.253 C 
ATOM     10  N   UNL     1      37.909 -22.380 -16.736  0.00  0.00    -0.342 N 
ATOM     11  H   UNL     1      38.860 -22.206 -16.554  0.00  0.00    +0.144 HD
ATOM     12  H   UNL     1      37.548 -22.243 -17.643  0.00  0.00    +0.144 HD
ENDROOT
BRANCH   1  15
ATOM     13  O   UNL     1      31.514 -24.594 -15.556  0.00  0.00    -0.333 OA
ATOM     14  C   UNL     1      31.850 -23.036 -13.805  0.00  0.00    +0.187 C 
ATOM     15  C   UNL     1      32.515 -24.126 -14.632  0.00  0.00    +0.225 C 
ATOM     16  C   UNL     1      30.429 -23.554 -13.711  0.00  0.00    +0.171 C 
ATOM     17  C   UNL     1      30.214 -24.165 -15.093  0.00  0.00    +0.182 C 
BRANCH  17  19
ATOM     18  F   UNL     1      29.035 -22.176 -15.416  0.00  0.00    -0.232 F 
ATOM     19  C   UNL     1      29.647 -23.173 -16.099  0.00  0.00    +0.225 C 
ENDBRANCH  17  19
BRANCH  14  20
ATOM     20  O   UNL     1      32.467 -22.882 -12.542  0.00  0.00    -0.378 OA
ATOM     21  H   UNL     1      32.626 -21.940 -12.373  0.00  0.00    +0.211 HD
ENDBRANCH  14  20
BRANCH  16  22
ATOM     22  O   UNL     1      30.364 -24.591 -12.733  0.00  0.00    -0.379 OA
ATOM     23  H   UNL     1      30.740 -25.406 -13.100  0.00  0.00    +0.211 HD
ENDBRANCH  16  22
ENDBRANCH   1  15
TORSDOF 4
ENDMDL
MODEL 7
REMARK VINA RESULT:      -8.0      6.463      9.046
REMARK  Name = 448403
REMARK  4 active torsions:
REMARK  status: ('A' for Active; 'I' for Inactive)
REMARK    1  A    between atoms: N_1  and  C_12
REMARK    2  A    between atoms: C_11  and  O_17
REMARK    3  A    between atoms: C_13  and  O_19
REMARK    4  A    between atoms: C_14  and  C_16
REMARK                            x       y       z     vdW  Elec       q    Type
REMARK                         _______ _______ _______ _____ _____    ______ ____
ROOT
ATOM      1  N   UNL     1      35.829 -23.203 -15.192  0.00  0.00    -0.247 N 
ATOM      2  N   UNL     1      33.840 -23.569 -16.136  0.00  0.00    -0.242 NA
ATOM      3  N   UNL     1      36.930 -22.007 -16.998  0.00  0.00    -0.228 NA
ATOM      4  N   UNL     1      35.455 -21.753 -18.925  0.00  0.00    -0.229 NA
ATOM      5  C   UNL     1      35.891 -22.647 -16.440  0.00  0.00    +0.152 C 
ATOM      6  C   UNL     1      34.577 -23.745 -15.058  0.00  0.00    +0.223 C 
ATOM      7  C   UNL     1      34.650 -22.883 -17.006  0.00  0.00    +0.140 C 
ATOM      8  C   UNL     1      34.448 -22.409 -18.299  0.00  0.00    +0.143 C 
ATOM      9  C   UNL     1      36.617 -21.596 -18.245  0.00  0.00    +0.253 C 
ATOM     10  N   UNL     1      33.218 -22.604 -18.951  0.00  0.00    -0.342 N 
ATOM     11  H   UNL     1      33.086 -22.264 -19.865  0.00  0.00    +0.144 HD
ATOM     12  H   UNL     1      32.487 -23.080 -18.492  0.00  0.00    +0.144 HD
ENDROOT
BRANCH   1  15
ATOM     13  O   UNL     1      38.053 -23.883 -14.719  0.00  0.00    -0.333 OA
ATOM     14  C   UNL     1      36.521 -23.975 -12.915  0.00  0.00    +0.187 C 
ATOM     15  C   UNL     1      36.888 -23.224 -14.186  0.00  0.00    +0.225 C 
ATOM     16  C   UNL     1      37.888 -24.375 -12.396  0.00  0.00    +0.171 C 
ATOM     17  C   UNL     1      38.642 -24.701 -13.682  0.00  0.00    +0.182 C 
BRANCH  17  19
ATOM     18  F   UNL     1      37.750 -26.227 -15.208  0.00  0.00    -0.232 F 
ATOM     19  C   UNL     1      38.514 -26.162 -14.091  0.00  0.00    +0.225 C 
ENDBRANCH  17  19
BRANCH  14  20
ATOM     20  O   UNL     1      35.803 -23.161 -12.010  0.00  0.00    -0.378 OA
ATOM     21  H   UNL     1      35.501 -22.360 -12.467  0.00  0.00    +0.211 HD
ENDBRANCH  14  20
BRANCH  16  22
ATOM     22  O   UNL     1      38.508 -23.251 -11.771  0.00  0.00    -0.379 OA
ATOM     23  H   UNL     1      38.561 -22.518 -12.404  0.00  0.00    +0.211 HD
ENDBRANCH  16  22
ENDBRANCH   1  15
TORSDOF 4
ENDMDL
MODEL 8
REMARK VINA RESULT:      -8.0      8.388     10.090
REMARK  Name = 448403
REMARK  4 active torsions:
REMARK  status: ('A' for Active; 'I' for Inactive)
REMARK    1  A    between atoms: N_1  and  C_12
REMARK    2  A    between atoms: C_11  and  O_17
REMARK    3  A    between atoms: C_13  and  O_19
REMARK    4  A    between atoms: C_14  and  C_16
REMARK                            x       y       z     vdW  Elec       q    Type
REMARK                         _______ _______ _______ _____ _____    ______ ____
ROOT
ATOM      1  N   UNL     1      34.086 -24.295 -14.247  0.00  0.00    -0.247 N 
ATOM      2  N   UNL     1      33.520 -23.087 -16.036  0.00  0.00    -0.242 NA
ATOM      3  N   UNL     1      31.875 -24.876 -13.423  0.00  0.00    -0.228 NA
ATOM      4  N   UNL     1      30.124 -23.934 -14.838  0.00  0.00    -0.229 NA
ATOM      5  C   UNL     1      32.719 -24.285 -14.282  0.00  0.00    +0.152 C 
ATOM      6  C   UNL     1      34.519 -23.562 -15.321  0.00  0.00    +0.223 C 
ATOM      7  C   UNL     1      32.389 -23.533 -15.398  0.00  0.00    +0.140 C 
ATOM      8  C   UNL     1      31.034 -23.365 -15.665  0.00  0.00    +0.143 C 
ATOM      9  C   UNL     1      30.595 -24.644 -13.783  0.00  0.00    +0.253 C 
ATOM     10  N   UNL     1      30.608 -22.618 -16.777  0.00  0.00    -0.342 N 
ATOM     11  H   UNL     1      29.647 -22.506 -16.956  0.00  0.00    +0.144 HD
ATOM     12  H   UNL     1      31.273 -22.206 -17.377  0.00  0.00    +0.144 HD
ENDROOT
BRANCH   1  15
ATOM     13  O   UNL     1      35.072 -24.117 -12.096  0.00  0.00    -0.333 OA
ATOM     14  C   UNL     1      36.347 -25.242 -13.745  0.00  0.00    +0.187 C 
ATOM     15  C   UNL     1      34.934 -24.957 -13.258  0.00  0.00    +0.225 C 
ATOM     16  C   UNL     1      37.111 -25.298 -12.436  0.00  0.00    +0.171 C 
ATOM     17  C   UNL     1      36.434 -24.203 -11.618  0.00  0.00    +0.182 C 
BRANCH  17  19
ATOM     18  F   UNL     1      38.431 -22.995 -11.659  0.00  0.00    -0.232 F 
ATOM     19  C   UNL     1      37.091 -22.841 -11.792  0.00  0.00    +0.225 C 
ENDBRANCH  17  19
BRANCH  14  20
ATOM     20  O   UNL     1      36.418 -26.447 -14.479  0.00  0.00    -0.378 OA
ATOM     21  H   UNL     1      36.114 -26.291 -15.387  0.00  0.00    +0.211 HD
ENDBRANCH  14  20
BRANCH  16  22
ATOM     22  O   UNL     1      36.878 -26.557 -11.803  0.00  0.00    -0.379 OA
ATOM     23  H   UNL     1      36.972 -26.459 -10.843  0.00  0.00    +0.211 HD
ENDBRANCH  16  22
ENDBRANCH   1  15
TORSDOF 4
ENDMDL
MODEL 9
REMARK VINA RESULT:      -7.9      0.957      2.040
REMARK  Name = 448403
REMARK  4 active torsions:
REMARK  status: ('A' for Active; 'I' for Inactive)
REMARK    1  A    between atoms: N_1  and  C_12
REMARK    2  A    between atoms: C_11  and  O_17
REMARK    3  A    between atoms: C_13  and  O_19
REMARK    4  A    between atoms: C_14  and  C_16
REMARK                            x       y       z     vdW  Elec       q    Type
REMARK                         _______ _______ _______ _____ _____    ______ ____
ROOT
ATOM      1  N   UNL     1      35.683 -19.035 -20.963  0.00  0.00    -0.247 N 
ATOM      2  N   UNL     1      36.464 -20.739 -19.750  0.00  0.00    -0.242 NA
ATOM      3  N   UNL     1      33.311 -19.565 -20.941  0.00  0.00    -0.228 NA
ATOM      4  N   UNL     1      32.868 -21.603 -19.676  0.00  0.00    -0.229 NA
ATOM      5  C   UNL     1      34.595 -19.790 -20.621  0.00  0.00    +0.152 C 
ATOM      6  C   UNL     1      36.781 -19.648 -20.417  0.00  0.00    +0.223 C 
ATOM      7  C   UNL     1      35.100 -20.838 -19.870  0.00  0.00    +0.140 C 
ATOM      8  C   UNL     1      34.182 -21.768 -19.390  0.00  0.00    +0.143 C 
ATOM      9  C   UNL     1      32.519 -20.528 -20.423  0.00  0.00    +0.253 C 
ATOM     10  N   UNL     1      34.606 -22.863 -18.618  0.00  0.00    -0.342 N 
ATOM     11  H   UNL     1      33.948 -23.514 -18.283  0.00  0.00    +0.144 HD
ATOM     12  H   UNL     1      35.563 -22.978 -18.411  0.00  0.00    +0.144 HD
ENDROOT
BRANCH   1  15
ATOM     13  O   UNL     1      35.257 -16.701 -20.948  0.00  0.00    -0.333 OA
ATOM     14  C   UNL     1      34.750 -17.847 -22.957  0.00  0.00    +0.187 C 
ATOM     15  C   UNL     1      35.687 -17.810 -21.759  0.00  0.00    +0.225 C 
ATOM     16  C   UNL     1      34.479 -16.371 -23.173  0.00  0.00    +0.171 C 
ATOM     17  C   UNL     1      34.410 -15.842 -21.744  0.00  0.00    +0.182 C 
BRANCH  17  19
ATOM     18  F   UNL     1      32.985 -15.129 -20.038  0.00  0.00    -0.232 F 
ATOM     19  C   UNL     1      33.002 -15.881 -21.164  0.00  0.00    +0.225 C 
ENDBRANCH  17  19
BRANCH  14  20
ATOM     20  O   UNL     1      35.350 -18.469 -24.076  0.00  0.00    -0.378 OA
ATOM     21  H   UNL     1      35.328 -19.432 -23.961  0.00  0.00    +0.211 HD
ENDBRANCH  14  20
BRANCH  16  22
ATOM     22  O   UNL     1      35.596 -15.774 -23.832  0.00  0.00    -0.379 OA
ATOM     23  H   UNL     1      36.403 -16.261 -23.608  0.00  0.00    +0.211 HD
ENDBRANCH  16  22
ENDBRANCH   1  15
TORSDOF 4
ENDMDL
