MODEL 1
REMARK VINA RESULT:      -8.3      0.000      0.000
REMARK  Name = 11984575
REMARK  3 active torsions:
REMARK  status: ('A' for Active; 'I' for Inactive)
REMARK    1  A    between atoms: C_3  and  S_17
REMARK    2  A    between atoms: C_5  and  C_14
REMARK    3  A    between atoms: S_17  and  N_20
REMARK                            x       y       z     vdW  Elec       q    Type
REMARK                         _______ _______ _______ _____ _____    ______ ____
ROOT
ATOM      1 BR   UNL     1      33.634 -22.363 -18.731  0.00  0.00    -0.049 Br
ATOM      2  N   UNL     1      33.985 -24.485 -13.118  0.00  0.00    -0.348 N 
ATOM      3  C   UNL     1      35.823 -23.673 -13.918  0.00  0.00    +0.143 A 
ATOM      4  C   UNL     1      34.877 -23.530 -14.925  0.00  0.00    +0.036 A 
ATOM      5  C   UNL     1      35.301 -24.246 -12.824  0.00  0.00    +0.129 A 
ATOM      6  C   UNL     1      33.698 -24.057 -14.395  0.00  0.00    +0.058 A 
ATOM      7  C   UNL     1      34.861 -23.016 -16.238  0.00  0.00    +0.010 C 
ATOM      8  C   UNL     1      32.499 -24.097 -15.113  0.00  0.00    +0.018 C 
ATOM      9  C   UNL     1      33.667 -23.049 -16.968  0.00  0.00    +0.035 C 
ATOM     10  C   UNL     1      32.506 -23.582 -16.413  0.00  0.00    +0.008 C 
ATOM     11  H   UNL     1      33.337 -24.901 -12.505  0.00  0.00    +0.166 HD
ENDROOT
BRANCH   5  14
ATOM     12  O   UNL     1      36.253 -25.740 -11.258  0.00  0.00    -0.269 OA
ATOM     13  N   UNL     1      36.106 -23.547 -10.649  0.00  0.00    -0.324 N 
ATOM     14  C   UNL     1      35.895 -24.581 -11.567  0.00  0.00    +0.260 C 
ATOM     15  H   UNL     1      36.514 -23.742  -9.774  0.00  0.00    +0.145 HD
ATOM     16  H   UNL     1      35.847 -22.626 -10.878  0.00  0.00    +0.145 HD
ENDBRANCH   5  14
BRANCH   3  17
ATOM     17  S   UNL     1      37.509 -23.161 -14.063  0.00  0.00    +0.065 S 
ATOM     18  O   UNL     1      37.621 -22.367 -15.273  0.00  0.00    -0.153 OA
ATOM     19  O   UNL     1      37.910 -22.606 -12.782  0.00  0.00    -0.153 OA
BRANCH  17  20
ATOM     20  N   UNL     1      38.270 -24.662 -14.294  0.00  0.00    -0.155 NA
ATOM     21  C   UNL     1      39.034 -24.876 -15.557  0.00  0.00    +0.096 C 
ATOM     22  C   UNL     1      39.060 -25.220 -13.163  0.00  0.00    +0.096 C 
ATOM     23  C   UNL     1      40.368 -25.466 -15.119  0.00  0.00    +0.021 C 
ATOM     24  C   UNL     1      40.024 -26.187 -13.830  0.00  0.00    +0.021 C 
ENDBRANCH  17  20
ENDBRANCH   3  17
TORSDOF 3
ENDMDL
MODEL 2
REMARK VINA RESULT:      -8.0      2.356      3.536
REMARK  Name = 11984575
REMARK  3 active torsions:
REMARK  status: ('A' for Active; 'I' for Inactive)
REMARK    1  A    between atoms: C_3  and  S_17
REMARK    2  A    between atoms: C_5  and  C_14
REMARK    3  A    between atoms: S_17  and  N_20
REMARK                            x       y       z     vdW  Elec       q    Type
REMARK                         _______ _______ _______ _____ _____    ______ ____
ROOT
ATOM      1 BR   UNL     1      30.209 -24.736 -13.719  0.00  0.00    -0.049 Br
ATOM      2  N   UNL     1      34.905 -22.683 -16.861  0.00  0.00    -0.348 N 
ATOM      3  C   UNL     1      35.340 -23.278 -14.828  0.00  0.00    +0.143 A 
ATOM      4  C   UNL     1      33.981 -23.505 -15.005  0.00  0.00    +0.036 A 
ATOM      5  C   UNL     1      35.910 -22.783 -15.936  0.00  0.00    +0.129 A 
ATOM      6  C   UNL     1      33.716 -23.118 -16.320  0.00  0.00    +0.058 A 
ATOM      7  C   UNL     1      32.921 -23.996 -14.215  0.00  0.00    +0.010 C 
ATOM      8  C   UNL     1      32.440 -23.196 -16.888  0.00  0.00    +0.018 C 
ATOM      9  C   UNL     1      31.639 -24.079 -14.771  0.00  0.00    +0.035 C 
ATOM     10  C   UNL     1      31.405 -23.685 -16.086  0.00  0.00    +0.008 C 
ATOM     11  H   UNL     1      35.017 -22.350 -17.781  0.00  0.00    +0.166 HD
ENDROOT
BRANCH   5  14
ATOM     12  O   UNL     1      37.607 -21.249 -16.533  0.00  0.00    -0.269 OA
ATOM     13  N   UNL     1      38.251 -23.388 -16.073  0.00  0.00    -0.324 N 
ATOM     14  C   UNL     1      37.263 -22.407 -16.206  0.00  0.00    +0.260 C 
ATOM     15  H   UNL     1      39.194 -23.163 -16.251  0.00  0.00    +0.145 HD
ATOM     16  H   UNL     1      38.005 -24.301 -15.802  0.00  0.00    +0.145 HD
ENDBRANCH   5  14
BRANCH   3  17
ATOM     17  S   UNL     1      36.210 -23.602 -13.323  0.00  0.00    +0.065 S 
ATOM     18  O   UNL     1      37.413 -22.789 -13.332  0.00  0.00    -0.153 OA
ATOM     19  O   UNL     1      35.258 -23.490 -12.233  0.00  0.00    -0.153 OA
BRANCH  17  20
ATOM     20  N   UNL     1      36.623 -25.234 -13.549  0.00  0.00    -0.155 NA
ATOM     21  C   UNL     1      35.978 -25.974 -14.672  0.00  0.00    +0.096 C 
ATOM     22  C   UNL     1      38.066 -25.595 -13.512  0.00  0.00    +0.096 C 
ATOM     23  C   UNL     1      37.118 -26.688 -15.384  0.00  0.00    +0.021 C 
ATOM     24  C   UNL     1      38.137 -26.904 -14.281  0.00  0.00    +0.021 C 
ENDBRANCH  17  20
ENDBRANCH   3  17
TORSDOF 3
ENDMDL
MODEL 3
REMARK VINA RESULT:      -8.0      2.388      3.223
REMARK  Name = 11984575
REMARK  3 active torsions:
REMARK  status: ('A' for Active; 'I' for Inactive)
REMARK    1  A    between atoms: C_3  and  S_17
REMARK    2  A    between atoms: C_5  and  C_14
REMARK    3  A    between atoms: S_17  and  N_20
REMARK                            x       y       z     vdW  Elec       q    Type
REMARK                         _______ _______ _______ _____ _____    ______ ____
ROOT
ATOM      1 BR   UNL     1      36.738 -21.351 -19.945  0.00  0.00    -0.049 Br
ATOM      2  N   UNL     1      32.357 -23.247 -16.292  0.00  0.00    -0.348 N 
ATOM      3  C   UNL     1      34.345 -23.264 -15.441  0.00  0.00    +0.143 A 
ATOM      4  C   UNL     1      34.494 -22.789 -16.737  0.00  0.00    +0.036 A 
ATOM      5  C   UNL     1      33.064 -23.544 -15.158  0.00  0.00    +0.129 A 
ATOM      6  C   UNL     1      33.205 -22.783 -17.273  0.00  0.00    +0.058 A 
ATOM      7  C   UNL     1      35.566 -22.356 -17.544  0.00  0.00    +0.010 C 
ATOM      8  C   UNL     1      32.931 -22.365 -18.579  0.00  0.00    +0.018 C 
ATOM      9  C   UNL     1      35.307 -21.934 -18.853  0.00  0.00    +0.035 C 
ATOM     10  C   UNL     1      34.009 -21.939 -19.361  0.00  0.00    +0.008 C 
ATOM     11  H   UNL     1      31.382 -23.349 -16.391  0.00  0.00    +0.166 HD
ENDROOT
BRANCH   5  14
ATOM     12  O   UNL     1      31.871 -23.322 -13.128  0.00  0.00    -0.269 OA
ATOM     13  N   UNL     1      32.503 -25.426 -13.740  0.00  0.00    -0.324 N 
ATOM     14  C   UNL     1      32.456 -24.046 -13.965  0.00  0.00    +0.260 C 
ATOM     15  H   UNL     1      32.095 -25.806 -12.929  0.00  0.00    +0.145 HD
ATOM     16  H   UNL     1      32.944 -26.016 -14.393  0.00  0.00    +0.145 HD
ENDBRANCH   5  14
BRANCH   3  17
ATOM     17  S   UNL     1      35.682 -23.474 -14.303  0.00  0.00    +0.065 S 
ATOM     18  O   UNL     1      36.462 -22.249 -14.317  0.00  0.00    -0.153 OA
ATOM     19  O   UNL     1      35.125 -23.974 -13.059  0.00  0.00    -0.153 OA
BRANCH  17  20
ATOM     20  N   UNL     1      36.553 -24.712 -15.072  0.00  0.00    -0.155 NA
ATOM     21  C   UNL     1      38.019 -24.807 -14.814  0.00  0.00    +0.096 C 
ATOM     22  C   UNL     1      35.978 -26.085 -15.044  0.00  0.00    +0.096 C 
ATOM     23  C   UNL     1      38.273 -26.275 -14.500  0.00  0.00    +0.021 C 
ATOM     24  C   UNL     1      37.178 -26.990 -15.268  0.00  0.00    +0.021 C 
ENDBRANCH  17  20
ENDBRANCH   3  17
TORSDOF 3
ENDMDL
MODEL 4
REMARK VINA RESULT:      -7.7      3.713      6.110
REMARK  Name = 11984575
REMARK  3 active torsions:
REMARK  status: ('A' for Active; 'I' for Inactive)
REMARK    1  A    between atoms: C_3  and  S_17
REMARK    2  A    between atoms: C_5  and  C_14
REMARK    3  A    between atoms: S_17  and  N_20
REMARK                            x       y       z     vdW  Elec       q    Type
REMARK                         _______ _______ _______ _____ _____    ______ ____
ROOT
ATOM      1 BR   UNL     1      29.224 -23.815 -16.575  0.00  0.00    -0.049 Br
ATOM      2  N   UNL     1      34.917 -22.648 -15.038  0.00  0.00    -0.348 N 
ATOM      3  C   UNL     1      34.525 -22.706 -17.164  0.00  0.00    +0.143 A 
ATOM      4  C   UNL     1      33.307 -22.965 -16.549  0.00  0.00    +0.036 A 
ATOM      5  C   UNL     1      35.503 -22.512 -16.268  0.00  0.00    +0.129 A 
ATOM      6  C   UNL     1      33.576 -22.924 -15.179  0.00  0.00    +0.058 A 
ATOM      7  C   UNL     1      31.990 -23.234 -16.974  0.00  0.00    +0.010 C 
ATOM      8  C   UNL     1      32.591 -23.140 -14.210  0.00  0.00    +0.018 C 
ATOM      9  C   UNL     1      30.995 -23.452 -16.015  0.00  0.00    +0.035 C 
ATOM     10  C   UNL     1      31.293 -23.405 -14.654  0.00  0.00    +0.008 C 
ATOM     11  H   UNL     1      35.386 -22.559 -14.177  0.00  0.00    +0.166 HD
ENDROOT
BRANCH   5  14
ATOM     12  O   UNL     1      37.808 -23.033 -16.187  0.00  0.00    -0.269 OA
ATOM     13  N   UNL     1      37.235 -20.965 -16.958  0.00  0.00    -0.324 N 
ATOM     14  C   UNL     1      36.892 -22.221 -16.445  0.00  0.00    +0.260 C 
ATOM     15  H   UNL     1      38.182 -20.731 -17.093  0.00  0.00    +0.145 HD
ATOM     16  H   UNL     1      36.530 -20.317 -17.183  0.00  0.00    +0.145 HD
ENDBRANCH   5  14
BRANCH   3  17
ATOM     17  S   UNL     1      34.755 -22.639 -18.916  0.00  0.00    +0.065 S 
ATOM     18  O   UNL     1      36.184 -22.608 -19.167  0.00  0.00    -0.153 OA
ATOM     19  O   UNL     1      33.928 -23.676 -19.507  0.00  0.00    -0.153 OA
BRANCH  17  20
ATOM     20  N   UNL     1      34.084 -21.117 -19.259  0.00  0.00    -0.155 NA
ATOM     21  C   UNL     1      34.898 -20.152 -20.054  0.00  0.00    +0.096 C 
ATOM     22  C   UNL     1      32.681 -21.072 -19.754  0.00  0.00    +0.096 C 
ATOM     23  C   UNL     1      33.955 -19.628 -21.129  0.00  0.00    +0.021 C 
ATOM     24  C   UNL     1      32.590 -19.739 -20.479  0.00  0.00    +0.021 C 
ENDBRANCH  17  20
ENDBRANCH   3  17
TORSDOF 3
ENDMDL
MODEL 5
REMARK VINA RESULT:      -7.6      9.941     12.196
REMARK  Name = 11984575
REMARK  3 active torsions:
REMARK  status: ('A' for Active; 'I' for Inactive)
REMARK    1  A    between atoms: C_3  and  S_17
REMARK    2  A    between atoms: C_5  and  C_14
REMARK    3  A    between atoms: S_17  and  N_20
REMARK                            x       y       z     vdW  Elec       q    Type
REMARK                         _______ _______ _______ _____ _____    ______ ____
ROOT
ATOM      1 BR   UNL     1      32.034 -12.203 -19.649  0.00  0.00    -0.049 Br
ATOM      2  N   UNL     1      33.410 -15.277 -24.628  0.00  0.00    -0.348 N 
ATOM      3  C   UNL     1      34.229 -16.073 -22.791  0.00  0.00    +0.143 A 
ATOM      4  C   UNL     1      33.507 -14.945 -22.424  0.00  0.00    +0.036 A 
ATOM      5  C   UNL     1      34.179 -16.287 -24.114  0.00  0.00    +0.129 A 
ATOM      6  C   UNL     1      32.985 -14.443 -23.618  0.00  0.00    +0.058 A 
ATOM      7  C   UNL     1      33.220 -14.269 -21.221  0.00  0.00    +0.010 C 
ATOM      8  C   UNL     1      32.188 -13.295 -23.670  0.00  0.00    +0.018 C 
ATOM      9  C   UNL     1      32.424 -13.119 -21.258  0.00  0.00    +0.035 C 
ATOM     10  C   UNL     1      31.917 -12.641 -22.465  0.00  0.00    +0.008 C 
ATOM     11  H   UNL     1      33.190 -15.165 -25.581  0.00  0.00    +0.166 HD
ENDROOT
BRANCH   5  14
ATOM     12  O   UNL     1      35.361 -17.091 -25.997  0.00  0.00    -0.269 OA
ATOM     13  N   UNL     1      34.678 -18.631 -24.461  0.00  0.00    -0.324 N 
ATOM     14  C   UNL     1      34.764 -17.313 -24.921  0.00  0.00    +0.260 C 
ATOM     15  H   UNL     1      35.071 -19.363 -24.991  0.00  0.00    +0.145 HD
ATOM     16  H   UNL     1      34.227 -18.827 -23.609  0.00  0.00    +0.145 HD
ENDBRANCH   5  14
BRANCH   3  17
ATOM     17  S   UNL     1      35.105 -17.103 -21.651  0.00  0.00    +0.065 S 
ATOM     18  O   UNL     1      36.370 -17.458 -22.269  0.00  0.00    -0.153 OA
ATOM     19  O   UNL     1      35.080 -16.444 -20.357  0.00  0.00    -0.153 OA
BRANCH  17  20
ATOM     20  N   UNL     1      34.087 -18.462 -21.615  0.00  0.00    -0.155 NA
ATOM     21  C   UNL     1      34.705 -19.798 -21.371  0.00  0.00    +0.096 C 
ATOM     22  C   UNL     1      32.833 -18.368 -20.819  0.00  0.00    +0.096 C 
ATOM     23  C   UNL     1      33.841 -20.445 -20.298  0.00  0.00    +0.021 C 
ATOM     24  C   UNL     1      32.479 -19.816 -20.520  0.00  0.00    +0.021 C 
ENDBRANCH  17  20
ENDBRANCH   3  17
TORSDOF 3
ENDMDL
MODEL 6
REMARK VINA RESULT:      -7.3      1.487      1.776
REMARK  Name = 11984575
REMARK  3 active torsions:
REMARK  status: ('A' for Active; 'I' for Inactive)
REMARK    1  A    between atoms: C_3  and  S_17
REMARK    2  A    between atoms: C_5  and  C_14
REMARK    3  A    between atoms: S_17  and  N_20
REMARK                            x       y       z     vdW  Elec       q    Type
REMARK                         _______ _______ _______ _____ _____    ______ ____
ROOT
ATOM      1 BR   UNL     1      31.068 -22.663 -17.201  0.00  0.00    -0.049 Br
ATOM      2  N   UNL     1      33.936 -24.719 -12.334  0.00  0.00    -0.348 N 
ATOM      3  C   UNL     1      35.198 -23.815 -13.840  0.00  0.00    +0.143 A 
ATOM      4  C   UNL     1      33.902 -23.731 -14.334  0.00  0.00    +0.036 A 
ATOM      5  C   UNL     1      35.234 -24.407 -12.637  0.00  0.00    +0.129 A 
ATOM      6  C   UNL     1      33.101 -24.317 -13.352  0.00  0.00    +0.058 A 
ATOM      7  C   UNL     1      33.290 -23.229 -15.500  0.00  0.00    +0.010 C 
ATOM      8  C   UNL     1      31.712 -24.428 -13.478  0.00  0.00    +0.018 C 
ATOM      9  C   UNL     1      31.901 -23.333 -15.639  0.00  0.00    +0.035 C 
ATOM     10  C   UNL     1      31.126 -23.923 -14.643  0.00  0.00    +0.008 C 
ATOM     11  H   UNL     1      33.642 -25.165 -11.507  0.00  0.00    +0.166 HD
ENDROOT
BRANCH   5  14
ATOM     12  O   UNL     1      36.828 -25.842 -11.641  0.00  0.00    -0.269 OA
ATOM     13  N   UNL     1      36.893 -23.641 -11.047  0.00  0.00    -0.324 N 
ATOM     14  C   UNL     1      36.333 -24.700 -11.770  0.00  0.00    +0.260 C 
ATOM     15  H   UNL     1      37.651 -23.807 -10.440  0.00  0.00    +0.145 HD
ATOM     16  H   UNL     1      36.530 -22.732 -11.145  0.00  0.00    +0.145 HD
ENDBRANCH   5  14
BRANCH   3  17
ATOM     17  S   UNL     1      36.624 -23.214 -14.695  0.00  0.00    +0.065 S 
ATOM     18  O   UNL     1      36.157 -22.402 -15.804  0.00  0.00    -0.153 OA
ATOM     19  O   UNL     1      37.526 -22.654 -13.704  0.00  0.00    -0.153 OA
BRANCH  17  20
ATOM     20  N   UNL     1      37.268 -24.670 -15.287  0.00  0.00    -0.155 NA
ATOM     21  C   UNL     1      38.614 -25.093 -14.803  0.00  0.00    +0.096 C 
ATOM     22  C   UNL     1      36.378 -25.862 -15.311  0.00  0.00    +0.096 C 
ATOM     23  C   UNL     1      38.455 -26.556 -14.414  0.00  0.00    +0.021 C 
ATOM     24  C   UNL     1      37.340 -27.039 -15.323  0.00  0.00    +0.021 C 
ENDBRANCH  17  20
ENDBRANCH   3  17
TORSDOF 3
ENDMDL
MODEL 7
REMARK VINA RESULT:      -7.2      2.934      5.430
REMARK  Name = 11984575
REMARK  3 active torsions:
REMARK  status: ('A' for Active; 'I' for Inactive)
REMARK    1  A    between atoms: C_3  and  S_17
REMARK    2  A    between atoms: C_5  and  C_14
REMARK    3  A    between atoms: S_17  and  N_20
REMARK                            x       y       z     vdW  Elec       q    Type
REMARK                         _______ _______ _______ _____ _____    ______ ____
ROOT
ATOM      1 BR   UNL     1      33.362 -21.772 -19.522  0.00  0.00    -0.049 Br
ATOM      2  N   UNL     1      36.255 -23.410 -14.513  0.00  0.00    -0.348 N 
ATOM      3  C   UNL     1      34.114 -23.719 -14.490  0.00  0.00    +0.143 A 
ATOM      4  C   UNL     1      34.403 -23.172 -15.734  0.00  0.00    +0.036 A 
ATOM      5  C   UNL     1      35.219 -23.869 -13.745  0.00  0.00    +0.129 A 
ATOM      6  C   UNL     1      35.786 -22.979 -15.734  0.00  0.00    +0.058 A 
ATOM      7  C   UNL     1      33.667 -22.808 -16.880  0.00  0.00    +0.010 C 
ATOM      8  C   UNL     1      36.472 -22.438 -16.826  0.00  0.00    +0.018 C 
ATOM      9  C   UNL     1      34.341 -22.265 -17.979  0.00  0.00    +0.035 C 
ATOM     10  C   UNL     1      35.722 -22.084 -17.951  0.00  0.00    +0.008 C 
ATOM     11  H   UNL     1      37.199 -23.393 -14.235  0.00  0.00    +0.166 HD
ENDROOT
BRANCH   5  14
ATOM     12  O   UNL     1      34.845 -23.894 -11.410  0.00  0.00    -0.269 OA
ATOM     13  N   UNL     1      36.207 -25.512 -12.264  0.00  0.00    -0.324 N 
ATOM     14  C   UNL     1      35.394 -24.384 -12.422  0.00  0.00    +0.260 C 
ATOM     15  H   UNL     1      36.349 -25.893 -11.367  0.00  0.00    +0.145 HD
ATOM     16  H   UNL     1      36.636 -25.923 -13.048  0.00  0.00    +0.145 HD
ENDBRANCH   5  14
BRANCH   3  17
ATOM     17  S   UNL     1      32.488 -24.164 -13.957  0.00  0.00    +0.065 S 
ATOM     18  O   UNL     1      32.451 -25.610 -13.834  0.00  0.00    -0.153 OA
ATOM     19  O   UNL     1      32.153 -23.322 -12.823  0.00  0.00    -0.153 OA
BRANCH  17  20
ATOM     20  N   UNL     1      31.577 -23.684 -15.308  0.00  0.00    -0.155 NA
ATOM     21  C   UNL     1      30.788 -24.725 -16.030  0.00  0.00    +0.096 C 
ATOM     22  C   UNL     1      30.741 -22.460 -15.181  0.00  0.00    +0.096 C 
ATOM     23  C   UNL     1      29.403 -24.118 -16.211  0.00  0.00    +0.021 C 
ATOM     24  C   UNL     1      29.679 -22.627 -16.256  0.00  0.00    +0.021 C 
ENDBRANCH  17  20
ENDBRANCH   3  17
TORSDOF 3
ENDMDL
MODEL 8
REMARK VINA RESULT:      -7.2      3.392      5.024
REMARK  Name = 11984575
REMARK  3 active torsions:
REMARK  status: ('A' for Active; 'I' for Inactive)
REMARK    1  A    between atoms: C_3  and  S_17
REMARK    2  A    between atoms: C_5  and  C_14
REMARK    3  A    between atoms: S_17  and  N_20
REMARK                            x       y       z     vdW  Elec       q    Type
REMARK                         _______ _______ _______ _____ _____    ______ ____
ROOT
ATOM      1 BR   UNL     1      37.552 -22.025 -16.977  0.00  0.00    -0.049 Br
ATOM      2  N   UNL     1      31.662 -23.141 -17.430  0.00  0.00    -0.348 N 
ATOM      3  C   UNL     1      32.547 -23.601 -15.511  0.00  0.00    +0.143 A 
ATOM      4  C   UNL     1      33.583 -23.111 -16.296  0.00  0.00    +0.036 A 
ATOM      5  C   UNL     1      31.385 -23.624 -16.180  0.00  0.00    +0.129 A 
ATOM      6  C   UNL     1      32.997 -22.818 -17.529  0.00  0.00    +0.058 A 
ATOM      7  C   UNL     1      34.961 -22.871 -16.126  0.00  0.00    +0.010 C 
ATOM      8  C   UNL     1      33.723 -22.297 -18.606  0.00  0.00    +0.018 C 
ATOM      9  C   UNL     1      35.700 -22.350 -17.194  0.00  0.00    +0.035 C 
ATOM     10  C   UNL     1      35.088 -22.067 -18.414  0.00  0.00    +0.008 C 
ATOM     11  H   UNL     1      31.002 -23.036 -18.154  0.00  0.00    +0.166 HD
ENDROOT
BRANCH   5  14
ATOM     12  O   UNL     1      29.133 -23.251 -15.561  0.00  0.00    -0.269 OA
ATOM     13  N   UNL     1      29.849 -25.415 -15.632  0.00  0.00    -0.324 N 
ATOM     14  C   UNL     1      30.079 -24.043 -15.774  0.00  0.00    +0.260 C 
ATOM     15  H   UNL     1      28.961 -25.739 -15.354  0.00  0.00    +0.145 HD
ATOM     16  H   UNL     1      30.573 -26.057 -15.810  0.00  0.00    +0.145 HD
ENDBRANCH   5  14
BRANCH   3  17
ATOM     17  S   UNL     1      32.739 -24.128 -13.835  0.00  0.00    +0.065 S 
ATOM     18  O   UNL     1      32.188 -23.088 -12.985  0.00  0.00    -0.153 OA
ATOM     19  O   UNL     1      32.242 -25.490 -13.744  0.00  0.00    -0.153 OA
BRANCH  17  20
ATOM     20  N   UNL     1      34.433 -24.133 -13.703  0.00  0.00    -0.155 NA
ATOM     21  C   UNL     1      35.038 -23.761 -12.391  0.00  0.00    +0.096 C 
ATOM     22  C   UNL     1      35.167 -25.308 -14.247  0.00  0.00    +0.096 C 
ATOM     23  C   UNL     1      36.075 -24.841 -12.112  0.00  0.00    +0.021 C 
ATOM     24  C   UNL     1      36.490 -25.292 -13.499  0.00  0.00    +0.021 C 
ENDBRANCH  17  20
ENDBRANCH   3  17
TORSDOF 3
ENDMDL
MODEL 9
REMARK VINA RESULT:      -6.6     15.964     18.045
REMARK  Name = 11984575
REMARK  3 active torsions:
REMARK  status: ('A' for Active; 'I' for Inactive)
REMARK    1  A    between atoms: C_3  and  S_17
REMARK    2  A    between atoms: C_5  and  C_14
REMARK    3  A    between atoms: S_17  and  N_20
REMARK                            x       y       z     vdW  Elec       q    Type
REMARK                         _______ _______ _______ _____ _____    ______ ____
ROOT
ATOM      1 BR   UNL     1      33.288 -14.096 -24.708  0.00  0.00    -0.049 Br
ATOM      2  N   UNL     1      31.715  -9.842 -20.764  0.00  0.00    -0.348 N 
ATOM      3  C   UNL     1      32.976  -9.177 -22.390  0.00  0.00    +0.143 A 
ATOM      4  C   UNL     1      32.774 -10.534 -22.601  0.00  0.00    +0.036 A 
ATOM      5  C   UNL     1      32.345  -8.745 -21.288  0.00  0.00    +0.129 A 
ATOM      6  C   UNL     1      31.959 -10.948 -21.546  0.00  0.00    +0.058 A 
ATOM      7  C   UNL     1      33.177 -11.485 -23.560  0.00  0.00    +0.010 C 
ATOM      8  C   UNL     1      31.526 -12.271 -21.400  0.00  0.00    +0.018 C 
ATOM      9  C   UNL     1      32.752 -12.811 -23.427  0.00  0.00    +0.035 C 
ATOM     10  C   UNL     1      31.939 -13.196 -22.363  0.00  0.00    +0.008 C 
ATOM     11  H   UNL     1      31.165  -9.839 -19.947  0.00  0.00    +0.166 HD
ENDROOT
BRANCH   5  14
ATOM     12  O   UNL     1      31.520  -6.537 -21.108  0.00  0.00    -0.269 OA
ATOM     13  N   UNL     1      33.085  -7.191 -19.584  0.00  0.00    -0.324 N 
ATOM     14  C   UNL     1      32.276  -7.445 -20.697  0.00  0.00    +0.260 C 
ATOM     15  H   UNL     1      33.062  -6.306 -19.152  0.00  0.00    +0.145 HD
ATOM     16  H   UNL     1      33.675  -7.896 -19.234  0.00  0.00    +0.145 HD
ENDBRANCH   5  14
BRANCH   3  17
ATOM     17  S   UNL     1      33.948  -8.144 -23.447  0.00  0.00    +0.065 S 
ATOM     18  O   UNL     1      34.605  -7.158 -22.608  0.00  0.00    -0.153 OA
ATOM     19  O   UNL     1      34.731  -9.012 -24.308  0.00  0.00    -0.153 OA
BRANCH  17  20
ATOM     20  N   UNL     1      32.726  -7.395 -24.358  0.00  0.00    -0.155 NA
ATOM     21  C   UNL     1      31.331  -7.905 -24.218  0.00  0.00    +0.096 C 
ATOM     22  C   UNL     1      32.686  -5.907 -24.373  0.00  0.00    +0.096 C 
ATOM     23  C   UNL     1      30.473  -6.664 -24.019  0.00  0.00    +0.021 C 
ATOM     24  C   UNL     1      31.249  -5.583 -24.745  0.00  0.00    +0.021 C 
ENDBRANCH  17  20
ENDBRANCH   3  17
TORSDOF 3
ENDMDL
