MODEL 1
REMARK VINA RESULT:      -8.0      0.000      0.000
REMARK  Name = 3253681
REMARK  7 active torsions:
REMARK  status: ('A' for Active; 'I' for Inactive)
REMARK    1  A    between atoms: C_3  and  C_13
REMARK    2  A    between atoms: C_4  and  C_12
REMARK    3  A    between atoms: C_6  and  O_9
REMARK    4  A    between atoms: C_13  and  O_14
REMARK    5  A    between atoms: O_14  and  P_15
REMARK    6  A    between atoms: P_15  and  O_17
REMARK    7  A    between atoms: P_15  and  O_19
REMARK                            x       y       z     vdW  Elec       q    Type
REMARK                         _______ _______ _______ _____ _____    ______ ____
ROOT
ATOM      1  O   UNL     1      35.719 -22.980 -16.727  0.00  0.00    -0.163 OA
ATOM      2  N   UNL     1      35.787 -23.478 -15.555  0.00  0.00    -0.130 N 
ATOM      3  C   UNL     1      37.128 -24.299 -13.722  0.00  0.00    +0.035 C 
ATOM      4  C   UNL     1      35.974 -24.566 -12.994  0.00  0.00    +0.077 C 
ATOM      5  C   UNL     1      34.647 -23.747 -14.821  0.00  0.00    +0.114 C 
ATOM      6  C   UNL     1      34.727 -24.290 -13.544  0.00  0.00    +0.152 C 
ATOM      7  C   UNL     1      37.021 -23.756 -14.998  0.00  0.00    +0.119 C 
ATOM      8  C   UNL     1      33.332 -23.434 -15.453  0.00  0.00    +0.057 C 
ENDROOT
BRANCH   6   9
ATOM      9  O   UNL     1      33.587 -24.545 -12.841  0.00  0.00    -0.504 OA
ATOM     10  H   UNL     1      32.897 -25.044 -13.233  0.00  0.00    +0.292 HD
ENDBRANCH   6   9
BRANCH   4  12
ATOM     11  O   UNL     1      35.261 -24.957 -10.747  0.00  0.00    -0.283 OA
ATOM     12  C   UNL     1      36.067 -25.135 -11.653  0.00  0.00    +0.237 C 
ENDBRANCH   4  12
BRANCH   3  13
ATOM     13  C   UNL     1      38.485 -24.582 -13.169  0.00  0.00    +0.182 C 
BRANCH  13  14
ATOM     14  O   UNL     1      39.477 -24.611 -14.189  0.00  0.00    -0.268 OA
BRANCH  14  15
ATOM     15  P   UNL     1      40.076 -26.044 -14.633  0.00  0.00    +0.473 P 
ATOM     16  O   UNL     1      41.225 -26.538 -13.804  0.00  0.00    -0.227 OA
BRANCH  15  17
ATOM     17  O   UNL     1      40.390 -25.860 -16.208  0.00  0.00    -0.303 OA
ATOM     18  H   UNL     1      39.805 -26.437 -16.724  0.00  0.00    +0.222 HD
ENDBRANCH  15  17
BRANCH  15  19
ATOM     19  O   UNL     1      38.768 -26.995 -14.622  0.00  0.00    -0.303 OA
ATOM     20  H   UNL     1      38.535 -27.213 -13.705  0.00  0.00    +0.222 HD
ENDBRANCH  15  19
ENDBRANCH  14  15
ENDBRANCH  13  14
ENDBRANCH   3  13
TORSDOF 7
ENDMDL
MODEL 2
REMARK VINA RESULT:      -7.7      2.869      4.631
REMARK  Name = 3253681
REMARK  7 active torsions:
REMARK  status: ('A' for Active; 'I' for Inactive)
REMARK    1  A    between atoms: C_3  and  C_13
REMARK    2  A    between atoms: C_4  and  C_12
REMARK    3  A    between atoms: C_6  and  O_9
REMARK    4  A    between atoms: C_13  and  O_14
REMARK    5  A    between atoms: O_14  and  P_15
REMARK    6  A    between atoms: P_15  and  O_17
REMARK    7  A    between atoms: P_15  and  O_19
REMARK                            x       y       z     vdW  Elec       q    Type
REMARK                         _______ _______ _______ _____ _____    ______ ____
ROOT
ATOM      1  O   UNL     1      30.960 -23.932 -12.834  0.00  0.00    -0.163 OA
ATOM      2  N   UNL     1      31.638 -23.752 -13.900  0.00  0.00    -0.130 N 
ATOM      3  C   UNL     1      33.740 -23.914 -15.076  0.00  0.00    +0.035 C 
ATOM      4  C   UNL     1      33.148 -23.375 -16.213  0.00  0.00    +0.077 C 
ATOM      5  C   UNL     1      31.060 -23.217 -15.036  0.00  0.00    +0.114 C 
ATOM      6  C   UNL     1      31.803 -23.023 -16.195  0.00  0.00    +0.152 C 
ATOM      7  C   UNL     1      32.975 -24.097 -13.928  0.00  0.00    +0.119 C 
ATOM      8  C   UNL     1      29.615 -22.856 -14.969  0.00  0.00    +0.057 C 
ENDROOT
BRANCH   6   9
ATOM      9  O   UNL     1      31.210 -22.495 -17.302  0.00  0.00    -0.504 OA
ATOM     10  H   UNL     1      31.672 -22.478 -18.118  0.00  0.00    +0.292 HD
ENDBRANCH   6   9
BRANCH   4  12
ATOM     11  O   UNL     1      33.712 -23.696 -18.512  0.00  0.00    -0.283 OA
ATOM     12  C   UNL     1      33.936 -23.175 -17.425  0.00  0.00    +0.237 C 
ENDBRANCH   4  12
BRANCH   3  13
ATOM     13  C   UNL     1      35.180 -24.302 -15.053  0.00  0.00    +0.182 C 
BRANCH  13  14
ATOM     14  O   UNL     1      35.347 -25.714 -14.972  0.00  0.00    -0.268 OA
BRANCH  14  15
ATOM     15  P   UNL     1      36.847 -26.312 -15.026  0.00  0.00    +0.473 P 
ATOM     16  O   UNL     1      37.320 -26.960 -13.757  0.00  0.00    -0.227 OA
BRANCH  15  17
ATOM     17  O   UNL     1      37.740 -25.068 -15.541  0.00  0.00    -0.303 OA
ATOM     18  H   UNL     1      37.161 -24.390 -15.922  0.00  0.00    +0.222 HD
ENDBRANCH  15  17
BRANCH  15  19
ATOM     19  O   UNL     1      36.793 -27.291 -16.313  0.00  0.00    -0.303 OA
ATOM     20  H   UNL     1      35.896 -27.649 -16.409  0.00  0.00    +0.222 HD
ENDBRANCH  15  19
ENDBRANCH  14  15
ENDBRANCH  13  14
ENDBRANCH   3  13
TORSDOF 7
ENDMDL
MODEL 3
REMARK VINA RESULT:      -7.5     12.668     15.508
REMARK  Name = 3253681
REMARK  7 active torsions:
REMARK  status: ('A' for Active; 'I' for Inactive)
REMARK    1  A    between atoms: C_3  and  C_13
REMARK    2  A    between atoms: C_4  and  C_12
REMARK    3  A    between atoms: C_6  and  O_9
REMARK    4  A    between atoms: C_13  and  O_14
REMARK    5  A    between atoms: O_14  and  P_15
REMARK    6  A    between atoms: P_15  and  O_17
REMARK    7  A    between atoms: P_15  and  O_19
REMARK                            x       y       z     vdW  Elec       q    Type
REMARK                         _______ _______ _______ _____ _____    ______ ____
ROOT
ATOM      1  O   UNL     1      35.223 -16.760 -21.231  0.00  0.00    -0.163 OA
ATOM      2  N   UNL     1      34.732 -16.345 -22.332  0.00  0.00    -0.130 N 
ATOM      3  C   UNL     1      33.561 -14.634 -23.570  0.00  0.00    +0.035 C 
ATOM      4  C   UNL     1      33.649 -15.405 -24.724  0.00  0.00    +0.077 C 
ATOM      5  C   UNL     1      34.814 -17.102 -23.486  0.00  0.00    +0.114 C 
ATOM      6  C   UNL     1      34.278 -16.645 -24.684  0.00  0.00    +0.152 C 
ATOM      7  C   UNL     1      34.106 -15.114 -22.383  0.00  0.00    +0.119 C 
ATOM      8  C   UNL     1      35.497 -18.425 -23.394  0.00  0.00    +0.057 C 
ENDROOT
BRANCH   6   9
ATOM      9  O   UNL     1      34.372 -17.410 -25.808  0.00  0.00    -0.504 OA
ATOM     10  H   UNL     1      35.194 -17.792 -26.047  0.00  0.00    +0.292 HD
ENDBRANCH   6   9
BRANCH   4  12
ATOM     11  O   UNL     1      33.673 -14.863 -27.051  0.00  0.00    -0.283 OA
ATOM     12  C   UNL     1      33.083 -14.916 -25.977  0.00  0.00    +0.237 C 
ENDBRANCH   4  12
BRANCH   3  13
ATOM     13  C   UNL     1      32.895 -13.299 -23.569  0.00  0.00    +0.182 C 
BRANCH  13  14
ATOM     14  O   UNL     1      33.824 -12.243 -23.349  0.00  0.00    -0.268 OA
BRANCH  14  15
ATOM     15  P   UNL     1      33.935 -11.077 -24.463  0.00  0.00    +0.473 P 
ATOM     16  O   UNL     1      33.856 -11.546 -25.886  0.00  0.00    -0.227 OA
BRANCH  15  17
ATOM     17  O   UNL     1      35.293 -10.295 -24.067  0.00  0.00    -0.303 OA
ATOM     18  H   UNL     1      35.354 -10.220 -23.102  0.00  0.00    +0.222 HD
ENDBRANCH  15  17
BRANCH  15  19
ATOM     19  O   UNL     1      32.769 -10.048 -24.017  0.00  0.00    -0.303 OA
ATOM     20  H   UNL     1      32.469 -10.269 -23.121  0.00  0.00    +0.222 HD
ENDBRANCH  15  19
ENDBRANCH  14  15
ENDBRANCH  13  14
ENDBRANCH   3  13
TORSDOF 7
ENDMDL
MODEL 4
REMARK VINA RESULT:      -7.5      4.844      7.689
REMARK  Name = 3253681
REMARK  7 active torsions:
REMARK  status: ('A' for Active; 'I' for Inactive)
REMARK    1  A    between atoms: C_3  and  C_13
REMARK    2  A    between atoms: C_4  and  C_12
REMARK    3  A    between atoms: C_6  and  O_9
REMARK    4  A    between atoms: C_13  and  O_14
REMARK    5  A    between atoms: O_14  and  P_15
REMARK    6  A    between atoms: P_15  and  O_17
REMARK    7  A    between atoms: P_15  and  O_19
REMARK                            x       y       z     vdW  Elec       q    Type
REMARK                         _______ _______ _______ _____ _____    ______ ____
ROOT
ATOM      1  O   UNL     1      34.593 -22.686 -18.442  0.00  0.00    -0.163 OA
ATOM      2  N   UNL     1      33.999 -22.952 -17.344  0.00  0.00    -0.130 N 
ATOM      3  C   UNL     1      31.969 -23.517 -16.165  0.00  0.00    +0.035 C 
ATOM      4  C   UNL     1      32.669 -23.538 -14.965  0.00  0.00    +0.077 C 
ATOM      5  C   UNL     1      34.685 -22.976 -16.144  0.00  0.00    +0.114 C 
ATOM      6  C   UNL     1      34.033 -23.267 -14.951  0.00  0.00    +0.152 C 
ATOM      7  C   UNL     1      32.644 -23.223 -17.346  0.00  0.00    +0.119 C 
ATOM      8  C   UNL     1      36.146 -22.679 -16.180  0.00  0.00    +0.057 C 
ENDROOT
BRANCH   6   9
ATOM      9  O   UNL     1      34.732 -23.285 -13.781  0.00  0.00    -0.504 OA
ATOM     10  H   UNL     1      34.595 -23.978 -13.165  0.00  0.00    +0.292 HD
ENDBRANCH   6   9
BRANCH   4  12
ATOM     11  O   UNL     1      32.123 -24.866 -13.055  0.00  0.00    -0.283 OA
ATOM     12  C   UNL     1      31.977 -23.844 -13.717  0.00  0.00    +0.237 C 
ENDBRANCH   4  12
BRANCH   3  13
ATOM     13  C   UNL     1      30.505 -23.801 -16.223  0.00  0.00    +0.182 C 
BRANCH  13  14
ATOM     14  O   UNL     1      29.779 -22.724 -16.806  0.00  0.00    -0.268 OA
BRANCH  14  15
ATOM     15  P   UNL     1      28.165 -22.778 -16.764  0.00  0.00    +0.473 P 
ATOM     16  O   UNL     1      27.474 -21.528 -17.224  0.00  0.00    -0.227 OA
BRANCH  15  17
ATOM     17  O   UNL     1      27.833 -23.232 -15.249  0.00  0.00    -0.303 OA
ATOM     18  H   UNL     1      26.932 -22.958 -15.019  0.00  0.00    +0.222 HD
ENDBRANCH  15  17
BRANCH  15  19
ATOM     19  O   UNL     1      27.831 -24.101 -17.632  0.00  0.00    -0.303 OA
ATOM     20  H   UNL     1      26.974 -23.990 -18.074  0.00  0.00    +0.222 HD
ENDBRANCH  15  19
ENDBRANCH  14  15
ENDBRANCH  13  14
ENDBRANCH   3  13
TORSDOF 7
ENDMDL
MODEL 5
REMARK VINA RESULT:      -7.5      3.304      5.089
REMARK  Name = 3253681
REMARK  7 active torsions:
REMARK  status: ('A' for Active; 'I' for Inactive)
REMARK    1  A    between atoms: C_3  and  C_13
REMARK    2  A    between atoms: C_4  and  C_12
REMARK    3  A    between atoms: C_6  and  O_9
REMARK    4  A    between atoms: C_13  and  O_14
REMARK    5  A    between atoms: O_14  and  P_15
REMARK    6  A    between atoms: P_15  and  O_17
REMARK    7  A    between atoms: P_15  and  O_19
REMARK                            x       y       z     vdW  Elec       q    Type
REMARK                         _______ _______ _______ _____ _____    ______ ____
ROOT
ATOM      1  O   UNL     1      30.143 -24.706 -13.666  0.00  0.00    -0.163 OA
ATOM      2  N   UNL     1      31.201 -24.312 -14.260  0.00  0.00    -0.130 N 
ATOM      3  C   UNL     1      33.599 -24.028 -14.260  0.00  0.00    +0.035 C 
ATOM      4  C   UNL     1      33.534 -23.464 -15.529  0.00  0.00    +0.077 C 
ATOM      5  C   UNL     1      31.149 -23.750 -15.522  0.00  0.00    +0.114 C 
ATOM      6  C   UNL     1      32.306 -23.323 -16.165  0.00  0.00    +0.152 C 
ATOM      7  C   UNL     1      32.427 -24.447 -13.638  0.00  0.00    +0.119 C 
ATOM      8  C   UNL     1      29.809 -23.619 -16.164  0.00  0.00    +0.057 C 
ENDROOT
BRANCH   6   9
ATOM      9  O   UNL     1      32.228 -22.772 -17.409  0.00  0.00    -0.504 OA
ATOM     10  H   UNL     1      32.414 -21.862 -17.531  0.00  0.00    +0.292 HD
ENDBRANCH   6   9
BRANCH   4  12
ATOM     11  O   UNL     1      34.958 -23.058 -17.405  0.00  0.00    -0.283 OA
ATOM     12  C   UNL     1      34.754 -23.018 -16.197  0.00  0.00    +0.237 C 
ENDBRANCH   4  12
BRANCH   3  13
ATOM     13  C   UNL     1      34.897 -24.196 -13.544  0.00  0.00    +0.182 C 
BRANCH  13  14
ATOM     14  O   UNL     1      34.791 -23.847 -12.168  0.00  0.00    -0.268 OA
BRANCH  14  15
ATOM     15  P   UNL     1      36.032 -24.193 -11.192  0.00  0.00    +0.473 P 
ATOM     16  O   UNL     1      37.073 -23.118 -11.081  0.00  0.00    -0.227 OA
BRANCH  15  17
ATOM     17  O   UNL     1      36.566 -25.618 -11.739  0.00  0.00    -0.303 OA
ATOM     18  H   UNL     1      37.367 -25.871 -11.253  0.00  0.00    +0.222 HD
ENDBRANCH  15  17
BRANCH  15  19
ATOM     19  O   UNL     1      35.296 -24.577  -9.804  0.00  0.00    -0.303 OA
ATOM     20  H   UNL     1      34.445 -25.003  -9.997  0.00  0.00    +0.222 HD
ENDBRANCH  15  19
ENDBRANCH  14  15
ENDBRANCH  13  14
ENDBRANCH   3  13
TORSDOF 7
ENDMDL
MODEL 6
REMARK VINA RESULT:      -7.5      2.714      5.313
REMARK  Name = 3253681
REMARK  7 active torsions:
REMARK  status: ('A' for Active; 'I' for Inactive)
REMARK    1  A    between atoms: C_3  and  C_13
REMARK    2  A    between atoms: C_4  and  C_12
REMARK    3  A    between atoms: C_6  and  O_9
REMARK    4  A    between atoms: C_13  and  O_14
REMARK    5  A    between atoms: O_14  and  P_15
REMARK    6  A    between atoms: P_15  and  O_17
REMARK    7  A    between atoms: P_15  and  O_19
REMARK                            x       y       z     vdW  Elec       q    Type
REMARK                         _______ _______ _______ _____ _____    ______ ____
ROOT
ATOM      1  O   UNL     1      38.492 -23.919 -14.643  0.00  0.00    -0.163 OA
ATOM      2  N   UNL     1      37.233 -23.994 -14.451  0.00  0.00    -0.130 N 
ATOM      3  C   UNL     1      34.985 -23.692 -15.279  0.00  0.00    +0.035 C 
ATOM      4  C   UNL     1      34.476 -24.147 -14.067  0.00  0.00    +0.077 C 
ATOM      5  C   UNL     1      36.715 -24.445 -13.252  0.00  0.00    +0.114 C 
ATOM      6  C   UNL     1      35.342 -24.525 -13.048  0.00  0.00    +0.152 C 
ATOM      7  C   UNL     1      36.362 -23.621 -15.458  0.00  0.00    +0.119 C 
ATOM      8  C   UNL     1      37.684 -24.839 -12.188  0.00  0.00    +0.057 C 
ENDROOT
BRANCH   6   9
ATOM      9  O   UNL     1      34.857 -24.974 -11.856  0.00  0.00    -0.504 OA
ATOM     10  H   UNL     1      33.932 -24.988 -11.702  0.00  0.00    +0.292 HD
ENDBRANCH   6   9
BRANCH   4  12
ATOM     11  O   UNL     1      32.401 -23.619 -13.007  0.00  0.00    -0.283 OA
ATOM     12  C   UNL     1      33.033 -24.228 -13.862  0.00  0.00    +0.237 C 
ENDBRANCH   4  12
BRANCH   3  13
ATOM     13  C   UNL     1      34.089 -23.276 -16.397  0.00  0.00    +0.182 C 
BRANCH  13  14
ATOM     14  O   UNL     1      34.828 -22.857 -17.539  0.00  0.00    -0.268 OA
BRANCH  14  15
ATOM     15  P   UNL     1      34.011 -22.452 -18.873  0.00  0.00    +0.473 P 
ATOM     16  O   UNL     1      34.535 -21.247 -19.599  0.00  0.00    -0.227 OA
BRANCH  15  17
ATOM     17  O   UNL     1      32.479 -22.344 -18.369  0.00  0.00    -0.303 OA
ATOM     18  H   UNL     1      32.044 -23.205 -18.471  0.00  0.00    +0.222 HD
ENDBRANCH  15  17
BRANCH  15  19
ATOM     19  O   UNL     1      34.027 -23.824 -19.729  0.00  0.00    -0.303 OA
ATOM     20  H   UNL     1      33.309 -24.403 -19.424  0.00  0.00    +0.222 HD
ENDBRANCH  15  19
ENDBRANCH  14  15
ENDBRANCH  13  14
ENDBRANCH   3  13
TORSDOF 7
ENDMDL
MODEL 7
REMARK VINA RESULT:      -7.4      2.061      2.979
REMARK  Name = 3253681
REMARK  7 active torsions:
REMARK  status: ('A' for Active; 'I' for Inactive)
REMARK    1  A    between atoms: C_3  and  C_13
REMARK    2  A    between atoms: C_4  and  C_12
REMARK    3  A    between atoms: C_6  and  O_9
REMARK    4  A    between atoms: C_13  and  O_14
REMARK    5  A    between atoms: O_14  and  P_15
REMARK    6  A    between atoms: P_15  and  O_17
REMARK    7  A    between atoms: P_15  and  O_19
REMARK                            x       y       z     vdW  Elec       q    Type
REMARK                         _______ _______ _______ _____ _____    ______ ____
ROOT
ATOM      1  O   UNL     1      32.001 -23.063 -17.486  0.00  0.00    -0.163 OA
ATOM      2  N   UNL     1      32.635 -23.254 -16.396  0.00  0.00    -0.130 N 
ATOM      3  C   UNL     1      34.697 -23.791 -15.259  0.00  0.00    +0.035 C 
ATOM      4  C   UNL     1      34.053 -23.677 -14.032  0.00  0.00    +0.077 C 
ATOM      5  C   UNL     1      32.005 -23.144 -15.170  0.00  0.00    +0.114 C 
ATOM      6  C   UNL     1      32.701 -23.353 -13.985  0.00  0.00    +0.152 C 
ATOM      7  C   UNL     1      33.978 -23.577 -16.431  0.00  0.00    +0.119 C 
ATOM      8  C   UNL     1      30.556 -22.794 -15.169  0.00  0.00    +0.057 C 
ENDROOT
BRANCH   6   9
ATOM      9  O   UNL     1      32.058 -23.238 -12.789  0.00  0.00    -0.504 OA
ATOM     10  H   UNL     1      32.551 -23.223 -11.991  0.00  0.00    +0.292 HD
ENDBRANCH   6   9
BRANCH   4  12
ATOM     11  O   UNL     1      34.575 -24.797 -11.987  0.00  0.00    -0.283 OA
ATOM     12  C   UNL     1      34.791 -23.899 -12.793  0.00  0.00    +0.237 C 
ENDBRANCH   4  12
BRANCH   3  13
ATOM     13  C   UNL     1      36.144 -24.138 -15.354  0.00  0.00    +0.182 C 
BRANCH  13  14
ATOM     14  O   UNL     1      36.358 -25.544 -15.282  0.00  0.00    -0.268 OA
BRANCH  14  15
ATOM     15  P   UNL     1      37.506 -26.094 -14.287  0.00  0.00    +0.473 P 
ATOM     16  O   UNL     1      38.478 -27.055 -14.907  0.00  0.00    -0.227 OA
BRANCH  15  17
ATOM     17  O   UNL     1      36.678 -26.668 -13.023  0.00  0.00    -0.303 OA
ATOM     18  H   UNL     1      36.259 -27.508 -13.266  0.00  0.00    +0.222 HD
ENDBRANCH  15  17
BRANCH  15  19
ATOM     19  O   UNL     1      38.163 -24.731 -13.716  0.00  0.00    -0.303 OA
ATOM     20  H   UNL     1      38.884 -24.952 -13.103  0.00  0.00    +0.222 HD
ENDBRANCH  15  19
ENDBRANCH  14  15
ENDBRANCH  13  14
ENDBRANCH   3  13
TORSDOF 7
ENDMDL
MODEL 8
REMARK VINA RESULT:      -7.3      2.942      6.224
REMARK  Name = 3253681
REMARK  7 active torsions:
REMARK  status: ('A' for Active; 'I' for Inactive)
REMARK    1  A    between atoms: C_3  and  C_13
REMARK    2  A    between atoms: C_4  and  C_12
REMARK    3  A    between atoms: C_6  and  O_9
REMARK    4  A    between atoms: C_13  and  O_14
REMARK    5  A    between atoms: O_14  and  P_15
REMARK    6  A    between atoms: P_15  and  O_17
REMARK    7  A    between atoms: P_15  and  O_19
REMARK                            x       y       z     vdW  Elec       q    Type
REMARK                         _______ _______ _______ _____ _____    ______ ____
ROOT
ATOM      1  O   UNL     1      36.804 -26.070 -12.144  0.00  0.00    -0.163 OA
ATOM      2  N   UNL     1      36.715 -25.268 -13.132  0.00  0.00    -0.130 N 
ATOM      3  C   UNL     1      35.355 -23.869 -14.555  0.00  0.00    +0.035 C 
ATOM      4  C   UNL     1      36.482 -23.512 -15.286  0.00  0.00    +0.077 C 
ATOM      5  C   UNL     1      37.829 -24.906 -13.866  0.00  0.00    +0.114 C 
ATOM      6  C   UNL     1      37.726 -24.032 -14.942  0.00  0.00    +0.152 C 
ATOM      7  C   UNL     1      35.484 -24.746 -13.482  0.00  0.00    +0.119 C 
ATOM      8  C   UNL     1      39.140 -25.489 -13.461  0.00  0.00    +0.057 C 
ENDROOT
BRANCH   6   9
ATOM      9  O   UNL     1      38.839 -23.690 -15.650  0.00  0.00    -0.504 OA
ATOM     10  H   UNL     1      38.900 -22.843 -16.047  0.00  0.00    +0.292 HD
ENDBRANCH   6   9
BRANCH   4  12
ATOM     11  O   UNL     1      37.087 -21.624 -16.619  0.00  0.00    -0.283 OA
ATOM     12  C   UNL     1      36.365 -22.593 -16.414  0.00  0.00    +0.237 C 
ENDBRANCH   4  12
BRANCH   3  13
ATOM     13  C   UNL     1      34.003 -23.335 -14.890  0.00  0.00    +0.182 C 
BRANCH  13  14
ATOM     14  O   UNL     1      32.972 -24.265 -14.574  0.00  0.00    -0.268 OA
BRANCH  14  15
ATOM     15  P   UNL     1      31.674 -23.727 -13.777  0.00  0.00    +0.473 P 
ATOM     16  O   UNL     1      30.664 -23.004 -14.620  0.00  0.00    -0.227 OA
BRANCH  15  17
ATOM     17  O   UNL     1      32.298 -22.869 -12.558  0.00  0.00    -0.303 OA
ATOM     18  H   UNL     1      31.580 -22.453 -12.054  0.00  0.00    +0.222 HD
ENDBRANCH  15  17
BRANCH  15  19
ATOM     19  O   UNL     1      31.124 -25.063 -13.050  0.00  0.00    -0.303 OA
ATOM     20  H   UNL     1      31.170 -24.949 -12.087  0.00  0.00    +0.222 HD
ENDBRANCH  15  19
ENDBRANCH  14  15
ENDBRANCH  13  14
ENDBRANCH   3  13
TORSDOF 7
ENDMDL
MODEL 9
REMARK VINA RESULT:      -7.2      2.707      3.764
REMARK  Name = 3253681
REMARK  7 active torsions:
REMARK  status: ('A' for Active; 'I' for Inactive)
REMARK    1  A    between atoms: C_3  and  C_13
REMARK    2  A    between atoms: C_4  and  C_12
REMARK    3  A    between atoms: C_6  and  O_9
REMARK    4  A    between atoms: C_13  and  O_14
REMARK    5  A    between atoms: O_14  and  P_15
REMARK    6  A    between atoms: P_15  and  O_17
REMARK    7  A    between atoms: P_15  and  O_19
REMARK                            x       y       z     vdW  Elec       q    Type
REMARK                         _______ _______ _______ _____ _____    ______ ____
ROOT
ATOM      1  O   UNL     1      36.006 -22.434 -17.434  0.00  0.00    -0.163 OA
ATOM      2  N   UNL     1      35.148 -22.887 -16.605  0.00  0.00    -0.130 N 
ATOM      3  C   UNL     1      34.636 -23.733 -14.402  0.00  0.00    +0.035 C 
ATOM      4  C   UNL     1      33.302 -23.879 -14.766  0.00  0.00    +0.077 C 
ATOM      5  C   UNL     1      33.820 -23.037 -16.955  0.00  0.00    +0.114 C 
ATOM      6  C   UNL     1      32.890 -23.531 -16.048  0.00  0.00    +0.152 C 
ATOM      7  C   UNL     1      35.547 -23.236 -15.328  0.00  0.00    +0.119 C 
ATOM      8  C   UNL     1      33.425 -22.651 -18.340  0.00  0.00    +0.057 C 
ENDROOT
BRANCH   6   9
ATOM      9  O   UNL     1      31.585 -23.669 -16.417  0.00  0.00    -0.504 OA
ATOM     10  H   UNL     1      30.931 -23.112 -16.043  0.00  0.00    +0.292 HD
ENDBRANCH   6   9
BRANCH   4  12
ATOM     11  O   UNL     1      31.673 -25.423 -13.945  0.00  0.00    -0.283 OA
ATOM     12  C   UNL     1      32.332 -24.398 -13.806  0.00  0.00    +0.237 C 
ENDBRANCH   4  12
BRANCH   3  13
ATOM     13  C   UNL     1      35.119 -24.095 -13.038  0.00  0.00    +0.182 C 
BRANCH  13  14
ATOM     14  O   UNL     1      36.172 -23.241 -12.604  0.00  0.00    -0.268 OA
BRANCH  14  15
ATOM     15  P   UNL     1      37.297 -23.852 -11.618  0.00  0.00    +0.473 P 
ATOM     16  O   UNL     1      38.609 -23.124 -11.621  0.00  0.00    -0.227 OA
BRANCH  15  17
ATOM     17  O   UNL     1      37.370 -25.411 -12.036  0.00  0.00    -0.303 OA
ATOM     18  H   UNL     1      36.689 -25.600 -12.699  0.00  0.00    +0.222 HD
ENDBRANCH  15  17
BRANCH  15  19
ATOM     19  O   UNL     1      36.537 -23.883 -10.190  0.00  0.00    -0.303 OA
ATOM     20  H   UNL     1      35.672 -24.311 -10.294  0.00  0.00    +0.222 HD
ENDBRANCH  15  19
ENDBRANCH  14  15
ENDBRANCH  13  14
ENDBRANCH   3  13
TORSDOF 7
ENDMDL
