MODEL 1
REMARK VINA RESULT:      -9.3      0.000      0.000
REMARK  Name = 5362119
REMARK  15 active torsions:
REMARK  status: ('A' for Active; 'I' for Inactive)
REMARK    1  A    between atoms: CA_1  and  C_8
REMARK    2  A    between atoms: CA_1  and  N_13
REMARK    3  A    between atoms: CA_1  and  CB_29
REMARK    4  A    between atoms: CA_4  and  C_10
REMARK    5  A    between atoms: C_10  and  O_11
REMARK    6  A    between atoms: N_13  and  CA_16
REMARK    7  A    between atoms: CA_16  and  C_18
REMARK    8  A    between atoms: CA_16  and  C_21
REMARK    9  A    between atoms: C_18  and  O_19
REMARK   10  A    between atoms: C_21  and  C_22
REMARK   11  A    between atoms: C_22  and  C_23
REMARK   12  A    between atoms: CB_29  and  CG_30
REMARK   13  A    between atoms: CG_30  and  CD_31
REMARK   14  A    between atoms: CD_31  and  CE_32
REMARK   15  A    between atoms: CE_32  and  NZ_33
REMARK                            x       y       z     vdW  Elec       q    Type
REMARK                         _______ _______ _______ _____ _____    ______ ____
ROOT
ATOM      1  CA  UNL     1      34.863 -24.311 -14.953  0.00  0.00    +0.018 C 
ENDROOT
BRANCH   1   8
ATOM      2  O   UNL     1      33.639 -24.368 -12.911  0.00  0.00    -0.277 OA
ATOM      3  N   UNL     1      32.484 -23.746 -14.819  0.00  0.00    -0.273 N 
ATOM      4  CA  UNL     1      31.241 -23.384 -14.150  0.00  0.00    +0.174 C 
ATOM      5  CB  UNL     1      30.458 -22.592 -15.191  0.00  0.00    +0.033 C 
ATOM      6  CD  UNL     1      32.411 -23.471 -16.251  0.00  0.00    +0.094 C 
ATOM      7  CG  UNL     1      30.944 -23.171 -16.518  0.00  0.00    +0.024 C 
ATOM      8  C   UNL     1      33.614 -24.145 -14.123  0.00  0.00    +0.206 C 
BRANCH   4  10
ATOM      9  OXT UNL     1      30.112 -25.477 -14.585  0.00  0.00    -0.248 OA
ATOM     10  C   UNL     1      30.547 -24.661 -13.785  0.00  0.00    +0.332 C 
BRANCH  10  11
ATOM     11  O   UNL     1      30.462 -24.793 -12.439  0.00  0.00    -0.479 OA
ATOM     12  H   UNL     1      30.418 -25.646 -12.053  0.00  0.00    +0.295 HD
ENDBRANCH  10  11
ENDBRANCH   4  10
ENDBRANCH   1   8
BRANCH   1  13
ATOM     13  N   UNL     1      35.351 -22.960 -15.211  0.00  0.00    +0.399 N 
ATOM     14  H1  UNL     1      36.010 -22.697 -14.479  0.00  0.00    -0.083 HD
ATOM     15  H2  UNL     1      34.555 -22.321 -15.218  0.00  0.00    -0.083 HD
BRANCH  13  16
ATOM     16  CA  UNL     1      36.018 -22.888 -16.503  0.00  0.00    +0.041 C 
BRANCH  16  18
ATOM     17  OXT UNL     1      38.378 -22.907 -15.907  0.00  0.00    -0.253 OA
ATOM     18  C   UNL     1      37.388 -22.279 -16.261  0.00  0.00    +0.293 C 
BRANCH  18  19
ATOM     19  O   UNL     1      37.415 -20.945 -16.505  0.00  0.00    -0.482 OA
ATOM     20  H   UNL     1      36.646 -20.511 -16.820  0.00  0.00    +0.295 HD
ENDBRANCH  18  19
ENDBRANCH  16  18
BRANCH  16  21
ATOM     21  C   UNL     1      35.186 -22.019 -17.455  0.00  0.00    -0.006 C 
BRANCH  21  22
ATOM     22  C   UNL     1      35.679 -22.016 -18.911  0.00  0.00    +0.025 C 
BRANCH  22  23
ATOM     23  C   UNL     1      34.976 -21.028 -19.808  0.00  0.00    -0.022 C 
ATOM     24  C   UNL     1      33.582 -20.980 -19.836  0.00  0.00    -0.004 C 
ATOM     25  C   UNL     1      35.719 -20.162 -20.611  0.00  0.00    -0.004 C 
ATOM     26  C   UNL     1      32.932 -20.067 -20.666  0.00  0.00    -0.000 C 
ATOM     27  C   UNL     1      35.068 -19.249 -21.440  0.00  0.00    -0.000 C 
ATOM     28  C   UNL     1      33.674 -19.201 -21.467  0.00  0.00    -0.000 C 
ENDBRANCH  22  23
ENDBRANCH  21  22
ENDBRANCH  16  21
ENDBRANCH  13  16
ENDBRANCH   1  13
BRANCH   1  29
ATOM     29  CB  UNL     1      35.919 -25.143 -14.218  0.00  0.00    -0.013 C 
BRANCH  29  30
ATOM     30  CG  UNL     1      36.592 -26.164 -15.143  0.00  0.00    -0.004 C 
BRANCH  30  31
ATOM     31  CD  UNL     1      37.858 -26.786 -14.543  0.00  0.00    -0.024 C 
BRANCH  31  32
ATOM     32  CE  UNL     1      38.907 -25.750 -14.141  0.00  0.00    -0.086 C 
BRANCH  32  33
ATOM     33  NZ  UNL     1      39.774 -25.446 -15.276  0.00  0.00    +0.380 N 
ATOM     34  HZ1 UNL     1      40.749 -25.576 -15.004  0.00  0.00    -0.089 HD
ATOM     35  HZ2 UNL     1      39.627 -24.479 -15.566  0.00  0.00    -0.089 HD
ATOM     36  HZ3 UNL     1      39.551 -26.071 -16.051  0.00  0.00    -0.089 HD
ENDBRANCH  32  33
ENDBRANCH  31  32
ENDBRANCH  30  31
ENDBRANCH  29  30
ENDBRANCH   1  29
TORSDOF 15
ENDMDL
MODEL 2
REMARK VINA RESULT:      -9.0      2.043      4.930
REMARK  Name = 5362119
REMARK  15 active torsions:
REMARK  status: ('A' for Active; 'I' for Inactive)
REMARK    1  A    between atoms: CA_1  and  C_8
REMARK    2  A    between atoms: CA_1  and  N_13
REMARK    3  A    between atoms: CA_1  and  CB_29
REMARK    4  A    between atoms: CA_4  and  C_10
REMARK    5  A    between atoms: C_10  and  O_11
REMARK    6  A    between atoms: N_13  and  CA_16
REMARK    7  A    between atoms: CA_16  and  C_18
REMARK    8  A    between atoms: CA_16  and  C_21
REMARK    9  A    between atoms: C_18  and  O_19
REMARK   10  A    between atoms: C_21  and  C_22
REMARK   11  A    between atoms: C_22  and  C_23
REMARK   12  A    between atoms: CB_29  and  CG_30
REMARK   13  A    between atoms: CG_30  and  CD_31
REMARK   14  A    between atoms: CD_31  and  CE_32
REMARK   15  A    between atoms: CE_32  and  NZ_33
REMARK                            x       y       z     vdW  Elec       q    Type
REMARK                         _______ _______ _______ _____ _____    ______ ____
ROOT
ATOM      1  CA  UNL     1      34.410 -23.432 -14.643  0.00  0.00    +0.018 C 
ENDROOT
BRANCH   1   8
ATOM      2  O   UNL     1      35.476 -25.424 -15.396  0.00  0.00    -0.277 OA
ATOM      3  N   UNL     1      36.442 -24.320 -13.605  0.00  0.00    -0.273 N 
ATOM      4  CA  UNL     1      37.635 -25.152 -13.520  0.00  0.00    +0.174 C 
ATOM      5  CB  UNL     1      38.594 -24.366 -12.633  0.00  0.00    +0.033 C 
ATOM      6  CD  UNL     1      36.492 -23.227 -12.638  0.00  0.00    +0.094 C 
ATOM      7  CG  UNL     1      37.662 -23.565 -11.726  0.00  0.00    +0.024 C 
ATOM      8  C   UNL     1      35.487 -24.487 -14.595  0.00  0.00    +0.206 C 
BRANCH   4  10
ATOM      9  OXT UNL     1      37.066 -26.622 -11.687  0.00  0.00    -0.248 OA
ATOM     10  C   UNL     1      37.226 -26.448 -12.886  0.00  0.00    +0.332 C 
BRANCH  10  11
ATOM     11  O   UNL     1      37.059 -27.409 -13.826  0.00  0.00    -0.479 OA
ATOM     12  H   UNL     1      36.959 -28.305 -13.568  0.00  0.00    +0.295 HD
ENDBRANCH  10  11
ENDBRANCH   4  10
ENDBRANCH   1   8
BRANCH   1  13
ATOM     13  N   UNL     1      34.990 -22.306 -15.367  0.00  0.00    +0.399 N 
ATOM     14  H1  UNL     1      35.679 -21.845 -14.773  0.00  0.00    -0.083 HD
ATOM     15  H2  UNL     1      34.243 -21.656 -15.614  0.00  0.00    -0.083 HD
BRANCH  13  16
ATOM     16  CA  UNL     1      35.639 -22.755 -16.590  0.00  0.00    +0.041 C 
BRANCH  16  18
ATOM     17  OXT UNL     1      37.144 -20.874 -16.945  0.00  0.00    -0.253 OA
ATOM     18  C   UNL     1      36.985 -22.055 -16.660  0.00  0.00    +0.293 C 
BRANCH  18  19
ATOM     19  O   UNL     1      38.017 -22.877 -16.344  0.00  0.00    -0.482 OA
ATOM     20  H   UNL     1      38.789 -22.526 -15.945  0.00  0.00    +0.295 HD
ENDBRANCH  18  19
ENDBRANCH  16  18
BRANCH  16  21
ATOM     21  C   UNL     1      34.761 -22.388 -17.794  0.00  0.00    -0.006 C 
BRANCH  21  22
ATOM     22  C   UNL     1      35.543 -22.056 -19.075  0.00  0.00    +0.025 C 
BRANCH  22  23
ATOM     23  C   UNL     1      34.939 -20.952 -19.908  0.00  0.00    -0.022 C 
ATOM     24  C   UNL     1      35.767 -20.073 -20.607  0.00  0.00    -0.004 C 
ATOM     25  C   UNL     1      33.553 -20.808 -19.977  0.00  0.00    -0.004 C 
ATOM     26  C   UNL     1      35.209 -19.052 -21.376  0.00  0.00    -0.000 C 
ATOM     27  C   UNL     1      32.996 -19.787 -20.747  0.00  0.00    -0.000 C 
ATOM     28  C   UNL     1      33.824 -18.909 -21.447  0.00  0.00    -0.000 C 
ENDBRANCH  22  23
ENDBRANCH  21  22
ENDBRANCH  16  21
ENDBRANCH  13  16
ENDBRANCH   1  13
BRANCH   1  29
ATOM     29  CB  UNL     1      33.151 -23.947 -15.350  0.00  0.00    -0.013 C 
BRANCH  29  30
ATOM     30  CG  UNL     1      31.931 -23.063 -15.065  0.00  0.00    -0.004 C 
BRANCH  30  31
ATOM     31  CD  UNL     1      31.200 -23.434 -13.770  0.00  0.00    -0.024 C 
BRANCH  31  32
ATOM     32  CE  UNL     1      31.048 -24.942 -13.573  0.00  0.00    -0.086 C 
BRANCH  32  33
ATOM     33  NZ  UNL     1      29.923 -25.440 -14.357  0.00  0.00    +0.380 N 
ATOM     34  HZ1 UNL     1      29.490 -24.666 -14.862  0.00  0.00    -0.089 HD
ATOM     35  HZ2 UNL     1      29.237 -25.867 -13.735  0.00  0.00    -0.089 HD
ATOM     36  HZ3 UNL     1      30.256 -26.137 -15.025  0.00  0.00    -0.089 HD
ENDBRANCH  32  33
ENDBRANCH  31  32
ENDBRANCH  30  31
ENDBRANCH  29  30
ENDBRANCH   1  29
TORSDOF 15
ENDMDL
MODEL 3
REMARK VINA RESULT:      -8.7      2.509      5.345
REMARK  Name = 5362119
REMARK  15 active torsions:
REMARK  status: ('A' for Active; 'I' for Inactive)
REMARK    1  A    between atoms: CA_1  and  C_8
REMARK    2  A    between atoms: CA_1  and  N_13
REMARK    3  A    between atoms: CA_1  and  CB_29
REMARK    4  A    between atoms: CA_4  and  C_10
REMARK    5  A    between atoms: C_10  and  O_11
REMARK    6  A    between atoms: N_13  and  CA_16
REMARK    7  A    between atoms: CA_16  and  C_18
REMARK    8  A    between atoms: CA_16  and  C_21
REMARK    9  A    between atoms: C_18  and  O_19
REMARK   10  A    between atoms: C_21  and  C_22
REMARK   11  A    between atoms: C_22  and  C_23
REMARK   12  A    between atoms: CB_29  and  CG_30
REMARK   13  A    between atoms: CG_30  and  CD_31
REMARK   14  A    between atoms: CD_31  and  CE_32
REMARK   15  A    between atoms: CE_32  and  NZ_33
REMARK                            x       y       z     vdW  Elec       q    Type
REMARK                         _______ _______ _______ _____ _____    ______ ____
ROOT
ATOM      1  CA  UNL     1      34.967 -23.668 -15.205  0.00  0.00    +0.018 C 
ENDROOT
BRANCH   1   8
ATOM      2  O   UNL     1      36.927 -24.961 -15.603  0.00  0.00    -0.277 OA
ATOM      3  N   UNL     1      36.668 -24.057 -13.487  0.00  0.00    -0.273 N 
ATOM      4  CA  UNL     1      37.977 -24.446 -12.979  0.00  0.00    +0.174 C 
ATOM      5  CB  UNL     1      38.160 -23.621 -11.710  0.00  0.00    +0.033 C 
ATOM      6  CD  UNL     1      35.933 -23.270 -12.502  0.00  0.00    +0.094 C 
ATOM      7  CG  UNL     1      36.731 -23.410 -11.214  0.00  0.00    +0.024 C 
ATOM      8  C   UNL     1      36.279 -24.290 -14.797  0.00  0.00    +0.206 C 
BRANCH   4  10
ATOM      9  OXT UNL     1      37.307 -26.420 -11.755  0.00  0.00    -0.248 OA
ATOM     10  C   UNL     1      37.919 -25.915 -12.684  0.00  0.00    +0.332 C 
BRANCH  10  11
ATOM     11  O   UNL     1      38.643 -26.614 -13.591  0.00  0.00    -0.479 OA
ATOM     12  H   UNL     1      38.628 -27.551 -13.581  0.00  0.00    +0.295 HD
ENDBRANCH  10  11
ENDBRANCH   4  10
ENDBRANCH   1   8
BRANCH   1  13
ATOM     13  N   UNL     1      34.891 -23.817 -16.655  0.00  0.00    +0.399 N 
ATOM     14  H1  UNL     1      34.217 -24.549 -16.881  0.00  0.00    -0.083 HD
ATOM     15  H2  UNL     1      35.816 -24.066 -17.007  0.00  0.00    -0.083 HD
BRANCH  13  16
ATOM     16  CA  UNL     1      34.472 -22.573 -17.283  0.00  0.00    +0.041 C 
BRANCH  16  18
ATOM     17  OXT UNL     1      32.343 -22.233 -18.414  0.00  0.00    -0.253 OA
ATOM     18  C   UNL     1      33.344 -22.917 -18.239  0.00  0.00    +0.293 C 
BRANCH  18  19
ATOM     19  O   UNL     1      33.571 -24.070 -18.919  0.00  0.00    -0.482 OA
ATOM     20  H   UNL     1      34.429 -24.446 -18.929  0.00  0.00    +0.295 HD
ENDBRANCH  18  19
ENDBRANCH  16  18
BRANCH  16  21
ATOM     21  C   UNL     1      35.663 -21.957 -18.029  0.00  0.00    -0.006 C 
BRANCH  21  22
ATOM     22  C   UNL     1      35.550 -22.008 -19.561  0.00  0.00    +0.025 C 
BRANCH  22  23
ATOM     23  C   UNL     1      35.364 -20.664 -20.220  0.00  0.00    -0.022 C 
ATOM     24  C   UNL     1      34.080 -20.198 -20.505  0.00  0.00    -0.004 C 
ATOM     25  C   UNL     1      36.476 -19.887 -20.548  0.00  0.00    -0.004 C 
ATOM     26  C   UNL     1      33.909 -18.955 -21.115  0.00  0.00    -0.000 C 
ATOM     27  C   UNL     1      36.304 -18.645 -21.156  0.00  0.00    -0.000 C 
ATOM     28  C   UNL     1      35.020 -18.178 -21.440  0.00  0.00    -0.000 C 
ENDBRANCH  22  23
ENDBRANCH  21  22
ENDBRANCH  16  21
ENDBRANCH  13  16
ENDBRANCH   1  13
BRANCH   1  29
ATOM     29  CB  UNL     1      33.781 -24.358 -14.521  0.00  0.00    -0.013 C 
BRANCH  29  30
ATOM     30  CG  UNL     1      32.560 -23.436 -14.419  0.00  0.00    -0.004 C 
BRANCH  30  31
ATOM     31  CD  UNL     1      31.399 -23.863 -15.323  0.00  0.00    -0.024 C 
BRANCH  31  32
ATOM     32  CE  UNL     1      30.297 -22.809 -15.429  0.00  0.00    -0.086 C 
BRANCH  32  33
ATOM     33  NZ  UNL     1      29.814 -22.723 -16.803  0.00  0.00    +0.380 N 
ATOM     34  HZ1 UNL     1      28.870 -22.334 -16.809  0.00  0.00    -0.089 HD
ATOM     35  HZ2 UNL     1      29.800 -23.654 -17.218  0.00  0.00    -0.089 HD
ATOM     36  HZ3 UNL     1      30.433 -22.118 -17.344  0.00  0.00    -0.089 HD
ENDBRANCH  32  33
ENDBRANCH  31  32
ENDBRANCH  30  31
ENDBRANCH  29  30
ENDBRANCH   1  29
TORSDOF 15
ENDMDL
MODEL 4
REMARK VINA RESULT:      -8.5      8.769     13.010
REMARK  Name = 5362119
REMARK  15 active torsions:
REMARK  status: ('A' for Active; 'I' for Inactive)
REMARK    1  A    between atoms: CA_1  and  C_8
REMARK    2  A    between atoms: CA_1  and  N_13
REMARK    3  A    between atoms: CA_1  and  CB_29
REMARK    4  A    between atoms: CA_4  and  C_10
REMARK    5  A    between atoms: C_10  and  O_11
REMARK    6  A    between atoms: N_13  and  CA_16
REMARK    7  A    between atoms: CA_16  and  C_18
REMARK    8  A    between atoms: CA_16  and  C_21
REMARK    9  A    between atoms: C_18  and  O_19
REMARK   10  A    between atoms: C_21  and  C_22
REMARK   11  A    between atoms: C_22  and  C_23
REMARK   12  A    between atoms: CB_29  and  CG_30
REMARK   13  A    between atoms: CG_30  and  CD_31
REMARK   14  A    between atoms: CD_31  and  CE_32
REMARK   15  A    between atoms: CE_32  and  NZ_33
REMARK                            x       y       z     vdW  Elec       q    Type
REMARK                         _______ _______ _______ _____ _____    ______ ____
ROOT
ATOM      1  CA  UNL     1      34.202 -14.595 -23.480  0.00  0.00    +0.018 C 
ENDROOT
BRANCH   1   8
ATOM      2  O   UNL     1      34.673 -16.291 -25.084  0.00  0.00    -0.277 OA
ATOM      3  N   UNL     1      35.058 -16.804 -22.859  0.00  0.00    -0.273 N 
ATOM      4  CA  UNL     1      35.682 -18.100 -23.093  0.00  0.00    +0.174 C 
ATOM      5  CB  UNL     1      36.351 -18.452 -21.769  0.00  0.00    +0.033 C 
ATOM      6  CD  UNL     1      35.066 -16.464 -21.440  0.00  0.00    +0.094 C 
ATOM      7  CG  UNL     1      35.480 -17.746 -20.732  0.00  0.00    +0.024 C 
ATOM      8  C   UNL     1      34.667 -15.969 -23.894  0.00  0.00    +0.206 C 
BRANCH   4  10
ATOM      9  OXT UNL     1      33.859 -19.616 -22.624  0.00  0.00    -0.248 OA
ATOM     10  C   UNL     1      34.586 -19.064 -23.436  0.00  0.00    +0.332 C 
BRANCH  10  11
ATOM     11  O   UNL     1      34.509 -19.244 -24.776  0.00  0.00    -0.479 OA
ATOM     12  H   UNL     1      34.073 -18.609 -25.311  0.00  0.00    +0.295 HD
ENDBRANCH  10  11
ENDBRANCH   4  10
ENDBRANCH   1   8
BRANCH   1  13
ATOM     13  N   UNL     1      34.487 -13.722 -24.614  0.00  0.00    +0.399 N 
ATOM     14  H1  UNL     1      35.030 -14.238 -25.306  0.00  0.00    -0.083 HD
ATOM     15  H2  UNL     1      35.015 -12.914 -24.281  0.00  0.00    -0.083 HD
BRANCH  13  16
ATOM     16  CA  UNL     1      33.254 -13.252 -25.228  0.00  0.00    +0.041 C 
BRANCH  16  18
ATOM     17  OXT UNL     1      33.703 -13.561 -27.601  0.00  0.00    -0.253 OA
ATOM     18  C   UNL     1      33.143 -13.937 -26.579  0.00  0.00    +0.293 C 
BRANCH  18  19
ATOM     19  O   UNL     1      32.365 -15.048 -26.537  0.00  0.00    -0.482 OA
ATOM     20  H   UNL     1      32.464 -15.662 -25.835  0.00  0.00    +0.295 HD
ENDBRANCH  18  19
ENDBRANCH  16  18
BRANCH  16  21
ATOM     21  C   UNL     1      33.317 -11.726 -25.385  0.00  0.00    -0.006 C 
BRANCH  21  22
ATOM     22  C   UNL     1      34.476 -11.055 -24.632  0.00  0.00    +0.025 C 
BRANCH  22  23
ATOM     23  C   UNL     1      34.112  -9.761 -23.949  0.00  0.00    -0.022 C 
ATOM     24  C   UNL     1      32.948  -9.679 -23.184  0.00  0.00    -0.004 C 
ATOM     25  C   UNL     1      34.938  -8.644 -24.082  0.00  0.00    -0.004 C 
ATOM     26  C   UNL     1      32.611  -8.481 -22.553  0.00  0.00    -0.000 C 
ATOM     27  C   UNL     1      34.602  -7.448 -23.450  0.00  0.00    -0.000 C 
ATOM     28  C   UNL     1      33.438  -7.366 -22.685  0.00  0.00    -0.000 C 
ENDBRANCH  22  23
ENDBRANCH  21  22
ENDBRANCH  16  21
ENDBRANCH  13  16
ENDBRANCH   1  13
BRANCH   1  29
ATOM     29  CB  UNL     1      32.707 -14.585 -23.144  0.00  0.00    -0.013 C 
BRANCH  29  30
ATOM     30  CG  UNL     1      32.441 -14.064 -21.726  0.00  0.00    -0.004 C 
BRANCH  30  31
ATOM     31  CD  UNL     1      31.923 -12.622 -21.696  0.00  0.00    -0.024 C 
BRANCH  31  32
ATOM     32  CE  UNL     1      31.791 -12.057 -20.282  0.00  0.00    -0.086 C 
BRANCH  32  33
ATOM     33  NZ  UNL     1      30.816 -10.972 -20.263  0.00  0.00    +0.380 N 
ATOM     34  HZ1 UNL     1      29.903 -11.339 -19.994  0.00  0.00    -0.089 HD
ATOM     35  HZ2 UNL     1      30.754 -10.553 -21.191  0.00  0.00    -0.089 HD
ATOM     36  HZ3 UNL     1      31.109 -10.264 -19.589  0.00  0.00    -0.089 HD
ENDBRANCH  32  33
ENDBRANCH  31  32
ENDBRANCH  30  31
ENDBRANCH  29  30
ENDBRANCH   1  29
TORSDOF 15
ENDMDL
MODEL 5
REMARK VINA RESULT:      -8.5      1.961      2.712
REMARK  Name = 5362119
REMARK  15 active torsions:
REMARK  status: ('A' for Active; 'I' for Inactive)
REMARK    1  A    between atoms: CA_1  and  C_8
REMARK    2  A    between atoms: CA_1  and  N_13
REMARK    3  A    between atoms: CA_1  and  CB_29
REMARK    4  A    between atoms: CA_4  and  C_10
REMARK    5  A    between atoms: C_10  and  O_11
REMARK    6  A    between atoms: N_13  and  CA_16
REMARK    7  A    between atoms: CA_16  and  C_18
REMARK    8  A    between atoms: CA_16  and  C_21
REMARK    9  A    between atoms: C_18  and  O_19
REMARK   10  A    between atoms: C_21  and  C_22
REMARK   11  A    between atoms: C_22  and  C_23
REMARK   12  A    between atoms: CB_29  and  CG_30
REMARK   13  A    between atoms: CG_30  and  CD_31
REMARK   14  A    between atoms: CD_31  and  CE_32
REMARK   15  A    between atoms: CE_32  and  NZ_33
REMARK                            x       y       z     vdW  Elec       q    Type
REMARK                         _______ _______ _______ _____ _____    ______ ____
ROOT
ATOM      1  CA  UNL     1      34.167 -23.703 -15.050  0.00  0.00    +0.018 C 
ENDROOT
BRANCH   1   8
ATOM      2  O   UNL     1      32.862 -23.045 -16.931  0.00  0.00    -0.277 OA
ATOM      3  N   UNL     1      31.760 -24.126 -15.206  0.00  0.00    -0.273 N 
ATOM      4  CA  UNL     1      30.474 -24.247 -15.881  0.00  0.00    +0.174 C 
ATOM      5  CB  UNL     1      29.697 -25.266 -15.055  0.00  0.00    +0.033 C 
ATOM      6  CD  UNL     1      31.734 -24.781 -13.902  0.00  0.00    +0.094 C 
ATOM      7  CG  UNL     1      30.266 -25.091 -13.649  0.00  0.00    +0.024 C 
ATOM      8  C   UNL     1      32.878 -23.592 -15.826  0.00  0.00    +0.206 C 
BRANCH   4  10
ATOM      9  OXT UNL     1      29.363 -22.364 -14.848  0.00  0.00    -0.248 OA
ATOM     10  C   UNL     1      29.828 -22.894 -15.846  0.00  0.00    +0.332 C 
BRANCH  10  11
ATOM     11  O   UNL     1      29.825 -22.333 -17.079  0.00  0.00    -0.479 OA
ATOM     12  H   UNL     1      29.028 -22.281 -17.569  0.00  0.00    +0.295 HD
ENDBRANCH  10  11
ENDBRANCH   4  10
ENDBRANCH   1   8
BRANCH   1  13
ATOM     13  N   UNL     1      34.959 -22.538 -15.428  0.00  0.00    +0.399 N 
ATOM     14  H1  UNL     1      35.359 -22.118 -14.588  0.00  0.00    -0.083 HD
ATOM     15  H2  UNL     1      34.353 -21.870 -15.904  0.00  0.00    -0.083 HD
BRANCH  13  16
ATOM     16  CA  UNL     1      36.037 -22.915 -16.331  0.00  0.00    +0.041 C 
BRANCH  16  18
ATOM     17  OXT UNL     1      37.845 -22.804 -14.704  0.00  0.00    -0.253 OA
ATOM     18  C   UNL     1      37.161 -23.469 -15.473  0.00  0.00    +0.293 C 
BRANCH  18  19
ATOM     19  O   UNL     1      37.321 -24.808 -15.625  0.00  0.00    -0.482 OA
ATOM     20  H   UNL     1      36.875 -25.400 -15.052  0.00  0.00    +0.295 HD
ENDBRANCH  18  19
ENDBRANCH  16  18
BRANCH  16  21
ATOM     21  C   UNL     1      36.497 -21.678 -17.115  0.00  0.00    -0.006 C 
BRANCH  21  22
ATOM     22  C   UNL     1      36.625 -21.897 -18.632  0.00  0.00    +0.025 C 
BRANCH  22  23
ATOM     23  C   UNL     1      35.602 -21.159 -19.459  0.00  0.00    -0.022 C 
ATOM     24  C   UNL     1      36.007 -20.142 -20.324  0.00  0.00    -0.004 C 
ATOM     25  C   UNL     1      34.251 -21.491 -19.358  0.00  0.00    -0.004 C 
ATOM     26  C   UNL     1      35.061 -19.458 -21.088  0.00  0.00    -0.000 C 
ATOM     27  C   UNL     1      33.306 -20.809 -20.123  0.00  0.00    -0.000 C 
ATOM     28  C   UNL     1      33.711 -19.792 -20.989  0.00  0.00    -0.000 C 
ENDBRANCH  22  23
ENDBRANCH  21  22
ENDBRANCH  16  21
ENDBRANCH  13  16
ENDBRANCH   1  13
BRANCH   1  29
ATOM     29  CB  UNL     1      33.912 -23.725 -13.539  0.00  0.00    -0.013 C 
BRANCH  29  30
ATOM     30  CG  UNL     1      35.018 -24.471 -12.781  0.00  0.00    -0.004 C 
BRANCH  30  31
ATOM     31  CD  UNL     1      35.907 -23.548 -11.940  0.00  0.00    -0.024 C 
BRANCH  31  32
ATOM     32  CE  UNL     1      37.259 -24.169 -11.589  0.00  0.00    -0.086 C 
BRANCH  32  33
ATOM     33  NZ  UNL     1      37.602 -25.207 -12.556  0.00  0.00    +0.380 N 
ATOM     34  HZ1 UNL     1      36.761 -25.726 -12.811  0.00  0.00    -0.089 HD
ATOM     35  HZ2 UNL     1      38.284 -25.844 -12.144  0.00  0.00    -0.089 HD
ATOM     36  HZ3 UNL     1      38.000 -24.775 -13.391  0.00  0.00    -0.089 HD
ENDBRANCH  32  33
ENDBRANCH  31  32
ENDBRANCH  30  31
ENDBRANCH  29  30
ENDBRANCH   1  29
TORSDOF 15
ENDMDL
MODEL 6
REMARK VINA RESULT:      -8.3      8.799     13.480
REMARK  Name = 5362119
REMARK  15 active torsions:
REMARK  status: ('A' for Active; 'I' for Inactive)
REMARK    1  A    between atoms: CA_1  and  C_8
REMARK    2  A    between atoms: CA_1  and  N_13
REMARK    3  A    between atoms: CA_1  and  CB_29
REMARK    4  A    between atoms: CA_4  and  C_10
REMARK    5  A    between atoms: C_10  and  O_11
REMARK    6  A    between atoms: N_13  and  CA_16
REMARK    7  A    between atoms: CA_16  and  C_18
REMARK    8  A    between atoms: CA_16  and  C_21
REMARK    9  A    between atoms: C_18  and  O_19
REMARK   10  A    between atoms: C_21  and  C_22
REMARK   11  A    between atoms: C_22  and  C_23
REMARK   12  A    between atoms: CB_29  and  CG_30
REMARK   13  A    between atoms: CG_30  and  CD_31
REMARK   14  A    between atoms: CD_31  and  CE_32
REMARK   15  A    between atoms: CE_32  and  NZ_33
REMARK                            x       y       z     vdW  Elec       q    Type
REMARK                         _______ _______ _______ _____ _____    ______ ____
ROOT
ATOM      1  CA  UNL     1      33.619 -13.160 -23.826  0.00  0.00    +0.018 C 
ENDROOT
BRANCH   1   8
ATOM      2  O   UNL     1      32.144 -12.097 -22.288  0.00  0.00    -0.277 OA
ATOM      3  N   UNL     1      33.515 -10.729 -23.557  0.00  0.00    -0.273 N 
ATOM      4  CA  UNL     1      33.165  -9.480 -22.892  0.00  0.00    +0.174 C 
ATOM      5  CB  UNL     1      34.239  -8.492 -23.332  0.00  0.00    +0.033 C 
ATOM      6  CD  UNL     1      34.550 -10.517 -24.564  0.00  0.00    +0.094 C 
ATOM      7  CG  UNL     1      34.650  -9.006 -24.711  0.00  0.00    +0.024 C 
ATOM      8  C   UNL     1      33.020 -11.955 -23.144  0.00  0.00    +0.206 C 
BRANCH   4  10
ATOM      9  OXT UNL     1      31.593  -8.260 -24.265  0.00  0.00    -0.248 OA
ATOM     10  C   UNL     1      31.807  -9.082 -23.386  0.00  0.00    +0.332 C 
BRANCH  10  11
ATOM     11  O   UNL     1      30.838  -9.757 -22.721  0.00  0.00    -0.479 OA
ATOM     12  H   UNL     1      30.855  -9.800 -21.785  0.00  0.00    +0.295 HD
ENDBRANCH  10  11
ENDBRANCH   4  10
ENDBRANCH   1   8
BRANCH   1  13
ATOM     13  N   UNL     1      34.556 -13.735 -22.865  0.00  0.00    +0.399 N 
ATOM     14  H1  UNL     1      34.604 -13.133 -22.043  0.00  0.00    -0.083 HD
ATOM     15  H2  UNL     1      35.473 -13.807 -23.306  0.00  0.00    -0.083 HD
BRANCH  13  16
ATOM     16  CA  UNL     1      34.129 -15.065 -22.458  0.00  0.00    +0.041 C 
BRANCH  16  18
ATOM     17  OXT UNL     1      34.835 -15.540 -20.176  0.00  0.00    -0.253 OA
ATOM     18  C   UNL     1      34.015 -15.050 -20.943  0.00  0.00    +0.293 C 
BRANCH  18  19
ATOM     19  O   UNL     1      32.905 -14.401 -20.511  0.00  0.00    -0.482 OA
ATOM     20  H   UNL     1      32.150 -14.890 -20.249  0.00  0.00    +0.295 HD
ENDBRANCH  18  19
ENDBRANCH  16  18
BRANCH  16  21
ATOM     21  C   UNL     1      35.167 -16.095 -22.924  0.00  0.00    -0.006 C 
BRANCH  21  22
ATOM     22  C   UNL     1      34.599 -17.501 -23.178  0.00  0.00    +0.025 C 
BRANCH  22  23
ATOM     23  C   UNL     1      34.944 -18.515 -22.116  0.00  0.00    -0.022 C 
ATOM     24  C   UNL     1      36.262 -18.642 -21.674  0.00  0.00    -0.004 C 
ATOM     25  C   UNL     1      33.947 -19.328 -21.576  0.00  0.00    -0.004 C 
ATOM     26  C   UNL     1      36.581 -19.581 -20.692  0.00  0.00    -0.000 C 
ATOM     27  C   UNL     1      34.266 -20.265 -20.594  0.00  0.00    -0.000 C 
ATOM     28  C   UNL     1      35.584 -20.392 -20.152  0.00  0.00    -0.000 C 
ENDBRANCH  22  23
ENDBRANCH  21  22
ENDBRANCH  16  21
ENDBRANCH  13  16
ENDBRANCH   1  13
BRANCH   1  29
ATOM     29  CB  UNL     1      32.542 -14.178 -24.215  0.00  0.00    -0.013 C 
BRANCH  29  30
ATOM     30  CG  UNL     1      32.727 -14.689 -25.650  0.00  0.00    -0.004 C 
BRANCH  30  31
ATOM     31  CD  UNL     1      33.760 -13.889 -26.451  0.00  0.00    -0.024 C 
BRANCH  31  32
ATOM     32  CE  UNL     1      33.130 -12.878 -27.408  0.00  0.00    -0.086 C 
BRANCH  32  33
ATOM     33  NZ  UNL     1      31.724 -13.201 -27.627  0.00  0.00    +0.380 N 
ATOM     34  HZ1 UNL     1      31.437 -13.931 -26.974  0.00  0.00    -0.089 HD
ATOM     35  HZ2 UNL     1      31.596 -13.531 -28.584  0.00  0.00    -0.089 HD
ATOM     36  HZ3 UNL     1      31.156 -12.367 -27.476  0.00  0.00    -0.089 HD
ENDBRANCH  32  33
ENDBRANCH  31  32
ENDBRANCH  30  31
ENDBRANCH  29  30
ENDBRANCH   1  29
TORSDOF 15
ENDMDL
MODEL 7
REMARK VINA RESULT:      -8.3      2.559      6.603
REMARK  Name = 5362119
REMARK  15 active torsions:
REMARK  status: ('A' for Active; 'I' for Inactive)
REMARK    1  A    between atoms: CA_1  and  C_8
REMARK    2  A    between atoms: CA_1  and  N_13
REMARK    3  A    between atoms: CA_1  and  CB_29
REMARK    4  A    between atoms: CA_4  and  C_10
REMARK    5  A    between atoms: C_10  and  O_11
REMARK    6  A    between atoms: N_13  and  CA_16
REMARK    7  A    between atoms: CA_16  and  C_18
REMARK    8  A    between atoms: CA_16  and  C_21
REMARK    9  A    between atoms: C_18  and  O_19
REMARK   10  A    between atoms: C_21  and  C_22
REMARK   11  A    between atoms: C_22  and  C_23
REMARK   12  A    between atoms: CB_29  and  CG_30
REMARK   13  A    between atoms: CG_30  and  CD_31
REMARK   14  A    between atoms: CD_31  and  CE_32
REMARK   15  A    between atoms: CE_32  and  NZ_33
REMARK                            x       y       z     vdW  Elec       q    Type
REMARK                         _______ _______ _______ _____ _____    ______ ____
ROOT
ATOM      1  CA  UNL     1      36.273 -23.110 -16.117  0.00  0.00    +0.018 C 
ENDROOT
BRANCH   1   8
ATOM      2  O   UNL     1      36.959 -22.150 -14.048  0.00  0.00    -0.277 OA
ATOM      3  N   UNL     1      37.038 -24.458 -14.221  0.00  0.00    -0.273 N 
ATOM      4  CA  UNL     1      37.380 -24.717 -12.828  0.00  0.00    +0.174 C 
ATOM      5  CB  UNL     1      37.117 -26.207 -12.635  0.00  0.00    +0.033 C 
ATOM      6  CD  UNL     1      36.844 -25.704 -14.956  0.00  0.00    +0.094 C 
ATOM      7  CG  UNL     1      37.358 -26.792 -14.025  0.00  0.00    +0.024 C 
ATOM      8  C   UNL     1      36.784 -23.182 -14.699  0.00  0.00    +0.206 C 
BRANCH   4  10
ATOM      9  OXT UNL     1      39.742 -24.857 -13.321  0.00  0.00    -0.248 OA
ATOM     10  C   UNL     1      38.831 -24.381 -12.659  0.00  0.00    +0.332 C 
BRANCH  10  11
ATOM     11  O   UNL     1      39.000 -23.475 -11.666  0.00  0.00    -0.479 OA
ATOM     12  H   UNL     1      38.602 -22.629 -11.731  0.00  0.00    +0.295 HD
ENDBRANCH  10  11
ENDBRANCH   4  10
ENDBRANCH   1   8
BRANCH   1  13
ATOM     13  N   UNL     1      34.973 -22.451 -16.037  0.00  0.00    +0.399 N 
ATOM     14  H1  UNL     1      34.891 -21.780 -16.801  0.00  0.00    -0.083 HD
ATOM     15  H2  UNL     1      34.903 -21.973 -15.137  0.00  0.00    -0.083 HD
BRANCH  13  16
ATOM     16  CA  UNL     1      33.893 -23.421 -16.135  0.00  0.00    +0.041 C 
BRANCH  16  18
ATOM     17  OXT UNL     1      32.323 -22.429 -17.709  0.00  0.00    -0.253 OA
ATOM     18  C   UNL     1      33.235 -23.216 -17.488  0.00  0.00    +0.293 C 
BRANCH  18  19
ATOM     19  O   UNL     1      33.787 -23.988 -18.458  0.00  0.00    -0.482 OA
ATOM     20  H   UNL     1      33.429 -24.833 -18.643  0.00  0.00    +0.295 HD
ENDBRANCH  18  19
ENDBRANCH  16  18
BRANCH  16  21
ATOM     21  C   UNL     1      32.895 -23.184 -14.993  0.00  0.00    -0.006 C 
BRANCH  21  22
ATOM     22  C   UNL     1      31.827 -24.280 -14.843  0.00  0.00    +0.025 C 
BRANCH  22  23
ATOM     23  C   UNL     1      30.449 -23.878 -15.307  0.00  0.00    -0.022 C 
ATOM     24  C   UNL     1      29.927 -22.635 -14.948  0.00  0.00    -0.004 C 
ATOM     25  C   UNL     1      29.695 -24.749 -16.093  0.00  0.00    -0.004 C 
ATOM     26  C   UNL     1      28.653 -22.263 -15.377  0.00  0.00    -0.000 C 
ATOM     27  C   UNL     1      28.421 -24.377 -16.522  0.00  0.00    -0.000 C 
ATOM     28  C   UNL     1      27.900 -23.134 -16.164  0.00  0.00    -0.000 C 
ENDBRANCH  22  23
ENDBRANCH  21  22
ENDBRANCH  16  21
ENDBRANCH  13  16
ENDBRANCH   1  13
BRANCH   1  29
ATOM     29  CB  UNL     1      37.230 -22.325 -17.020  0.00  0.00    -0.013 C 
BRANCH  29  30
ATOM     30  CG  UNL     1      36.491 -21.295 -17.883  0.00  0.00    -0.004 C 
BRANCH  30  31
ATOM     31  CD  UNL     1      36.483 -21.645 -19.375  0.00  0.00    -0.024 C 
BRANCH  31  32
ATOM     32  CE  UNL     1      35.693 -20.650 -20.224  0.00  0.00    -0.086 C 
BRANCH  32  33
ATOM     33  NZ  UNL     1      36.444 -19.407 -20.372  0.00  0.00    +0.380 N 
ATOM     34  HZ1 UNL     1      37.433 -19.583 -20.191  0.00  0.00    -0.089 HD
ATOM     35  HZ2 UNL     1      36.094 -18.718 -19.707  0.00  0.00    -0.089 HD
ATOM     36  HZ3 UNL     1      36.331 -19.053 -21.322  0.00  0.00    -0.089 HD
ENDBRANCH  32  33
ENDBRANCH  31  32
ENDBRANCH  30  31
ENDBRANCH  29  30
ENDBRANCH   1  29
TORSDOF 15
ENDMDL
MODEL 8
REMARK VINA RESULT:      -8.3     12.198     15.751
REMARK  Name = 5362119
REMARK  15 active torsions:
REMARK  status: ('A' for Active; 'I' for Inactive)
REMARK    1  A    between atoms: CA_1  and  C_8
REMARK    2  A    between atoms: CA_1  and  N_13
REMARK    3  A    between atoms: CA_1  and  CB_29
REMARK    4  A    between atoms: CA_4  and  C_10
REMARK    5  A    between atoms: C_10  and  O_11
REMARK    6  A    between atoms: N_13  and  CA_16
REMARK    7  A    between atoms: CA_16  and  C_18
REMARK    8  A    between atoms: CA_16  and  C_21
REMARK    9  A    between atoms: C_18  and  O_19
REMARK   10  A    between atoms: C_21  and  C_22
REMARK   11  A    between atoms: C_22  and  C_23
REMARK   12  A    between atoms: CB_29  and  CG_30
REMARK   13  A    between atoms: CG_30  and  CD_31
REMARK   14  A    between atoms: CD_31  and  CE_32
REMARK   15  A    between atoms: CE_32  and  NZ_33
REMARK                            x       y       z     vdW  Elec       q    Type
REMARK                         _______ _______ _______ _____ _____    ______ ____
ROOT
ATOM      1  CA  UNL     1      31.842  -9.834 -23.013  0.00  0.00    +0.018 C 
ENDROOT
BRANCH   1   8
ATOM      2  O   UNL     1      32.854  -8.402 -21.402  0.00  0.00    -0.277 OA
ATOM      3  N   UNL     1      31.757  -7.392 -23.174  0.00  0.00    -0.273 N 
ATOM      4  CA  UNL     1      32.155  -6.027 -22.859  0.00  0.00    +0.174 C 
ATOM      5  CB  UNL     1      31.841  -5.231 -24.121  0.00  0.00    +0.033 C 
ATOM      6  CD  UNL     1      30.989  -7.445 -24.414  0.00  0.00    +0.094 C 
ATOM      7  CG  UNL     1      30.671  -5.993 -24.739  0.00  0.00    +0.024 C 
ATOM      8  C   UNL     1      32.206  -8.484 -22.448  0.00  0.00    +0.206 C 
BRANCH   4  10
ATOM      9  OXT UNL     1      30.174  -5.161 -21.777  0.00  0.00    -0.248 OA
ATOM     10  C   UNL     1      31.320  -5.579 -21.697  0.00  0.00    +0.332 C 
BRANCH  10  11
ATOM     11  O   UNL     1      32.010  -5.698 -20.537  0.00  0.00    -0.479 OA
ATOM     12  H   UNL     1      32.019  -6.515 -20.079  0.00  0.00    +0.295 HD
ENDBRANCH  10  11
ENDBRANCH   4  10
ENDBRANCH   1   8
BRANCH   1  13
ATOM     13  N   UNL     1      32.619  -9.973 -24.241  0.00  0.00    +0.399 N 
ATOM     14  H1  UNL     1      32.869  -9.046 -24.585  0.00  0.00    -0.083 HD
ATOM     15  H2  UNL     1      32.054 -10.468 -24.932  0.00  0.00    -0.083 HD
BRANCH  13  16
ATOM     16  CA  UNL     1      33.835 -10.736 -24.001  0.00  0.00    +0.041 C 
BRANCH  16  18
ATOM     17  OXT UNL     1      35.226  -8.744 -23.839  0.00  0.00    -0.253 OA
ATOM     18  C   UNL     1      35.003  -9.832 -24.356  0.00  0.00    +0.293 C 
BRANCH  18  19
ATOM     19  O   UNL     1      35.808 -10.371 -25.306  0.00  0.00    -0.482 OA
ATOM     20  H   UNL     1      36.524  -9.873 -25.650  0.00  0.00    +0.295 HD
ENDBRANCH  18  19
ENDBRANCH  16  18
BRANCH  16  21
ATOM     21  C   UNL     1      33.824 -11.996 -24.877  0.00  0.00    -0.006 C 
BRANCH  21  22
ATOM     22  C   UNL     1      32.948 -13.139 -24.338  0.00  0.00    +0.025 C 
BRANCH  22  23
ATOM     23  C   UNL     1      33.639 -14.478 -24.271  0.00  0.00    -0.022 C 
ATOM     24  C   UNL     1      33.554 -15.362 -25.347  0.00  0.00    -0.004 C 
ATOM     25  C   UNL     1      34.363 -14.834 -23.132  0.00  0.00    -0.004 C 
ATOM     26  C   UNL     1      34.193 -16.600 -25.284  0.00  0.00    -0.000 C 
ATOM     27  C   UNL     1      35.002 -16.072 -23.070  0.00  0.00    -0.000 C 
ATOM     28  C   UNL     1      34.917 -16.956 -24.146  0.00  0.00    -0.000 C 
ENDBRANCH  22  23
ENDBRANCH  21  22
ENDBRANCH  16  21
ENDBRANCH  13  16
ENDBRANCH   1  13
BRANCH   1  29
ATOM     29  CB  UNL     1      32.169 -10.962 -22.028  0.00  0.00    -0.013 C 
BRANCH  29  30
ATOM     30  CG  UNL     1      30.956 -11.347 -21.172  0.00  0.00    -0.004 C 
BRANCH  30  31
ATOM     31  CD  UNL     1      31.301 -11.572 -19.696  0.00  0.00    -0.024 C 
BRANCH  31  32
ATOM     32  CE  UNL     1      31.258 -10.290 -18.864  0.00  0.00    -0.086 C 
BRANCH  32  33
ATOM     33  NZ  UNL     1      32.557  -9.626 -18.896  0.00  0.00    +0.380 N 
ATOM     34  HZ1 UNL     1      33.132  -9.965 -18.124  0.00  0.00    -0.089 HD
ATOM     35  HZ2 UNL     1      32.427  -8.618 -18.807  0.00  0.00    -0.089 HD
ATOM     36  HZ3 UNL     1      33.022  -9.832 -19.781  0.00  0.00    -0.089 HD
ENDBRANCH  32  33
ENDBRANCH  31  32
ENDBRANCH  30  31
ENDBRANCH  29  30
ENDBRANCH   1  29
TORSDOF 15
ENDMDL
MODEL 9
REMARK VINA RESULT:      -8.1      2.244      5.259
REMARK  Name = 5362119
REMARK  15 active torsions:
REMARK  status: ('A' for Active; 'I' for Inactive)
REMARK    1  A    between atoms: CA_1  and  C_8
REMARK    2  A    between atoms: CA_1  and  N_13
REMARK    3  A    between atoms: CA_1  and  CB_29
REMARK    4  A    between atoms: CA_4  and  C_10
REMARK    5  A    between atoms: C_10  and  O_11
REMARK    6  A    between atoms: N_13  and  CA_16
REMARK    7  A    between atoms: CA_16  and  C_18
REMARK    8  A    between atoms: CA_16  and  C_21
REMARK    9  A    between atoms: C_18  and  O_19
REMARK   10  A    between atoms: C_21  and  C_22
REMARK   11  A    between atoms: C_22  and  C_23
REMARK   12  A    between atoms: CB_29  and  CG_30
REMARK   13  A    between atoms: CG_30  and  CD_31
REMARK   14  A    between atoms: CD_31  and  CE_32
REMARK   15  A    between atoms: CE_32  and  NZ_33
REMARK                            x       y       z     vdW  Elec       q    Type
REMARK                         _______ _______ _______ _____ _____    ______ ____
ROOT
ATOM      1  CA  UNL     1      34.471 -23.300 -14.877  0.00  0.00    +0.018 C 
ENDROOT
BRANCH   1   8
ATOM      2  O   UNL     1      35.858 -22.982 -12.967  0.00  0.00    -0.277 OA
ATOM      3  N   UNL     1      36.229 -24.881 -14.239  0.00  0.00    -0.273 N 
ATOM      4  CA  UNL     1      37.207 -25.490 -13.347  0.00  0.00    +0.174 C 
ATOM      5  CB  UNL     1      37.313 -26.936 -13.817  0.00  0.00    +0.033 C 
ATOM      6  CD  UNL     1      35.930 -25.756 -15.369  0.00  0.00    +0.094 C 
ATOM      7  CG  UNL     1      36.985 -26.850 -15.306  0.00  0.00    +0.024 C 
ATOM      8  C   UNL     1      35.577 -23.697 -13.932  0.00  0.00    +0.206 C 
BRANCH   4  10
ATOM      9  OXT UNL     1      39.194 -24.796 -14.537  0.00  0.00    -0.248 OA
ATOM     10  C   UNL     1      38.497 -24.749 -13.534  0.00  0.00    +0.332 C 
BRANCH  10  11
ATOM     11  O   UNL     1      38.792 -24.016 -12.434  0.00  0.00    -0.479 OA
ATOM     12  H   UNL     1      38.695 -24.391 -11.580  0.00  0.00    +0.295 HD
ENDBRANCH  10  11
ENDBRANCH   4  10
ENDBRANCH   1   8
BRANCH   1  13
ATOM     13  N   UNL     1      35.002 -23.509 -16.220  0.00  0.00    +0.399 N 
ATOM     14  H1  UNL     1      34.677 -24.410 -16.571  0.00  0.00    -0.083 HD
ATOM     15  H2  UNL     1      36.021 -23.493 -16.175  0.00  0.00    -0.083 HD
BRANCH  13  16
ATOM     16  CA  UNL     1      34.558 -22.457 -17.122  0.00  0.00    +0.041 C 
BRANCH  16  18
ATOM     17  OXT UNL     1      32.365 -22.447 -18.179  0.00  0.00    -0.253 OA
ATOM     18  C   UNL     1      33.416 -23.030 -17.943  0.00  0.00    +0.293 C 
BRANCH  18  19
ATOM     19  O   UNL     1      33.691 -24.269 -18.424  0.00  0.00    -0.482 OA
ATOM     20  H   UNL     1      33.136 -24.990 -18.200  0.00  0.00    +0.295 HD
ENDBRANCH  18  19
ENDBRANCH  16  18
BRANCH  16  21
ATOM     21  C   UNL     1      35.728 -22.034 -18.020  0.00  0.00    -0.006 C 
BRANCH  21  22
ATOM     22  C   UNL     1      35.426 -22.085 -19.527  0.00  0.00    +0.025 C 
BRANCH  22  23
ATOM     23  C   UNL     1      35.240 -20.735 -20.174  0.00  0.00    -0.022 C 
ATOM     24  C   UNL     1      33.955 -20.260 -20.440  0.00  0.00    -0.004 C 
ATOM     25  C   UNL     1      36.352 -19.962 -20.508  0.00  0.00    -0.004 C 
ATOM     26  C   UNL     1      33.784 -19.012 -21.039  0.00  0.00    -0.000 C 
ATOM     27  C   UNL     1      36.180 -18.714 -21.105  0.00  0.00    -0.000 C 
ATOM     28  C   UNL     1      34.895 -18.239 -21.372  0.00  0.00    -0.000 C 
ENDBRANCH  22  23
ENDBRANCH  21  22
ENDBRANCH  16  21
ENDBRANCH  13  16
ENDBRANCH   1  13
BRANCH   1  29
ATOM     29  CB  UNL     1      33.210 -24.142 -14.650  0.00  0.00    -0.013 C 
BRANCH  29  30
ATOM     30  CG  UNL     1      32.058 -23.308 -14.075  0.00  0.00    -0.004 C 
BRANCH  30  31
ATOM     31  CD  UNL     1      30.841 -23.230 -15.004  0.00  0.00    -0.024 C 
BRANCH  31  32
ATOM     32  CE  UNL     1      30.352 -24.599 -15.473  0.00  0.00    -0.086 C 
BRANCH  32  33
ATOM     33  NZ  UNL     1      29.787 -25.343 -14.352  0.00  0.00    +0.380 N 
ATOM     34  HZ1 UNL     1      30.358 -25.191 -13.520  0.00  0.00    -0.089 HD
ATOM     35  HZ2 UNL     1      29.771 -26.338 -14.577  0.00  0.00    -0.089 HD
ATOM     36  HZ3 UNL     1      28.835 -25.019 -14.175  0.00  0.00    -0.089 HD
ENDBRANCH  32  33
ENDBRANCH  31  32
ENDBRANCH  30  31
ENDBRANCH  29  30
ENDBRANCH   1  29
TORSDOF 15
ENDMDL
