MODEL 1
REMARK VINA RESULT:     -10.5      0.000      0.000
REMARK  Name = 9549257
REMARK  5 active torsions:
REMARK  status: ('A' for Active; 'I' for Inactive)
REMARK    1  A    between atoms: N_1  and  C_5
REMARK    2  A    between atoms: N_1  and  S_19
REMARK    3  A    between atoms: N_4  and  C_9
REMARK    4  A    between atoms: C_9  and  C_14
REMARK    5  A    between atoms: S_19  and  C_24
REMARK                            x       y       z     vdW  Elec       q    Type
REMARK                         _______ _______ _______ _____ _____    ______ ____
ROOT
ATOM      1  N   UNL     1      33.711 -21.406 -18.790  0.00  0.00    -0.171 NA
ATOM      2  H   UNL     1      34.616 -21.142 -18.403  0.00  0.00    +0.149 HD
ENDROOT
BRANCH   1   5
ATOM      3  O   UNL     1      36.224 -21.183 -20.476  0.00  0.00    -0.273 OA
ATOM      4  N   UNL     1      34.862 -19.304 -20.869  0.00  0.00    -0.272 N 
ATOM      5  C   UNL     1      33.812 -21.299 -20.255  0.00  0.00    +0.153 C 
ATOM      6  C   UNL     1      32.776 -20.331 -20.815  0.00  0.00    +0.048 C 
ATOM      7  C   UNL     1      33.459 -18.977 -20.759  0.00  0.00    +0.096 C 
ATOM      8  C   UNL     1      35.133 -20.635 -20.554  0.00  0.00    +0.242 C 
BRANCH   4   9
ATOM      9  C   UNL     1      35.857 -18.286 -21.121  0.00  0.00    +0.152 C 
ATOM     10  C   UNL     1      37.224 -18.871 -21.387  0.00  0.00    +0.031 C 
BRANCH   9  14
ATOM     11  O   UNL     1      33.064 -14.116 -21.675  0.00  0.00    -0.350 OA
ATOM     12  O   UNL     1      35.417 -18.090 -23.442  0.00  0.00    -0.273 OA
ATOM     13  N   UNL     1      34.807 -16.286 -22.115  0.00  0.00    -0.273 N 
ATOM     14  C   UNL     1      35.345 -17.552 -22.335  0.00  0.00    +0.244 C 
ATOM     15  C   UNL     1      34.820 -15.566 -20.837  0.00  0.00    +0.126 C 
ATOM     16  C   UNL     1      34.282 -15.508 -23.238  0.00  0.00    +0.126 C 
ATOM     17  C   UNL     1      33.458 -14.937 -20.572  0.00  0.00    +0.164 C 
ATOM     18  C   UNL     1      32.941 -14.888 -22.872  0.00  0.00    +0.164 C 
ENDBRANCH   9  14
ENDBRANCH   4   9
ENDBRANCH   1   5
BRANCH   1  19
ATOM     19  S   UNL     1      33.295 -22.929 -18.118  0.00  0.00    +0.073 S 
ATOM     20  O   UNL     1      33.751 -23.982 -19.003  0.00  0.00    -0.152 OA
ATOM     21  O   UNL     1      31.925 -22.881 -17.646  0.00  0.00    -0.152 OA
BRANCH  19  24
ATOM     22 CL   UNL     1      38.160 -23.523 -11.777  0.00  0.00    -0.082 Cl
ATOM     23  N   UNL     1      33.657 -23.609 -15.499  0.00  0.00    -0.297 N 
ATOM     24  C   UNL     1      34.252 -23.121 -16.615  0.00  0.00    +0.173 C 
ATOM     25  C   UNL     1      35.560 -22.853 -16.355  0.00  0.00    +0.036 C 
ATOM     26  C   UNL     1      35.790 -23.195 -14.994  0.00  0.00    +0.017 C 
ATOM     27  C   UNL     1      34.580 -23.668 -14.480  0.00  0.00    +0.049 C 
ATOM     28  C   UNL     1      36.915 -23.150 -14.148  0.00  0.00    +0.013 C 
ATOM     29  C   UNL     1      34.439 -24.097 -13.156  0.00  0.00    +0.015 C 
ATOM     30  C   UNL     1      36.789 -23.576 -12.821  0.00  0.00    +0.058 C 
ATOM     31  C   UNL     1      35.569 -24.043 -12.334  0.00  0.00    +0.013 C 
ATOM     32  H   UNL     1      32.713 -23.879 -15.428  0.00  0.00    +0.153 HD
ENDBRANCH  19  24
ENDBRANCH   1  19
TORSDOF 5
ENDMDL
MODEL 2
REMARK VINA RESULT:     -10.5      3.854      6.334
REMARK  Name = 9549257
REMARK  5 active torsions:
REMARK  status: ('A' for Active; 'I' for Inactive)
REMARK    1  A    between atoms: N_1  and  C_5
REMARK    2  A    between atoms: N_1  and  S_19
REMARK    3  A    between atoms: N_4  and  C_9
REMARK    4  A    between atoms: C_9  and  C_14
REMARK    5  A    between atoms: S_19  and  C_24
REMARK                            x       y       z     vdW  Elec       q    Type
REMARK                         _______ _______ _______ _____ _____    ______ ____
ROOT
ATOM      1  N   UNL     1      35.299 -16.779 -21.949  0.00  0.00    -0.171 NA
ATOM      2  H   UNL     1      35.839 -16.104 -22.490  0.00  0.00    +0.149 HD
ENDROOT
BRANCH   1   5
ATOM      3  O   UNL     1      33.799 -15.794 -24.397  0.00  0.00    -0.273 OA
ATOM      4  N   UNL     1      33.685 -14.156 -22.712  0.00  0.00    -0.272 N 
ATOM      5  C   UNL     1      33.882 -16.387 -22.048  0.00  0.00    +0.153 C 
ATOM      6  C   UNL     1      33.456 -15.538 -20.855  0.00  0.00    +0.048 C 
ATOM      7  C   UNL     1      33.785 -14.116 -21.271  0.00  0.00    +0.096 C 
ATOM      8  C   UNL     1      33.769 -15.450 -23.224  0.00  0.00    +0.242 C 
BRANCH   4   9
ATOM      9  C   UNL     1      33.665 -12.944 -23.501  0.00  0.00    +0.152 C 
ATOM     10  C   UNL     1      33.382 -13.213 -24.960  0.00  0.00    +0.031 C 
BRANCH   9  14
ATOM     11  O   UNL     1      33.061  -7.967 -22.900  0.00  0.00    -0.350 OA
ATOM     12  O   UNL     1      31.689 -12.670 -22.221  0.00  0.00    -0.273 OA
ATOM     13  N   UNL     1      32.619 -10.741 -23.119  0.00  0.00    -0.273 N 
ATOM     14  C   UNL     1      32.565 -12.114 -22.888  0.00  0.00    +0.244 C 
ATOM     15  C   UNL     1      33.570 -10.065 -24.006  0.00  0.00    +0.126 C 
ATOM     16  C   UNL     1      31.594  -9.863 -22.555  0.00  0.00    +0.126 C 
ATOM     17  C   UNL     1      34.127  -8.818 -23.332  0.00  0.00    +0.164 C 
ATOM     18  C   UNL     1      32.234  -8.629 -21.938  0.00  0.00    +0.164 C 
ENDBRANCH   9  14
ENDBRANCH   4   9
ENDBRANCH   1   5
BRANCH   1  19
ATOM     19  S   UNL     1      35.744 -18.342 -22.497  0.00  0.00    +0.073 S 
ATOM     20  O   UNL     1      37.189 -18.453 -22.501  0.00  0.00    -0.152 OA
ATOM     21  O   UNL     1      34.959 -18.676 -23.670  0.00  0.00    -0.152 OA
BRANCH  19  24
ATOM     22 CL   UNL     1      32.521 -23.449 -17.228  0.00  0.00    -0.082 Cl
ATOM     23  N   UNL     1      36.079 -20.116 -20.449  0.00  0.00    -0.297 N 
ATOM     24  C   UNL     1      35.178 -19.514 -21.264  0.00  0.00    +0.173 C 
ATOM     25  C   UNL     1      33.926 -19.948 -20.962  0.00  0.00    +0.036 C 
ATOM     26  C   UNL     1      34.057 -20.879 -19.894  0.00  0.00    +0.017 C 
ATOM     27  C   UNL     1      35.418 -20.965 -19.591  0.00  0.00    +0.049 C 
ATOM     28  C   UNL     1      33.146 -21.656 -19.153  0.00  0.00    +0.013 C 
ATOM     29  C   UNL     1      35.915 -21.796 -18.581  0.00  0.00    +0.015 C 
ATOM     30  C   UNL     1      33.628 -22.492 -18.140  0.00  0.00    +0.058 C 
ATOM     31  C   UNL     1      34.992 -22.559 -17.858  0.00  0.00    +0.013 C 
ATOM     32  H   UNL     1      37.052 -19.970 -20.468  0.00  0.00    +0.153 HD
ENDBRANCH  19  24
ENDBRANCH   1  19
TORSDOF 5
ENDMDL
MODEL 3
REMARK VINA RESULT:     -10.2      3.859      9.577
REMARK  Name = 9549257
REMARK  5 active torsions:
REMARK  status: ('A' for Active; 'I' for Inactive)
REMARK    1  A    between atoms: N_1  and  C_5
REMARK    2  A    between atoms: N_1  and  S_19
REMARK    3  A    between atoms: N_4  and  C_9
REMARK    4  A    between atoms: C_9  and  C_14
REMARK    5  A    between atoms: S_19  and  C_24
REMARK                            x       y       z     vdW  Elec       q    Type
REMARK                         _______ _______ _______ _____ _____    ______ ____
ROOT
ATOM      1  N   UNL     1      34.773 -23.238 -17.316  0.00  0.00    -0.171 NA
ATOM      2  H   UNL     1      35.673 -22.927 -17.682  0.00  0.00    +0.149 HD
ENDROOT
BRANCH   1   5
ATOM      3  O   UNL     1      36.844 -22.267 -15.321  0.00  0.00    -0.273 OA
ATOM      4  N   UNL     1      35.376 -23.758 -14.245  0.00  0.00    -0.272 N 
ATOM      5  C   UNL     1      34.545 -22.526 -16.048  0.00  0.00    +0.153 C 
ATOM      6  C   UNL     1      33.384 -23.134 -15.269  0.00  0.00    +0.048 C 
ATOM      7  C   UNL     1      34.023 -24.228 -14.435  0.00  0.00    +0.096 C 
ATOM      8  C   UNL     1      35.748 -22.789 -15.176  0.00  0.00    +0.242 C 
BRANCH   4   9
ATOM      9  C   UNL     1      36.261 -24.375 -13.281  0.00  0.00    +0.152 C 
ATOM     10  C   UNL     1      35.523 -24.876 -12.062  0.00  0.00    +0.031 C 
BRANCH   9  14
ATOM     11  O   UNL     1      41.061 -25.551 -14.316  0.00  0.00    -0.350 OA
ATOM     12  O   UNL     1      36.183 -26.265 -14.709  0.00  0.00    -0.273 OA
ATOM     13  N   UNL     1      38.275 -25.656 -13.907  0.00  0.00    -0.273 N 
ATOM     14  C   UNL     1      36.894 -25.519 -14.031  0.00  0.00    +0.244 C 
ATOM     15  C   UNL     1      39.131 -24.869 -13.014  0.00  0.00    +0.126 C 
ATOM     16  C   UNL     1      38.969 -26.737 -14.607  0.00  0.00    +0.126 C 
ATOM     17  C   UNL     1      40.390 -24.423 -13.746  0.00  0.00    +0.164 C 
ATOM     18  C   UNL     1      40.231 -26.211 -15.276  0.00  0.00    +0.164 C 
ENDBRANCH   9  14
ENDBRANCH   4   9
ENDBRANCH   1   5
BRANCH   1  19
ATOM     19  S   UNL     1      33.619 -23.045 -18.570  0.00  0.00    +0.073 S 
ATOM     20  O   UNL     1      32.334 -22.710 -17.990  0.00  0.00    -0.152 OA
ATOM     21  O   UNL     1      33.758 -24.137 -19.515  0.00  0.00    -0.152 OA
BRANCH  19  24
ATOM     22 CL   UNL     1      35.074 -16.467 -22.910  0.00  0.00    -0.082 Cl
ATOM     23  N   UNL     1      35.424 -21.328 -19.688  0.00  0.00    -0.297 N 
ATOM     24  C   UNL     1      34.107 -21.604 -19.518  0.00  0.00    +0.173 C 
ATOM     25  C   UNL     1      33.357 -20.663 -20.150  0.00  0.00    +0.036 C 
ATOM     26  C   UNL     1      34.264 -19.744 -20.748  0.00  0.00    +0.017 C 
ATOM     27  C   UNL     1      35.554 -20.186 -20.444  0.00  0.00    +0.049 C 
ATOM     28  C   UNL     1      34.111 -18.578 -21.523  0.00  0.00    +0.013 C 
ATOM     29  C   UNL     1      36.703 -19.515 -20.877  0.00  0.00    +0.015 C 
ATOM     30  C   UNL     1      35.251 -17.896 -21.962  0.00  0.00    +0.058 C 
ATOM     31  C   UNL     1      36.526 -18.359 -21.644  0.00  0.00    +0.013 C 
ATOM     32  H   UNL     1      36.169 -21.861 -19.327  0.00  0.00    +0.153 HD
ENDBRANCH  19  24
ENDBRANCH   1  19
TORSDOF 5
ENDMDL
MODEL 4
REMARK VINA RESULT:     -10.0      5.560     11.404
REMARK  Name = 9549257
REMARK  5 active torsions:
REMARK  status: ('A' for Active; 'I' for Inactive)
REMARK    1  A    between atoms: N_1  and  C_5
REMARK    2  A    between atoms: N_1  and  S_19
REMARK    3  A    between atoms: N_4  and  C_9
REMARK    4  A    between atoms: C_9  and  C_14
REMARK    5  A    between atoms: S_19  and  C_24
REMARK                            x       y       z     vdW  Elec       q    Type
REMARK                         _______ _______ _______ _____ _____    ______ ____
ROOT
ATOM      1  N   UNL     1      33.303 -14.588 -22.721  0.00  0.00    -0.171 NA
ATOM      2  H   UNL     1      32.706 -15.399 -22.877  0.00  0.00    +0.149 HD
ENDROOT
BRANCH   1   5
ATOM      3  O   UNL     1      35.122 -16.673 -23.967  0.00  0.00    -0.273 OA
ATOM      4  N   UNL     1      34.497 -17.383 -21.812  0.00  0.00    -0.272 N 
ATOM      5  C   UNL     1      34.593 -15.084 -22.214  0.00  0.00    +0.153 C 
ATOM      6  C   UNL     1      34.540 -15.336 -20.711  0.00  0.00    +0.048 C 
ATOM      7  C   UNL     1      34.045 -16.765 -20.587  0.00  0.00    +0.096 C 
ATOM      8  C   UNL     1      34.799 -16.455 -22.808  0.00  0.00    +0.242 C 
BRANCH   4   9
ATOM      9  C   UNL     1      34.465 -18.818 -21.989  0.00  0.00    +0.152 C 
ATOM     10  C   UNL     1      34.494 -19.218 -23.445  0.00  0.00    +0.031 C 
BRANCH   9  14
ATOM     11  O   UNL     1      35.190 -22.370 -18.474  0.00  0.00    -0.350 OA
ATOM     12  O   UNL     1      36.747 -18.672 -21.365  0.00  0.00    -0.273 OA
ATOM     13  N   UNL     1      35.559 -20.488 -20.537  0.00  0.00    -0.273 N 
ATOM     14  C   UNL     1      35.697 -19.313 -21.274  0.00  0.00    +0.244 C 
ATOM     15  C   UNL     1      34.366 -21.340 -20.510  0.00  0.00    +0.126 C 
ATOM     16  C   UNL     1      36.705 -21.033 -19.809  0.00  0.00    +0.126 C 
ATOM     17  C   UNL     1      34.048 -21.757 -19.080  0.00  0.00    +0.164 C 
ATOM     18  C   UNL     1      36.289 -21.457 -18.408  0.00  0.00    +0.164 C 
ENDBRANCH   9  14
ENDBRANCH   4   9
ENDBRANCH   1   5
BRANCH   1  19
ATOM     19  S   UNL     1      33.304 -13.670 -24.171  0.00  0.00    +0.073 S 
ATOM     20  O   UNL     1      32.079 -13.929 -24.901  0.00  0.00    -0.152 OA
ATOM     21  O   UNL     1      34.601 -13.791 -24.807  0.00  0.00    -0.152 OA
BRANCH  19  24
ATOM     22 CL   UNL     1      32.339  -6.117 -21.672  0.00  0.00    -0.082 Cl
ATOM     23  N   UNL     1      34.154 -11.076 -24.173  0.00  0.00    -0.297 N 
ATOM     24  C   UNL     1      33.224 -11.943 -23.700  0.00  0.00    +0.173 C 
ATOM     25  C   UNL     1      32.345 -11.280 -22.903  0.00  0.00    +0.036 C 
ATOM     26  C   UNL     1      32.754  -9.918 -22.877  0.00  0.00    +0.017 C 
ATOM     27  C   UNL     1      33.891  -9.817 -23.683  0.00  0.00    +0.049 C 
ATOM     28  C   UNL     1      32.265  -8.758 -22.246  0.00  0.00    +0.013 C 
ATOM     29  C   UNL     1      34.566  -8.609 -23.887  0.00  0.00    +0.015 C 
ATOM     30  C   UNL     1      32.930  -7.542 -22.441  0.00  0.00    +0.058 C 
ATOM     31  C   UNL     1      34.062  -7.470 -23.250  0.00  0.00    +0.013 C 
ATOM     32  H   UNL     1      34.899 -11.310 -24.771  0.00  0.00    +0.153 HD
ENDBRANCH  19  24
ENDBRANCH   1  19
TORSDOF 5
ENDMDL
MODEL 5
REMARK VINA RESULT:      -9.7      2.427      3.008
REMARK  Name = 9549257
REMARK  5 active torsions:
REMARK  status: ('A' for Active; 'I' for Inactive)
REMARK    1  A    between atoms: N_1  and  C_5
REMARK    2  A    between atoms: N_1  and  S_19
REMARK    3  A    between atoms: N_4  and  C_9
REMARK    4  A    between atoms: C_9  and  C_14
REMARK    5  A    between atoms: S_19  and  C_24
REMARK                            x       y       z     vdW  Elec       q    Type
REMARK                         _______ _______ _______ _____ _____    ______ ____
ROOT
ATOM      1  N   UNL     1      33.846 -20.983 -19.231  0.00  0.00    -0.171 NA
ATOM      2  H   UNL     1      34.501 -20.288 -18.874  0.00  0.00    +0.149 HD
ENDROOT
BRANCH   1   5
ATOM      3  O   UNL     1      36.115 -20.670 -21.222  0.00  0.00    -0.273 OA
ATOM      4  N   UNL     1      34.736 -18.766 -21.319  0.00  0.00    -0.272 N 
ATOM      5  C   UNL     1      33.753 -20.790 -20.688  0.00  0.00    +0.153 C 
ATOM      6  C   UNL     1      32.663 -19.786 -21.047  0.00  0.00    +0.048 C 
ATOM      7  C   UNL     1      33.364 -18.440 -21.004  0.00  0.00    +0.096 C 
ATOM      8  C   UNL     1      35.030 -20.114 -21.122  0.00  0.00    +0.242 C 
BRANCH   4   9
ATOM      9  C   UNL     1      35.700 -17.738 -21.643  0.00  0.00    +0.152 C 
ATOM     10  C   UNL     1      37.024 -18.313 -22.090  0.00  0.00    +0.031 C 
BRANCH   9  14
ATOM     11  O   UNL     1      32.811 -13.598 -21.688  0.00  0.00    -0.350 OA
ATOM     12  O   UNL     1      35.017 -17.435 -23.893  0.00  0.00    -0.273 OA
ATOM     13  N   UNL     1      34.526 -15.711 -22.418  0.00  0.00    -0.273 N 
ATOM     14  C   UNL     1      35.054 -16.954 -22.758  0.00  0.00    +0.244 C 
ATOM     15  C   UNL     1      34.663 -15.056 -21.113  0.00  0.00    +0.126 C 
ATOM     16  C   UNL     1      33.877 -14.888 -23.439  0.00  0.00    +0.126 C 
ATOM     17  C   UNL     1      33.328 -14.466 -20.676  0.00  0.00    +0.164 C 
ATOM     18  C   UNL     1      32.574 -14.311 -22.905  0.00  0.00    +0.164 C 
ENDBRANCH   9  14
ENDBRANCH   4   9
ENDBRANCH   1   5
BRANCH   1  19
ATOM     19  S   UNL     1      34.361 -22.513 -18.650  0.00  0.00    +0.073 S 
ATOM     20  O   UNL     1      35.673 -22.380 -18.050  0.00  0.00    -0.152 OA
ATOM     21  O   UNL     1      34.091 -23.519 -19.660  0.00  0.00    -0.152 OA
BRANCH  19  24
ATOM     22 CL   UNL     1      30.066 -24.676 -12.239  0.00  0.00    -0.082 Cl
ATOM     23  N   UNL     1      31.922 -22.880 -17.480  0.00  0.00    -0.297 N 
ATOM     24  C   UNL     1      33.264 -22.962 -17.306  0.00  0.00    +0.173 C 
ATOM     25  C   UNL     1      33.535 -23.405 -16.049  0.00  0.00    +0.036 C 
ATOM     26  C   UNL     1      32.285 -23.609 -15.403  0.00  0.00    +0.017 C 
ATOM     27  C   UNL     1      31.289 -23.273 -16.323  0.00  0.00    +0.049 C 
ATOM     28  C   UNL     1      31.903 -24.051 -14.121  0.00  0.00    +0.013 C 
ATOM     29  C   UNL     1      29.925 -23.355 -16.022  0.00  0.00    +0.015 C 
ATOM     30  C   UNL     1      30.543 -24.137 -13.805  0.00  0.00    +0.058 C 
ATOM     31  C   UNL     1      29.570 -23.796 -14.743  0.00  0.00    +0.013 C 
ATOM     32  H   UNL     1      31.471 -22.585 -18.304  0.00  0.00    +0.153 HD
ENDBRANCH  19  24
ENDBRANCH   1  19
TORSDOF 5
ENDMDL
MODEL 6
REMARK VINA RESULT:      -9.6      6.915     12.398
REMARK  Name = 9549257
REMARK  5 active torsions:
REMARK  status: ('A' for Active; 'I' for Inactive)
REMARK    1  A    between atoms: N_1  and  C_5
REMARK    2  A    between atoms: N_1  and  S_19
REMARK    3  A    between atoms: N_4  and  C_9
REMARK    4  A    between atoms: C_9  and  C_14
REMARK    5  A    between atoms: S_19  and  C_24
REMARK                            x       y       z     vdW  Elec       q    Type
REMARK                         _______ _______ _______ _____ _____    ______ ____
ROOT
ATOM      1  N   UNL     1      31.839 -12.659 -22.039  0.00  0.00    -0.171 NA
ATOM      2  H   UNL     1      31.928 -12.415 -23.025  0.00  0.00    +0.149 HD
ENDROOT
BRANCH   1   5
ATOM      3  O   UNL     1      34.215 -13.395 -23.777  0.00  0.00    -0.273 OA
ATOM      4  N   UNL     1      33.427 -15.328 -22.689  0.00  0.00    -0.272 N 
ATOM      5  C   UNL     1      33.111 -13.273 -21.622  0.00  0.00    +0.153 C 
ATOM      6  C   UNL     1      32.882 -14.404 -20.626  0.00  0.00    +0.048 C 
ATOM      7  C   UNL     1      32.677 -15.633 -21.493  0.00  0.00    +0.096 C 
ATOM      8  C   UNL     1      33.681 -13.965 -22.836  0.00  0.00    +0.242 C 
BRANCH   4   9
ATOM      9  C   UNL     1      33.717 -16.343 -23.678  0.00  0.00    +0.152 C 
ATOM     10  C   UNL     1      33.686 -15.799 -25.086  0.00  0.00    +0.031 C 
BRANCH   9  14
ATOM     11  O   UNL     1      35.378 -20.075 -20.711  0.00  0.00    -0.350 OA
ATOM     12  O   UNL     1      36.078 -16.139 -23.621  0.00  0.00    -0.273 OA
ATOM     13  N   UNL     1      35.179 -18.052 -22.661  0.00  0.00    -0.273 N 
ATOM     14  C   UNL     1      35.100 -16.829 -23.323  0.00  0.00    +0.244 C 
ATOM     15  C   UNL     1      34.052 -18.954 -22.404  0.00  0.00    +0.126 C 
ATOM     16  C   UNL     1      36.482 -18.594 -22.276  0.00  0.00    +0.126 C 
ATOM     17  C   UNL     1      34.107 -19.474 -20.974  0.00  0.00    +0.164 C 
ATOM     18  C   UNL     1      36.436 -19.123 -20.850  0.00  0.00    +0.164 C 
ENDBRANCH   9  14
ENDBRANCH   4   9
ENDBRANCH   1   5
BRANCH   1  19
ATOM     19  S   UNL     1      31.313 -11.251 -21.212  0.00  0.00    +0.073 S 
ATOM     20  O   UNL     1      32.056 -11.117 -19.975  0.00  0.00    -0.152 OA
ATOM     21  O   UNL     1      29.863 -11.204 -21.231  0.00  0.00    -0.152 OA
BRANCH  19  24
ATOM     22 CL   UNL     1      32.731  -4.785 -25.730  0.00  0.00    -0.082 Cl
ATOM     23  N   UNL     1      33.102  -9.635 -22.493  0.00  0.00    -0.297 N 
ATOM     24  C   UNL     1      31.792  -9.843 -22.213  0.00  0.00    +0.173 C 
ATOM     25  C   UNL     1      31.040  -8.869 -22.791  0.00  0.00    +0.036 C 
ATOM     26  C   UNL     1      31.939  -8.002 -23.472  0.00  0.00    +0.017 C 
ATOM     27  C   UNL     1      33.227  -8.506 -23.270  0.00  0.00    +0.049 C 
ATOM     28  C   UNL     1      31.782  -6.835 -24.245  0.00  0.00    +0.013 C 
ATOM     29  C   UNL     1      34.368  -7.896 -23.803  0.00  0.00    +0.015 C 
ATOM     30  C   UNL     1      32.914  -6.214 -24.784  0.00  0.00    +0.058 C 
ATOM     31  C   UNL     1      34.187  -6.739 -24.566  0.00  0.00    +0.013 C 
ATOM     32  H   UNL     1      33.847 -10.202 -22.189  0.00  0.00    +0.153 HD
ENDBRANCH  19  24
ENDBRANCH   1  19
TORSDOF 5
ENDMDL
MODEL 7
REMARK VINA RESULT:      -9.5      7.138     10.632
REMARK  Name = 9549257
REMARK  5 active torsions:
REMARK  status: ('A' for Active; 'I' for Inactive)
REMARK    1  A    between atoms: N_1  and  C_5
REMARK    2  A    between atoms: N_1  and  S_19
REMARK    3  A    between atoms: N_4  and  C_9
REMARK    4  A    between atoms: C_9  and  C_14
REMARK    5  A    between atoms: S_19  and  C_24
REMARK                            x       y       z     vdW  Elec       q    Type
REMARK                         _______ _______ _______ _____ _____    ______ ____
ROOT
ATOM      1  N   UNL     1      32.985 -12.114 -22.123  0.00  0.00    -0.171 NA
ATOM      2  H   UNL     1      33.641 -11.337 -22.197  0.00  0.00    +0.149 HD
ENDROOT
BRANCH   1   5
ATOM      3  O   UNL     1      31.607  -9.797 -23.518  0.00  0.00    -0.273 OA
ATOM      4  N   UNL     1      31.841  -9.292 -21.232  0.00  0.00    -0.272 N 
ATOM      5  C   UNL     1      31.658 -11.542 -21.835  0.00  0.00    +0.153 C 
ATOM      6  C   UNL     1      31.429 -11.397 -20.335  0.00  0.00    +0.048 C 
ATOM      7  C   UNL     1      31.992 -10.029 -19.999  0.00  0.00    +0.096 C 
ATOM      8  C   UNL     1      31.676 -10.121 -22.341  0.00  0.00    +0.242 C 
BRANCH   4   9
ATOM      9  C   UNL     1      32.012  -7.856 -21.279  0.00  0.00    +0.152 C 
ATOM     10  C   UNL     1      32.436  -7.285 -19.947  0.00  0.00    +0.031 C 
BRANCH   9  14
ATOM     11  O   UNL     1      32.189  -5.048 -25.472  0.00  0.00    -0.350 OA
ATOM     12  O   UNL     1      34.068  -8.378 -22.336  0.00  0.00    -0.273 OA
ATOM     13  N   UNL     1      32.872  -6.595 -23.218  0.00  0.00    -0.273 N 
ATOM     14  C   UNL     1      33.081  -7.639 -22.320  0.00  0.00    +0.244 C 
ATOM     15  C   UNL     1      31.778  -5.621 -23.151  0.00  0.00    +0.126 C 
ATOM     16  C   UNL     1      33.858  -6.319 -24.263  0.00  0.00    +0.126 C 
ATOM     17  C   UNL     1      31.172  -5.411 -24.532  0.00  0.00    +0.164 C 
ATOM     18  C   UNL     1      33.166  -6.085 -25.597  0.00  0.00    +0.164 C 
ENDBRANCH   9  14
ENDBRANCH   4   9
ENDBRANCH   1   5
BRANCH   1  19
ATOM     19  S   UNL     1      33.163 -13.066 -23.539  0.00  0.00    +0.073 S 
ATOM     20  O   UNL     1      34.171 -12.469 -24.393  0.00  0.00    -0.152 OA
ATOM     21  O   UNL     1      31.850 -13.410 -24.048  0.00  0.00    -0.152 OA
BRANCH  19  24
ATOM     22 CL   UNL     1      36.249 -19.841 -20.571  0.00  0.00    -0.082 Cl
ATOM     23  N   UNL     1      34.011 -15.630 -23.946  0.00  0.00    -0.297 N 
ATOM     24  C   UNL     1      33.843 -14.645 -23.029  0.00  0.00    +0.173 C 
ATOM     25  C   UNL     1      34.257 -15.080 -21.809  0.00  0.00    +0.036 C 
ATOM     26  C   UNL     1      34.708 -16.418 -21.979  0.00  0.00    +0.017 C 
ATOM     27  C   UNL     1      34.543 -16.738 -23.329  0.00  0.00    +0.049 C 
ATOM     28  C   UNL     1      35.244 -17.390 -21.112  0.00  0.00    +0.013 C 
ATOM     29  C   UNL     1      34.888 -17.988 -23.855  0.00  0.00    +0.015 C 
ATOM     30  C   UNL     1      35.593 -18.645 -21.624  0.00  0.00    +0.058 C 
ATOM     31  C   UNL     1      35.418 -18.937 -22.976  0.00  0.00    +0.013 C 
ATOM     32  H   UNL     1      33.786 -15.563 -24.902  0.00  0.00    +0.153 HD
ENDBRANCH  19  24
ENDBRANCH   1  19
TORSDOF 5
ENDMDL
MODEL 8
REMARK VINA RESULT:      -9.5      3.798      9.877
REMARK  Name = 9549257
REMARK  5 active torsions:
REMARK  status: ('A' for Active; 'I' for Inactive)
REMARK    1  A    between atoms: N_1  and  C_5
REMARK    2  A    between atoms: N_1  and  S_19
REMARK    3  A    between atoms: N_4  and  C_9
REMARK    4  A    between atoms: C_9  and  C_14
REMARK    5  A    between atoms: S_19  and  C_24
REMARK                            x       y       z     vdW  Elec       q    Type
REMARK                         _______ _______ _______ _____ _____    ______ ____
ROOT
ATOM      1  N   UNL     1      35.204 -20.820 -18.800  0.00  0.00    -0.171 NA
ATOM      2  H   UNL     1      34.743 -20.474 -17.959  0.00  0.00    +0.149 HD
ENDROOT
BRANCH   1   5
ATOM      3  O   UNL     1      34.056 -23.492 -17.933  0.00  0.00    -0.273 OA
ATOM      4  N   UNL     1      35.450 -22.662 -16.228  0.00  0.00    -0.272 N 
ATOM      5  C   UNL     1      35.936 -22.043 -18.428  0.00  0.00    +0.153 C 
ATOM      6  C   UNL     1      37.130 -21.727 -17.536  0.00  0.00    +0.048 C 
ATOM      7  C   UNL     1      36.563 -21.747 -16.128  0.00  0.00    +0.096 C 
ATOM      8  C   UNL     1      35.019 -22.848 -17.541  0.00  0.00    +0.242 C 
BRANCH   4   9
ATOM      9  C   UNL     1      34.787 -23.176 -15.050  0.00  0.00    +0.152 C 
ATOM     10  C   UNL     1      33.323 -23.457 -15.292  0.00  0.00    +0.031 C 
BRANCH   9  14
ATOM     11  O   UNL     1      37.920 -24.448 -11.301  0.00  0.00    -0.350 OA
ATOM     12  O   UNL     1      35.589 -25.345 -15.569  0.00  0.00    -0.273 OA
ATOM     13  N   UNL     1      36.116 -24.520 -13.463  0.00  0.00    -0.273 N 
ATOM     14  C   UNL     1      35.529 -24.447 -14.725  0.00  0.00    +0.244 C 
ATOM     15  C   UNL     1      35.959 -23.529 -12.394  0.00  0.00    +0.126 C 
ATOM     16  C   UNL     1      36.859 -25.717 -13.070  0.00  0.00    +0.126 C 
ATOM     17  C   UNL     1      37.305 -23.235 -11.745  0.00  0.00    +0.164 C 
ATOM     18  C   UNL     1      38.169 -25.330 -12.398  0.00  0.00    +0.164 C 
ENDBRANCH   9  14
ENDBRANCH   4   9
ENDBRANCH   1   5
BRANCH   1  19
ATOM     19  S   UNL     1      34.008 -20.934 -20.025  0.00  0.00    +0.073 S 
ATOM     20  O   UNL     1      32.694 -20.880 -19.417  0.00  0.00    -0.152 OA
ATOM     21  O   UNL     1      34.371 -21.996 -20.944  0.00  0.00    -0.152 OA
BRANCH  19  24
ATOM     22 CL   UNL     1      34.298 -13.931 -23.910  0.00  0.00    -0.082 Cl
ATOM     23  N   UNL     1      34.606 -19.537 -22.293  0.00  0.00    -0.297 N 
ATOM     24  C   UNL     1      34.135 -19.452 -21.024  0.00  0.00    +0.173 C 
ATOM     25  C   UNL     1      33.825 -18.159 -20.737  0.00  0.00    +0.036 C 
ATOM     26  C   UNL     1      34.123 -17.394 -21.899  0.00  0.00    +0.017 C 
ATOM     27  C   UNL     1      34.611 -18.283 -22.860  0.00  0.00    +0.049 C 
ATOM     28  C   UNL     1      34.024 -16.028 -22.227  0.00  0.00    +0.013 C 
ATOM     29  C   UNL     1      35.006 -17.870 -24.137  0.00  0.00    +0.015 C 
ATOM     30  C   UNL     1      34.416 -15.601 -23.500  0.00  0.00    +0.058 C 
ATOM     31  C   UNL     1      34.899 -16.510 -24.440  0.00  0.00    +0.013 C 
ATOM     32  H   UNL     1      34.899 -20.365 -22.738  0.00  0.00    +0.153 HD
ENDBRANCH  19  24
ENDBRANCH   1  19
TORSDOF 5
ENDMDL
MODEL 9
REMARK VINA RESULT:      -9.5      3.653      9.656
REMARK  Name = 9549257
REMARK  5 active torsions:
REMARK  status: ('A' for Active; 'I' for Inactive)
REMARK    1  A    between atoms: N_1  and  C_5
REMARK    2  A    between atoms: N_1  and  S_19
REMARK    3  A    between atoms: N_4  and  C_9
REMARK    4  A    between atoms: C_9  and  C_14
REMARK    5  A    between atoms: S_19  and  C_24
REMARK                            x       y       z     vdW  Elec       q    Type
REMARK                         _______ _______ _______ _____ _____    ______ ____
ROOT
ATOM      1  N   UNL     1      34.957 -19.829 -20.298  0.00  0.00    -0.171 NA
ATOM      2  H   UNL     1      33.956 -19.676 -20.177  0.00  0.00    +0.149 HD
ENDROOT
BRANCH   1   5
ATOM      3  O   UNL     1      32.926 -22.024 -19.783  0.00  0.00    -0.273 OA
ATOM      4  N   UNL     1      34.603 -22.123 -18.135  0.00  0.00    -0.272 N 
ATOM      5  C   UNL     1      35.189 -21.282 -20.235  0.00  0.00    +0.153 C 
ATOM      6  C   UNL     1      36.453 -21.610 -19.447  0.00  0.00    +0.048 C 
ATOM      7  C   UNL     1      35.982 -21.713 -18.008  0.00  0.00    +0.096 C 
ATOM      8  C   UNL     1      34.076 -21.867 -19.400  0.00  0.00    +0.242 C 
BRANCH   4   9
ATOM      9  C   UNL     1      33.847 -22.594 -16.995  0.00  0.00    +0.152 C 
ATOM     10  C   UNL     1      32.363 -22.645 -17.271  0.00  0.00    +0.031 C 
BRANCH   9  14
ATOM     11  O   UNL     1      37.365 -24.339 -13.822  0.00  0.00    -0.350 OA
ATOM     12  O   UNL     1      34.113 -24.893 -17.506  0.00  0.00    -0.273 OA
ATOM     13  N   UNL     1      35.189 -24.123 -15.598  0.00  0.00    -0.273 N 
ATOM     14  C   UNL     1      34.389 -23.975 -16.729  0.00  0.00    +0.244 C 
ATOM     15  C   UNL     1      35.433 -23.088 -14.589  0.00  0.00    +0.126 C 
ATOM     16  C   UNL     1      35.760 -25.429 -15.270  0.00  0.00    +0.126 C 
ATOM     17  C   UNL     1      36.912 -23.043 -14.225  0.00  0.00    +0.164 C 
ATOM     18  C   UNL     1      37.224 -25.286 -14.884  0.00  0.00    +0.164 C 
ENDBRANCH   9  14
ENDBRANCH   4   9
ENDBRANCH   1   5
BRANCH   1  19
ATOM     19  S   UNL     1      35.431 -18.997 -21.722  0.00  0.00    +0.073 S 
ATOM     20  O   UNL     1      34.913 -19.698 -22.880  0.00  0.00    -0.152 OA
ATOM     21  O   UNL     1      36.833 -18.642 -21.619  0.00  0.00    -0.152 OA
BRANCH  19  24
ATOM     22 CL   UNL     1      31.559 -12.024 -20.937  0.00  0.00    -0.082 Cl
ATOM     23  N   UNL     1      34.498 -16.695 -22.855  0.00  0.00    -0.297 N 
ATOM     24  C   UNL     1      34.593 -17.412 -21.709  0.00  0.00    +0.173 C 
ATOM     25  C   UNL     1      33.986 -16.738 -20.696  0.00  0.00    +0.036 C 
ATOM     26  C   UNL     1      33.484 -15.527 -21.248  0.00  0.00    +0.017 C 
ATOM     27  C   UNL     1      33.818 -15.525 -22.604  0.00  0.00    +0.049 C 
ATOM     28  C   UNL     1      32.774 -14.429 -20.723  0.00  0.00    +0.013 C 
ATOM     29  C   UNL     1      33.477 -14.476 -23.464  0.00  0.00    +0.015 C 
ATOM     30  C   UNL     1      32.427 -13.372 -21.571  0.00  0.00    +0.058 C 
ATOM     31  C   UNL     1      32.773 -13.397 -22.921  0.00  0.00    +0.013 C 
ATOM     32  H   UNL     1      34.859 -16.968 -23.730  0.00  0.00    +0.153 HD
ENDBRANCH  19  24
ENDBRANCH   1  19
TORSDOF 5
ENDMDL
