MODEL 1
REMARK VINA RESULT:      -9.6      0.000      0.000
REMARK  Name = 6852165
REMARK  5 active torsions:
REMARK  status: ('A' for Active; 'I' for Inactive)
REMARK    1  A    between atoms: N_3  and  C_13
REMARK    2  A    between atoms: C_5  and  C_21
REMARK    3  A    between atoms: C_14  and  O_19
REMARK    4  A    between atoms: C_21  and  S_22
REMARK    5  A    between atoms: S_22  and  C_27
REMARK                            x       y       z     vdW  Elec       q    Type
REMARK                         _______ _______ _______ _____ _____    ______ ____
ROOT
ATOM      1 CL   UNL     1      30.443 -24.781 -12.504  0.00  0.00    -0.082 Cl
ATOM      2  O   UNL     1      33.047 -24.514 -13.102  0.00  0.00    -0.269 OA
ATOM      3  N   UNL     1      34.078 -23.742 -15.074  0.00  0.00    -0.208 N 
ATOM      4  N   UNL     1      32.711 -23.166 -16.935  0.00  0.00    -0.394 NA
ATOM      5  C   UNL     1      33.877 -23.270 -16.373  0.00  0.00    +0.181 C 
ATOM      6  C   UNL     1      31.651 -23.930 -14.869  0.00  0.00    +0.091 C 
ATOM      7  C   UNL     1      32.984 -24.074 -14.248  0.00  0.00    +0.261 C 
ATOM      8  C   UNL     1      31.573 -23.505 -16.195  0.00  0.00    +0.120 C 
ATOM      9  C   UNL     1      30.491 -24.238 -14.149  0.00  0.00    +0.064 C 
ATOM     10  C   UNL     1      30.315 -23.389 -16.798  0.00  0.00    +0.085 C 
ATOM     11  C   UNL     1      29.243 -24.119 -14.761  0.00  0.00    +0.007 C 
ATOM     12  C   UNL     1      29.155 -23.696 -16.085  0.00  0.00    -0.018 C 
ENDROOT
BRANCH   3  13
ATOM     13  C   UNL     1      35.393 -23.953 -14.534  0.00  0.00    +0.094 C 
ATOM     14  C   UNL     1      36.112 -25.095 -14.863  0.00  0.00    +0.153 C 
ATOM     15  C   UNL     1      35.931 -22.997 -13.678  0.00  0.00    +0.018 C 
ATOM     16  C   UNL     1      37.387 -25.285 -14.331  0.00  0.00    +0.038 C 
ATOM     17  C   UNL     1      37.205 -23.187 -13.146  0.00  0.00    +0.001 C 
ATOM     18  C   UNL     1      37.934 -24.332 -13.472  0.00  0.00    +0.003 C 
BRANCH  14  19
ATOM     19  O   UNL     1      35.596 -26.039 -15.701  0.00  0.00    -0.470 OA
ATOM     20  C   UNL     1      36.391 -27.199 -15.937  0.00  0.00    +0.253 C 
ENDBRANCH  14  19
ENDBRANCH   3  13
BRANCH   5  21
ATOM     21  C   UNL     1      35.051 -22.786 -17.199  0.00  0.00    +0.139 C 
BRANCH  21  22
ATOM     22  S   UNL     1      34.620 -22.994 -18.932  0.00  0.00    -0.089 S 
BRANCH  22  27
ATOM     23  N   UNL     1      32.937 -20.511 -20.353  0.00  0.00    -0.271 NA
ATOM     24  N   UNL     1      36.484 -21.166 -19.638  0.00  0.00    -0.241 NA
ATOM     25  N   UNL     1      33.721 -18.611 -21.214  0.00  0.00    -0.307 N 
ATOM     26  N   UNL     1      36.069 -19.034 -20.746  0.00  0.00    -0.232 NA
ATOM     27  C   UNL     1      35.177 -21.445 -19.643  0.00  0.00    +0.103 C 
ATOM     28  C   UNL     1      34.291 -20.557 -20.182  0.00  0.00    +0.156 C 
ATOM     29  C   UNL     1      34.755 -19.366 -20.724  0.00  0.00    +0.124 C 
ATOM     30  C   UNL     1      32.643 -19.327 -20.976  0.00  0.00    +0.163 C 
ATOM     31  C   UNL     1      36.849 -19.984 -20.187  0.00  0.00    +0.252 C 
ATOM     32  H   UNL     1      32.292 -21.202 -20.080  0.00  0.00    +0.125 HD
ATOM     33  H   UNL     1      33.772 -17.728 -21.648  0.00  0.00    +0.149 HD
ENDBRANCH  22  27
ENDBRANCH  21  22
ENDBRANCH   5  21
TORSDOF 5
ENDMDL
MODEL 2
REMARK VINA RESULT:      -9.5      3.322      5.931
REMARK  Name = 6852165
REMARK  5 active torsions:
REMARK  status: ('A' for Active; 'I' for Inactive)
REMARK    1  A    between atoms: N_3  and  C_13
REMARK    2  A    between atoms: C_5  and  C_21
REMARK    3  A    between atoms: C_14  and  O_19
REMARK    4  A    between atoms: C_21  and  S_22
REMARK    5  A    between atoms: S_22  and  C_27
REMARK                            x       y       z     vdW  Elec       q    Type
REMARK                         _______ _______ _______ _____ _____    ______ ____
ROOT
ATOM      1 CL   UNL     1      37.402 -21.103 -19.038  0.00  0.00    -0.082 Cl
ATOM      2  O   UNL     1      37.406 -22.327 -16.649  0.00  0.00    -0.269 OA
ATOM      3  N   UNL     1      35.662 -23.421 -15.503  0.00  0.00    -0.208 N 
ATOM      4  N   UNL     1      33.486 -23.431 -16.464  0.00  0.00    -0.394 NA
ATOM      5  C   UNL     1      34.311 -23.776 -15.525  0.00  0.00    +0.181 C 
ATOM      6  C   UNL     1      35.312 -22.335 -17.663  0.00  0.00    +0.091 C 
ATOM      7  C   UNL     1      36.239 -22.705 -16.574  0.00  0.00    +0.261 C 
ATOM      8  C   UNL     1      33.969 -22.693 -17.550  0.00  0.00    +0.120 C 
ATOM      9  C   UNL     1      35.768 -21.616 -18.774  0.00  0.00    +0.064 C 
ATOM     10  C   UNL     1      33.080 -22.324 -18.567  0.00  0.00    +0.085 C 
ATOM     11  C   UNL     1      34.873 -21.254 -19.781  0.00  0.00    +0.007 C 
ATOM     12  C   UNL     1      33.529 -21.607 -19.677  0.00  0.00    -0.018 C 
ENDROOT
BRANCH   3  13
ATOM     13  C   UNL     1      36.513 -23.723 -14.385  0.00  0.00    +0.094 C 
ATOM     14  C   UNL     1      37.343 -24.837 -14.415  0.00  0.00    +0.153 C 
ATOM     15  C   UNL     1      36.492 -22.883 -13.277  0.00  0.00    +0.018 C 
ATOM     16  C   UNL     1      38.164 -25.116 -13.323  0.00  0.00    +0.038 C 
ATOM     17  C   UNL     1      37.312 -23.163 -12.184  0.00  0.00    +0.001 C 
ATOM     18  C   UNL     1      38.148 -24.279 -12.207  0.00  0.00    +0.003 C 
BRANCH  14  19
ATOM     19  O   UNL     1      37.374 -25.667 -15.497  0.00  0.00    -0.470 OA
ATOM     20  C   UNL     1      36.677 -26.906 -15.381  0.00  0.00    +0.253 C 
ENDBRANCH  14  19
ENDBRANCH   3  13
BRANCH   5  21
ATOM     21  C   UNL     1      33.739 -24.662 -14.437  0.00  0.00    +0.139 C 
BRANCH  21  22
ATOM     22  S   UNL     1      32.593 -23.668 -13.471  0.00  0.00    -0.089 S 
BRANCH  22  27
ATOM     23  N   UNL     1      30.675 -22.549 -15.938  0.00  0.00    -0.271 NA
ATOM     24  N   UNL     1      30.425 -25.283 -13.492  0.00  0.00    -0.241 NA
ATOM     25  N   UNL     1      28.701 -23.320 -16.627  0.00  0.00    -0.307 N 
ATOM     26  N   UNL     1      28.525 -25.132 -15.014  0.00  0.00    -0.232 NA
ATOM     27  C   UNL     1      31.004 -24.233 -14.080  0.00  0.00    +0.103 C 
ATOM     28  C   UNL     1      30.388 -23.609 -15.127  0.00  0.00    +0.156 C 
ATOM     29  C   UNL     1      29.157 -24.072 -15.575  0.00  0.00    +0.124 C 
ATOM     30  C   UNL     1      29.635 -22.414 -16.820  0.00  0.00    +0.163 C 
ATOM     31  C   UNL     1      29.227 -25.667 -13.992  0.00  0.00    +0.252 C 
ATOM     32  H   UNL     1      31.480 -21.984 -15.895  0.00  0.00    +0.125 HD
ATOM     33  H   UNL     1      27.860 -23.433 -17.128  0.00  0.00    +0.149 HD
ENDBRANCH  22  27
ENDBRANCH  21  22
ENDBRANCH   5  21
TORSDOF 5
ENDMDL
MODEL 3
REMARK VINA RESULT:      -9.5     13.011     16.749
REMARK  Name = 6852165
REMARK  5 active torsions:
REMARK  status: ('A' for Active; 'I' for Inactive)
REMARK    1  A    between atoms: N_3  and  C_13
REMARK    2  A    between atoms: C_5  and  C_21
REMARK    3  A    between atoms: C_14  and  O_19
REMARK    4  A    between atoms: C_21  and  S_22
REMARK    5  A    between atoms: S_22  and  C_27
REMARK                            x       y       z     vdW  Elec       q    Type
REMARK                         _______ _______ _______ _____ _____    ______ ____
ROOT
ATOM      1 CL   UNL     1      30.452  -4.036 -23.896  0.00  0.00    -0.082 Cl
ATOM      2  O   UNL     1      30.940  -6.440 -22.804  0.00  0.00    -0.269 OA
ATOM      3  N   UNL     1      32.684  -7.968 -23.219  0.00  0.00    -0.208 N 
ATOM      4  N   UNL     1      34.275  -7.461 -24.914  0.00  0.00    -0.394 NA
ATOM      5  C   UNL     1      33.829  -8.235 -23.973  0.00  0.00    +0.181 C 
ATOM      6  C   UNL     1      32.484  -5.864 -24.446  0.00  0.00    +0.091 C 
ATOM      7  C   UNL     1      31.965  -6.766 -23.397  0.00  0.00    +0.261 C 
ATOM      8  C   UNL     1      33.603  -6.263 -25.177  0.00  0.00    +0.120 C 
ATOM      9  C   UNL     1      31.849  -4.648 -24.718  0.00  0.00    +0.064 C 
ATOM     10  C   UNL     1      34.086  -5.424 -26.190  0.00  0.00    +0.085 C 
ATOM     11  C   UNL     1      32.339  -3.821 -25.730  0.00  0.00    +0.007 C 
ATOM     12  C   UNL     1      33.456  -4.210 -26.466  0.00  0.00    -0.018 C 
ENDROOT
BRANCH   3  13
ATOM     13  C   UNL     1      32.159  -8.908 -22.268  0.00  0.00    +0.094 C 
ATOM     14  C   UNL     1      32.429  -8.762 -20.913  0.00  0.00    +0.153 C 
ATOM     15  C   UNL     1      31.378  -9.964 -22.726  0.00  0.00    +0.018 C 
ATOM     16  C   UNL     1      31.912  -9.683 -20.003  0.00  0.00    +0.038 C 
ATOM     17  C   UNL     1      30.861 -10.885 -21.816  0.00  0.00    +0.001 C 
ATOM     18  C   UNL     1      31.128 -10.745 -20.453  0.00  0.00    +0.003 C 
BRANCH  14  19
ATOM     19  O   UNL     1      33.193  -7.731 -20.452  0.00  0.00    -0.470 OA
ATOM     20  C   UNL     1      32.513  -6.669 -19.787  0.00  0.00    +0.253 C 
ENDBRANCH  14  19
ENDBRANCH   3  13
BRANCH   5  21
ATOM     21  C   UNL     1      34.668  -9.462 -23.676  0.00  0.00    +0.139 C 
BRANCH  21  22
ATOM     22  S   UNL     1      34.764 -10.434 -25.185  0.00  0.00    -0.089 S 
BRANCH  22  27
ATOM     23  N   UNL     1      33.495 -12.929 -26.969  0.00  0.00    -0.271 NA
ATOM     24  N   UNL     1      33.899 -12.249 -23.377  0.00  0.00    -0.241 NA
ATOM     25  N   UNL     1      32.569 -14.824 -26.250  0.00  0.00    -0.307 N 
ATOM     26  N   UNL     1      32.832 -14.385 -23.873  0.00  0.00    -0.232 NA
ATOM     27  C   UNL     1      34.008 -11.980 -24.682  0.00  0.00    +0.103 C 
ATOM     28  C   UNL     1      33.548 -12.873 -25.605  0.00  0.00    +0.156 C 
ATOM     29  C   UNL     1      32.968 -14.062 -25.182  0.00  0.00    +0.124 C 
ATOM     30  C   UNL     1      32.901 -14.115 -27.308  0.00  0.00    +0.163 C 
ATOM     31  C   UNL     1      33.321 -13.430 -23.054  0.00  0.00    +0.252 C 
ATOM     32  H   UNL     1      33.823 -12.242 -27.592  0.00  0.00    +0.125 HD
ATOM     33  H   UNL     1      32.133 -15.707 -26.230  0.00  0.00    +0.149 HD
ENDBRANCH  22  27
ENDBRANCH  21  22
ENDBRANCH   5  21
TORSDOF 5
ENDMDL
MODEL 4
REMARK VINA RESULT:      -8.7      2.995      6.406
REMARK  Name = 6852165
REMARK  5 active torsions:
REMARK  status: ('A' for Active; 'I' for Inactive)
REMARK    1  A    between atoms: N_3  and  C_13
REMARK    2  A    between atoms: C_5  and  C_21
REMARK    3  A    between atoms: C_14  and  O_19
REMARK    4  A    between atoms: C_21  and  S_22
REMARK    5  A    between atoms: S_22  and  C_27
REMARK                            x       y       z     vdW  Elec       q    Type
REMARK                         _______ _______ _______ _____ _____    ______ ____
ROOT
ATOM      1 CL   UNL     1      29.365 -22.467 -16.396  0.00  0.00    -0.082 Cl
ATOM      2  O   UNL     1      31.825 -22.329 -17.462  0.00  0.00    -0.269 OA
ATOM      3  N   UNL     1      33.833 -23.353 -16.777  0.00  0.00    -0.208 N 
ATOM      4  N   UNL     1      33.834 -24.666 -14.793  0.00  0.00    -0.394 NA
ATOM      5  C   UNL     1      34.443 -24.178 -15.829  0.00  0.00    +0.181 C 
ATOM      6  C   UNL     1      31.747 -23.631 -15.535  0.00  0.00    +0.091 C 
ATOM      7  C   UNL     1      32.456 -23.054 -16.696  0.00  0.00    +0.261 C 
ATOM      8  C   UNL     1      32.473 -24.393 -14.619  0.00  0.00    +0.120 C 
ATOM      9  C   UNL     1      30.381 -23.396 -15.345  0.00  0.00    +0.064 C 
ATOM     10  C   UNL     1      31.813 -24.922 -13.503  0.00  0.00    +0.085 C 
ATOM     11  C   UNL     1      29.735 -23.929 -14.229  0.00  0.00    +0.007 C 
ATOM     12  C   UNL     1      30.451 -24.690 -13.308  0.00  0.00    -0.018 C 
ENDROOT
BRANCH   3  13
ATOM     13  C   UNL     1      34.573 -22.739 -17.844  0.00  0.00    +0.094 C 
ATOM     14  C   UNL     1      35.717 -21.999 -17.570  0.00  0.00    +0.153 C 
ATOM     15  C   UNL     1      34.128 -22.897 -19.152  0.00  0.00    +0.018 C 
ATOM     16  C   UNL     1      36.425 -21.409 -18.616  0.00  0.00    +0.038 C 
ATOM     17  C   UNL     1      34.836 -22.307 -20.198  0.00  0.00    +0.001 C 
ATOM     18  C   UNL     1      35.985 -21.563 -19.931  0.00  0.00    +0.003 C 
BRANCH  14  19
ATOM     19  O   UNL     1      36.165 -21.836 -16.292  0.00  0.00    -0.470 OA
ATOM     20  C   UNL     1      37.574 -21.716 -16.110  0.00  0.00    +0.253 C 
ENDBRANCH  14  19
ENDBRANCH   3  13
BRANCH   5  21
ATOM     21  C   UNL     1      35.887 -24.603 -16.005  0.00  0.00    +0.139 C 
BRANCH  21  22
ATOM     22  S   UNL     1      36.223 -25.899 -14.805  0.00  0.00    -0.089 S 
BRANCH  22  27
ATOM     23  N   UNL     1      35.280 -24.873 -11.793  0.00  0.00    -0.271 NA
ATOM     24  N   UNL     1      38.383 -24.656 -13.756  0.00  0.00    -0.241 NA
ATOM     25  N   UNL     1      36.464 -23.761 -10.267  0.00  0.00    -0.307 N 
ATOM     26  N   UNL     1      38.520 -23.612 -11.556  0.00  0.00    -0.232 NA
ATOM     27  C   UNL     1      37.113 -25.006 -13.531  0.00  0.00    +0.103 C 
ATOM     28  C   UNL     1      36.514 -24.684 -12.346  0.00  0.00    +0.156 C 
ATOM     29  C   UNL     1      37.232 -23.992 -11.379  0.00  0.00    +0.124 C 
ATOM     30  C   UNL     1      35.298 -24.303 -10.547  0.00  0.00    +0.163 C 
ATOM     31  C   UNL     1      39.006 -23.983 -12.760  0.00  0.00    +0.252 C 
ATOM     32  H   UNL     1      34.518 -25.334 -12.212  0.00  0.00    +0.125 HD
ATOM     33  H   UNL     1      36.727 -23.294  -9.440  0.00  0.00    +0.149 HD
ENDBRANCH  22  27
ENDBRANCH  21  22
ENDBRANCH   5  21
TORSDOF 5
ENDMDL
MODEL 5
REMARK VINA RESULT:      -8.5      3.153      7.312
REMARK  Name = 6852165
REMARK  5 active torsions:
REMARK  status: ('A' for Active; 'I' for Inactive)
REMARK    1  A    between atoms: N_3  and  C_13
REMARK    2  A    between atoms: C_5  and  C_21
REMARK    3  A    between atoms: C_14  and  O_19
REMARK    4  A    between atoms: C_21  and  S_22
REMARK    5  A    between atoms: S_22  and  C_27
REMARK                            x       y       z     vdW  Elec       q    Type
REMARK                         _______ _______ _______ _____ _____    ______ ____
ROOT
ATOM      1 CL   UNL     1      32.648 -20.554 -20.331  0.00  0.00    -0.082 Cl
ATOM      2  O   UNL     1      31.731 -22.066 -18.311  0.00  0.00    -0.269 OA
ATOM      3  N   UNL     1      32.907 -23.222 -16.628  0.00  0.00    -0.208 N 
ATOM      4  N   UNL     1      35.285 -23.201 -16.668  0.00  0.00    -0.394 NA
ATOM      5  C   UNL     1      34.164 -23.552 -16.118  0.00  0.00    +0.181 C 
ATOM      6  C   UNL     1      34.055 -21.972 -18.386  0.00  0.00    +0.091 C 
ATOM      7  C   UNL     1      32.782 -22.401 -17.770  0.00  0.00    +0.261 C 
ATOM      8  C   UNL     1      35.253 -22.411 -17.822  0.00  0.00    +0.120 C 
ATOM      9  C   UNL     1      34.057 -21.162 -19.527  0.00  0.00    +0.064 C 
ATOM     10  C   UNL     1      36.462 -22.028 -18.415  0.00  0.00    +0.085 C 
ATOM     11  C   UNL     1      35.268 -20.788 -20.109  0.00  0.00    +0.007 C 
ATOM     12  C   UNL     1      36.470 -21.221 -19.554  0.00  0.00    -0.018 C 
ENDROOT
BRANCH   3  13
ATOM     13  C   UNL     1      31.692 -23.730 -16.053  0.00  0.00    +0.094 C 
ATOM     14  C   UNL     1      31.228 -23.235 -14.841  0.00  0.00    +0.153 C 
ATOM     15  C   UNL     1      30.990 -24.722 -16.730  0.00  0.00    +0.018 C 
ATOM     16  C   UNL     1      30.047 -23.738 -14.296  0.00  0.00    +0.038 C 
ATOM     17  C   UNL     1      29.809 -25.225 -16.185  0.00  0.00    +0.001 C 
ATOM     18  C   UNL     1      29.337 -24.733 -14.968  0.00  0.00    +0.003 C 
BRANCH  14  19
ATOM     19  O   UNL     1      31.906 -22.261 -14.168  0.00  0.00    -0.470 OA
ATOM     20  C   UNL     1      32.093 -22.453 -12.768  0.00  0.00    +0.253 C 
ENDBRANCH  14  19
ENDBRANCH   3  13
BRANCH   5  21
ATOM     21  C   UNL     1      34.281 -24.316 -14.814  0.00  0.00    +0.139 C 
BRANCH  21  22
ATOM     22  S   UNL     1      35.513 -25.604 -15.048  0.00  0.00    -0.089 S 
BRANCH  22  27
ATOM     23  N   UNL     1      38.797 -26.051 -15.228  0.00  0.00    -0.271 NA
ATOM     24  N   UNL     1      36.538 -24.320 -12.900  0.00  0.00    -0.241 NA
ATOM     25  N   UNL     1      40.381 -25.316 -13.843  0.00  0.00    -0.307 N 
ATOM     26  N   UNL     1      38.896 -24.168 -12.297  0.00  0.00    -0.232 NA
ATOM     27  C   UNL     1      36.841 -25.047 -13.979  0.00  0.00    +0.103 C 
ATOM     28  C   UNL     1      38.143 -25.355 -14.252  0.00  0.00    +0.156 C 
ATOM     29  C   UNL     1      39.148 -24.908 -13.404  0.00  0.00    +0.124 C 
ATOM     30  C   UNL     1      40.136 -26.000 -14.940  0.00  0.00    +0.163 C 
ATOM     31  C   UNL     1      37.578 -23.926 -12.128  0.00  0.00    +0.252 C 
ATOM     32  H   UNL     1      38.384 -26.506 -15.996  0.00  0.00    +0.125 HD
ATOM     33  H   UNL     1      41.257 -25.137 -13.429  0.00  0.00    +0.149 HD
ENDBRANCH  22  27
ENDBRANCH  21  22
ENDBRANCH   5  21
TORSDOF 5
ENDMDL
MODEL 6
REMARK VINA RESULT:      -8.4      8.965     13.369
REMARK  Name = 6852165
REMARK  5 active torsions:
REMARK  status: ('A' for Active; 'I' for Inactive)
REMARK    1  A    between atoms: N_3  and  C_13
REMARK    2  A    between atoms: C_5  and  C_21
REMARK    3  A    between atoms: C_14  and  O_19
REMARK    4  A    between atoms: C_21  and  S_22
REMARK    5  A    between atoms: S_22  and  C_27
REMARK                            x       y       z     vdW  Elec       q    Type
REMARK                         _______ _______ _______ _____ _____    ______ ____
ROOT
ATOM      1 CL   UNL     1      31.574  -7.809 -21.793  0.00  0.00    -0.082 Cl
ATOM      2  O   UNL     1      32.865  -9.284 -23.628  0.00  0.00    -0.269 OA
ATOM      3  N   UNL     1      33.372 -11.585 -23.639  0.00  0.00    -0.208 N 
ATOM      4  N   UNL     1      32.783 -12.900 -21.746  0.00  0.00    -0.394 NA
ATOM      5  C   UNL     1      33.287 -12.789 -22.936  0.00  0.00    +0.181 C 
ATOM      6  C   UNL     1      32.226 -10.520 -21.762  0.00  0.00    +0.091 C 
ATOM      7  C   UNL     1      32.830 -10.396 -23.105  0.00  0.00    +0.261 C 
ATOM      8  C   UNL     1      32.251 -11.763 -21.129  0.00  0.00    +0.120 C 
ATOM      9  C   UNL     1      31.665  -9.406 -21.128  0.00  0.00    +0.064 C 
ATOM     10  C   UNL     1      31.703 -11.882 -19.846  0.00  0.00    +0.085 C 
ATOM     11  C   UNL     1      31.122  -9.538 -19.849  0.00  0.00    +0.007 C 
ATOM     12  C   UNL     1      31.142 -10.774 -19.209  0.00  0.00    -0.018 C 
ENDROOT
BRANCH   3  13
ATOM     13  C   UNL     1      34.044 -11.486 -24.905  0.00  0.00    +0.094 C 
ATOM     14  C   UNL     1      33.653 -12.285 -25.972  0.00  0.00    +0.153 C 
ATOM     15  C   UNL     1      35.089 -10.578 -25.043  0.00  0.00    +0.018 C 
ATOM     16  C   UNL     1      34.316 -12.177 -27.195  0.00  0.00    +0.038 C 
ATOM     17  C   UNL     1      35.751 -10.470 -26.266  0.00  0.00    +0.001 C 
ATOM     18  C   UNL     1      35.365 -11.269 -27.342  0.00  0.00    +0.003 C 
BRANCH  14  19
ATOM     19  O   UNL     1      32.630 -13.179 -25.850  0.00  0.00    -0.470 OA
ATOM     20  C   UNL     1      32.637 -14.296 -26.736  0.00  0.00    +0.253 C 
ENDBRANCH  14  19
ENDBRANCH   3  13
BRANCH   5  21
ATOM     21  C   UNL     1      33.748 -14.082 -23.580  0.00  0.00    +0.139 C 
BRANCH  21  22
ATOM     22  S   UNL     1      34.580 -15.052 -22.316  0.00  0.00    -0.089 S 
BRANCH  22  27
ATOM     23  N   UNL     1      34.957 -18.069 -20.985  0.00  0.00    -0.271 NA
ATOM     24  N   UNL     1      34.512 -16.776 -24.399  0.00  0.00    -0.241 NA
ATOM     25  N   UNL     1      35.016 -20.047 -22.011  0.00  0.00    -0.307 N 
ATOM     26  N   UNL     1      34.722 -19.203 -24.272  0.00  0.00    -0.232 NA
ATOM     27  C   UNL     1      34.637 -16.677 -23.072  0.00  0.00    +0.103 C 
ATOM     28  C   UNL     1      34.803 -17.802 -22.315  0.00  0.00    +0.156 C 
ATOM     29  C   UNL     1      34.843 -19.046 -22.932  0.00  0.00    +0.124 C 
ATOM     30  C   UNL     1      35.081 -19.427 -20.852  0.00  0.00    +0.163 C 
ATOM     31  C   UNL     1      34.562 -18.026 -24.916  0.00  0.00    +0.252 C 
ATOM     32  H   UNL     1      34.977 -17.408 -20.256  0.00  0.00    +0.125 HD
ATOM     33  H   UNL     1      35.078 -21.015 -22.179  0.00  0.00    +0.149 HD
ENDBRANCH  22  27
ENDBRANCH  21  22
ENDBRANCH   5  21
TORSDOF 5
ENDMDL
MODEL 7
REMARK VINA RESULT:      -8.3      8.752     13.164
REMARK  Name = 6852165
REMARK  5 active torsions:
REMARK  status: ('A' for Active; 'I' for Inactive)
REMARK    1  A    between atoms: N_3  and  C_13
REMARK    2  A    between atoms: C_5  and  C_21
REMARK    3  A    between atoms: C_14  and  O_19
REMARK    4  A    between atoms: C_21  and  S_22
REMARK    5  A    between atoms: S_22  and  C_27
REMARK                            x       y       z     vdW  Elec       q    Type
REMARK                         _______ _______ _______ _____ _____    ______ ____
ROOT
ATOM      1 CL   UNL     1      31.589  -8.002 -22.130  0.00  0.00    -0.082 Cl
ATOM      2  O   UNL     1      32.320 -10.035 -23.724  0.00  0.00    -0.269 OA
ATOM      3  N   UNL     1      32.617 -12.319 -23.228  0.00  0.00    -0.208 N 
ATOM      4  N   UNL     1      32.350 -13.050 -20.980  0.00  0.00    -0.394 NA
ATOM      5  C   UNL     1      32.589 -13.297 -22.231  0.00  0.00    +0.181 C 
ATOM      6  C   UNL     1      32.004 -10.690 -21.514  0.00  0.00    +0.091 C 
ATOM      7  C   UNL     1      32.307 -10.975 -22.932  0.00  0.00    +0.261 C 
ATOM      8  C   UNL     1      32.062 -11.737 -20.594  0.00  0.00    +0.120 C 
ATOM      9  C   UNL     1      31.690  -9.391 -21.099  0.00  0.00    +0.064 C 
ATOM     10  C   UNL     1      31.800 -11.470 -19.245  0.00  0.00    +0.085 C 
ATOM     11  C   UNL     1      31.430  -9.138 -19.752  0.00  0.00    +0.007 C 
ATOM     12  C   UNL     1      31.487 -10.176 -18.825  0.00  0.00    -0.018 C 
ENDROOT
BRANCH   3  13
ATOM     13  C   UNL     1      33.003 -12.618 -24.580  0.00  0.00    +0.094 C 
ATOM     14  C   UNL     1      34.013 -11.891 -25.199  0.00  0.00    +0.153 C 
ATOM     15  C   UNL     1      32.350 -13.643 -25.255  0.00  0.00    +0.018 C 
ATOM     16  C   UNL     1      34.375 -12.193 -26.511  0.00  0.00    +0.038 C 
ATOM     17  C   UNL     1      32.713 -13.945 -26.567  0.00  0.00    +0.001 C 
ATOM     18  C   UNL     1      33.726 -13.220 -27.196  0.00  0.00    +0.003 C 
BRANCH  14  19
ATOM     19  O   UNL     1      34.660 -10.883 -24.547  0.00  0.00    -0.470 OA
ATOM     20  C   UNL     1      35.498 -10.038 -25.333  0.00  0.00    +0.253 C 
ENDBRANCH  14  19
ENDBRANCH   3  13
BRANCH   5  21
ATOM     21  C   UNL     1      32.787 -14.756 -22.589  0.00  0.00    +0.139 C 
BRANCH  21  22
ATOM     22  S   UNL     1      34.534 -15.132 -22.391  0.00  0.00    -0.089 S 
BRANCH  22  27
ATOM     23  N   UNL     1      34.970 -18.099 -20.970  0.00  0.00    -0.271 NA
ATOM     24  N   UNL     1      34.543 -16.914 -24.424  0.00  0.00    -0.241 NA
ATOM     25  N   UNL     1      35.095 -20.103 -21.938  0.00  0.00    -0.307 N 
ATOM     26  N   UNL     1      34.813 -19.330 -24.226  0.00  0.00    -0.232 NA
ATOM     27  C   UNL     1      34.645 -16.775 -23.099  0.00  0.00    +0.103 C 
ATOM     28  C   UNL     1      34.828 -17.873 -22.309  0.00  0.00    +0.156 C 
ATOM     29  C   UNL     1      34.909 -19.132 -22.889  0.00  0.00    +0.124 C 
ATOM     30  C   UNL     1      35.126 -19.449 -20.796  0.00  0.00    +0.163 C 
ATOM     31  C   UNL     1      34.633 -18.176 -24.905  0.00  0.00    +0.252 C 
ATOM     32  H   UNL     1      34.961 -17.418 -20.260  0.00  0.00    +0.125 HD
ATOM     33  H   UNL     1      35.184 -21.074 -22.078  0.00  0.00    +0.149 HD
ENDBRANCH  22  27
ENDBRANCH  21  22
ENDBRANCH   5  21
TORSDOF 5
ENDMDL
MODEL 8
REMARK VINA RESULT:      -8.3     11.771     15.658
REMARK  Name = 6852165
REMARK  5 active torsions:
REMARK  status: ('A' for Active; 'I' for Inactive)
REMARK    1  A    between atoms: N_3  and  C_13
REMARK    2  A    between atoms: C_5  and  C_21
REMARK    3  A    between atoms: C_14  and  O_19
REMARK    4  A    between atoms: C_21  and  S_22
REMARK    5  A    between atoms: S_22  and  C_27
REMARK                            x       y       z     vdW  Elec       q    Type
REMARK                         _______ _______ _______ _____ _____    ______ ____
ROOT
ATOM      1 CL   UNL     1      31.938  -7.629 -18.779  0.00  0.00    -0.082 Cl
ATOM      2  O   UNL     1      32.651  -7.139 -21.321  0.00  0.00    -0.269 OA
ATOM      3  N   UNL     1      32.771  -8.596 -23.169  0.00  0.00    -0.208 N 
ATOM      4  N   UNL     1      32.303 -10.906 -22.843  0.00  0.00    -0.394 NA
ATOM      5  C   UNL     1      32.613  -9.910 -23.615  0.00  0.00    +0.181 C 
ATOM      6  C   UNL     1      32.141  -9.378 -20.941  0.00  0.00    +0.091 C 
ATOM      7  C   UNL     1      32.525  -8.255 -21.822  0.00  0.00    +0.261 C 
ATOM      8  C   UNL     1      32.071 -10.660 -21.485  0.00  0.00    +0.120 C 
ATOM      9  C   UNL     1      31.880  -9.162 -19.584  0.00  0.00    +0.064 C 
ATOM     10  C   UNL     1      31.732 -11.733 -20.651  0.00  0.00    +0.085 C 
ATOM     11  C   UNL     1      31.544 -10.240 -18.763  0.00  0.00    +0.007 C 
ATOM     12  C   UNL     1      31.471 -11.524 -19.296  0.00  0.00    -0.018 C 
ENDROOT
BRANCH   3  13
ATOM     13  C   UNL     1      33.231  -7.546 -24.035  0.00  0.00    +0.094 C 
ATOM     14  C   UNL     1      32.340  -6.595 -24.519  0.00  0.00    +0.153 C 
ATOM     15  C   UNL     1      34.577  -7.497 -24.379  0.00  0.00    +0.018 C 
ATOM     16  C   UNL     1      32.801  -5.582 -25.359  0.00  0.00    +0.038 C 
ATOM     17  C   UNL     1      35.038  -6.483 -25.218  0.00  0.00    +0.001 C 
ATOM     18  C   UNL     1      34.150  -5.525 -25.709  0.00  0.00    +0.003 C 
BRANCH  14  19
ATOM     19  O   UNL     1      31.017  -6.632 -24.189  0.00  0.00    -0.470 OA
ATOM     20  C   UNL     1      30.546  -5.628 -23.293  0.00  0.00    +0.253 C 
ENDBRANCH  14  19
ENDBRANCH   3  13
BRANCH   5  21
ATOM     21  C   UNL     1      32.745 -10.236 -25.089  0.00  0.00    +0.139 C 
BRANCH  21  22
ATOM     22  S   UNL     1      34.330 -11.052 -25.325  0.00  0.00    -0.089 S 
BRANCH  22  27
ATOM     23  N   UNL     1      34.251 -13.452 -23.034  0.00  0.00    -0.271 NA
ATOM     24  N   UNL     1      33.437 -13.255 -26.614  0.00  0.00    -0.241 NA
ATOM     25  N   UNL     1      33.634 -15.580 -23.267  0.00  0.00    -0.307 N 
ATOM     26  N   UNL     1      33.092 -15.461 -25.634  0.00  0.00    -0.232 NA
ATOM     27  C   UNL     1      33.848 -12.776 -25.437  0.00  0.00    +0.103 C 
ATOM     28  C   UNL     1      33.897 -13.593 -24.345  0.00  0.00    +0.156 C 
ATOM     29  C   UNL     1      33.516 -14.924 -24.465  0.00  0.00    +0.124 C 
ATOM     30  C   UNL     1      34.077 -14.668 -22.428  0.00  0.00    +0.163 C 
ATOM     31  C   UNL     1      33.085 -14.562 -26.642  0.00  0.00    +0.252 C 
ATOM     32  H   UNL     1      34.573 -12.627 -22.603  0.00  0.00    +0.125 HD
ATOM     33  H   UNL     1      33.431 -16.525 -23.076  0.00  0.00    +0.149 HD
ENDBRANCH  22  27
ENDBRANCH  21  22
ENDBRANCH   5  21
TORSDOF 5
ENDMDL
MODEL 9
REMARK VINA RESULT:      -8.0      3.013      6.408
REMARK  Name = 6852165
REMARK  5 active torsions:
REMARK  status: ('A' for Active; 'I' for Inactive)
REMARK    1  A    between atoms: N_3  and  C_13
REMARK    2  A    between atoms: C_5  and  C_21
REMARK    3  A    between atoms: C_14  and  O_19
REMARK    4  A    between atoms: C_21  and  S_22
REMARK    5  A    between atoms: S_22  and  C_27
REMARK                            x       y       z     vdW  Elec       q    Type
REMARK                         _______ _______ _______ _____ _____    ______ ____
ROOT
ATOM      1 CL   UNL     1      29.619 -22.517 -16.636  0.00  0.00    -0.082 Cl
ATOM      2  O   UNL     1      32.117 -22.281 -17.593  0.00  0.00    -0.269 OA
ATOM      3  N   UNL     1      34.129 -23.239 -16.830  0.00  0.00    -0.208 N 
ATOM      4  N   UNL     1      34.092 -24.568 -14.857  0.00  0.00    -0.394 NA
ATOM      5  C   UNL     1      34.728 -24.049 -15.862  0.00  0.00    +0.181 C 
ATOM      6  C   UNL     1      32.003 -23.603 -15.681  0.00  0.00    +0.091 C 
ATOM      7  C   UNL     1      32.740 -22.990 -16.806  0.00  0.00    +0.261 C 
ATOM      8  C   UNL     1      32.716 -24.345 -14.740  0.00  0.00    +0.120 C 
ATOM      9  C   UNL     1      30.623 -23.419 -15.549  0.00  0.00    +0.064 C 
ATOM     10  C   UNL     1      32.029 -24.908 -13.658  0.00  0.00    +0.085 C 
ATOM     11  C   UNL     1      29.949 -23.984 -14.466  0.00  0.00    +0.007 C 
ATOM     12  C   UNL     1      30.652 -24.727 -13.521  0.00  0.00    -0.018 C 
ENDROOT
BRANCH   3  13
ATOM     13  C   UNL     1      34.892 -22.589 -17.860  0.00  0.00    +0.094 C 
ATOM     14  C   UNL     1      34.646 -22.868 -19.198  0.00  0.00    +0.153 C 
ATOM     15  C   UNL     1      35.877 -21.677 -17.495  0.00  0.00    +0.018 C 
ATOM     16  C   UNL     1      35.394 -22.229 -20.186  0.00  0.00    +0.038 C 
ATOM     17  C   UNL     1      36.625 -21.038 -18.482  0.00  0.00    +0.001 C 
ATOM     18  C   UNL     1      36.384 -21.313 -19.828  0.00  0.00    +0.003 C 
BRANCH  14  19
ATOM     19  O   UNL     1      33.682 -23.759 -19.569  0.00  0.00    -0.470 OA
ATOM     20  C   UNL     1      34.101 -24.878 -20.348  0.00  0.00    +0.253 C 
ENDBRANCH  14  19
ENDBRANCH   3  13
BRANCH   5  21
ATOM     21  C   UNL     1      36.192 -24.420 -15.979  0.00  0.00    +0.139 C 
BRANCH  21  22
ATOM     22  S   UNL     1      36.514 -25.741 -14.803  0.00  0.00    -0.089 S 
BRANCH  22  27
ATOM     23  N   UNL     1      35.333 -24.919 -11.812  0.00  0.00    -0.271 NA
ATOM     24  N   UNL     1      38.521 -24.410 -13.573  0.00  0.00    -0.241 NA
ATOM     25  N   UNL     1      36.349 -23.804 -10.171  0.00  0.00    -0.307 N 
ATOM     26  N   UNL     1      38.461 -23.462 -11.326  0.00  0.00    -0.232 NA
ATOM     27  C   UNL     1      37.266 -24.852 -13.440  0.00  0.00    +0.103 C 
ATOM     28  C   UNL     1      36.581 -24.624 -12.281  0.00  0.00    +0.156 C 
ATOM     29  C   UNL     1      37.193 -23.932 -11.244  0.00  0.00    +0.124 C 
ATOM     30  C   UNL     1      35.240 -24.407 -10.544  0.00  0.00    +0.163 C 
ATOM     31  C   UNL     1      39.039 -23.745 -12.513  0.00  0.00    +0.252 C 
ATOM     32  H   UNL     1      34.629 -25.408 -12.295  0.00  0.00    +0.125 HD
ATOM     33  H   UNL     1      36.531 -23.359  -9.312  0.00  0.00    +0.149 HD
ENDBRANCH  22  27
ENDBRANCH  21  22
ENDBRANCH   5  21
TORSDOF 5
ENDMDL
