MODEL 1
REMARK VINA RESULT:      -7.8      0.000      0.000
REMARK  Name = 39040
REMARK  0 active torsions:
REMARK  status: ('A' for Active; 'I' for Inactive)
REMARK                            x       y       z     vdW  Elec       q    Type
REMARK                         _______ _______ _______ _____ _____    ______ ____
ROOT
ATOM      1  S   UNL     1      32.784 -13.913 -24.748  0.00  0.00    -0.049 S 
ATOM      2  N   UNL     1      34.066 -16.015 -23.963  0.00  0.00    -0.226 N 
ATOM      3  N   UNL     1      34.078 -15.982 -26.157  0.00  0.00    -0.124 NA
ATOM      4  N   UNL     1      34.766 -17.110 -25.703  0.00  0.00    -0.127 NA
ATOM      5  C   UNL     1      33.697 -15.445 -22.758  0.00  0.00    +0.061 C 
ATOM      6  C   UNL     1      32.973 -14.264 -22.992  0.00  0.00    +0.046 C 
ATOM      7  C   UNL     1      33.974 -15.926 -21.493  0.00  0.00    -0.007 C 
ATOM      8  C   UNL     1      33.677 -15.356 -25.085  0.00  0.00    +0.193 C 
ATOM      9  C   UNL     1      32.501 -13.522 -21.923  0.00  0.00    +0.008 C 
ATOM     10  C   UNL     1      33.496 -15.175 -20.418  0.00  0.00    -0.003 C 
ATOM     11  C   UNL     1      34.745 -17.108 -24.380  0.00  0.00    +0.197 C 
ATOM     12  C   UNL     1      34.737 -17.172 -21.219  0.00  0.00    +0.032 C 
ATOM     13  C   UNL     1      32.768 -13.987 -20.630  0.00  0.00    +0.000 C 
ENDROOT
TORSDOF 0
ENDMDL
MODEL 2
REMARK VINA RESULT:      -7.7      1.263      1.771
REMARK  Name = 39040
REMARK  0 active torsions:
REMARK  status: ('A' for Active; 'I' for Inactive)
REMARK                            x       y       z     vdW  Elec       q    Type
REMARK                         _______ _______ _______ _____ _____    ______ ____
ROOT
ATOM      1  S   UNL     1      32.930 -13.331 -23.339  0.00  0.00    -0.049 S 
ATOM      2  N   UNL     1      33.799 -15.521 -24.399  0.00  0.00    -0.226 N 
ATOM      3  N   UNL     1      32.942 -14.280 -25.992  0.00  0.00    -0.124 NA
ATOM      4  N   UNL     1      33.421 -15.473 -26.538  0.00  0.00    -0.127 NA
ATOM      5  C   UNL     1      34.112 -15.713 -23.066  0.00  0.00    +0.061 C 
ATOM      6  C   UNL     1      33.704 -14.596 -22.316  0.00  0.00    +0.046 C 
ATOM      7  C   UNL     1      34.730 -16.813 -22.507  0.00  0.00    -0.007 C 
ATOM      8  C   UNL     1      33.188 -14.350 -24.713  0.00  0.00    +0.193 C 
ATOM      9  C   UNL     1      33.918 -14.568 -20.949  0.00  0.00    +0.008 C 
ATOM     10  C   UNL     1      34.944 -16.781 -21.128  0.00  0.00    -0.003 C 
ATOM     11  C   UNL     1      33.932 -16.204 -25.560  0.00  0.00    +0.197 C 
ATOM     12  C   UNL     1      35.172 -18.007 -23.277  0.00  0.00    +0.032 C 
ATOM     13  C   UNL     1      34.543 -15.672 -20.358  0.00  0.00    +0.000 C 
ENDROOT
TORSDOF 0
ENDMDL
MODEL 3
REMARK VINA RESULT:      -7.7      1.533      2.860
REMARK  Name = 39040
REMARK  0 active torsions:
REMARK  status: ('A' for Active; 'I' for Inactive)
REMARK                            x       y       z     vdW  Elec       q    Type
REMARK                         _______ _______ _______ _____ _____    ______ ____
ROOT
ATOM      1  S   UNL     1      34.755 -17.307 -25.028  0.00  0.00    -0.049 S 
ATOM      2  N   UNL     1      33.498 -15.137 -24.405  0.00  0.00    -0.226 N 
ATOM      3  N   UNL     1      33.392 -15.392 -26.581  0.00  0.00    -0.124 NA
ATOM      4  N   UNL     1      32.719 -14.223 -26.215  0.00  0.00    -0.127 NA
ATOM      5  C   UNL     1      33.920 -15.582 -23.164  0.00  0.00    +0.061 C 
ATOM      6  C   UNL     1      34.639 -16.781 -23.309  0.00  0.00    +0.046 C 
ATOM      7  C   UNL     1      33.695 -14.976 -21.944  0.00  0.00    -0.007 C 
ATOM      8  C   UNL     1      33.842 -15.906 -25.469  0.00  0.00    +0.193 C 
ATOM      9  C   UNL     1      35.160 -17.410 -22.192  0.00  0.00    +0.008 C 
ATOM     10  C   UNL     1      34.222 -15.614 -20.820  0.00  0.00    -0.003 C 
ATOM     11  C   UNL     1      32.796 -14.092 -24.900  0.00  0.00    +0.197 C 
ATOM     12  C   UNL     1      32.938 -13.708 -21.765  0.00  0.00    +0.032 C 
ATOM     13  C   UNL     1      34.946 -16.817 -20.942  0.00  0.00    +0.000 C 
ENDROOT
TORSDOF 0
ENDMDL
MODEL 4
REMARK VINA RESULT:      -7.7      1.404      2.606
REMARK  Name = 39040
REMARK  0 active torsions:
REMARK  status: ('A' for Active; 'I' for Inactive)
REMARK                            x       y       z     vdW  Elec       q    Type
REMARK                         _______ _______ _______ _____ _____    ______ ____
ROOT
ATOM      1  S   UNL     1      35.082 -17.353 -23.377  0.00  0.00    -0.049 S 
ATOM      2  N   UNL     1      33.664 -15.375 -24.245  0.00  0.00    -0.226 N 
ATOM      3  N   UNL     1      34.358 -16.534 -25.974  0.00  0.00    -0.124 NA
ATOM      4  N   UNL     1      33.586 -15.455 -26.414  0.00  0.00    -0.127 NA
ATOM      5  C   UNL     1      33.611 -15.178 -22.877  0.00  0.00    +0.061 C 
ATOM      6  C   UNL     1      34.345 -16.183 -22.223  0.00  0.00    +0.046 C 
ATOM      7  C   UNL     1      32.953 -14.165 -22.208  0.00  0.00    -0.007 C 
ATOM      8  C   UNL     1      34.378 -16.448 -24.672  0.00  0.00    +0.193 C 
ATOM      9  C   UNL     1      34.431 -16.185 -20.842  0.00  0.00    +0.008 C 
ATOM     10  C   UNL     1      33.042 -14.171 -20.815  0.00  0.00    -0.003 C 
ATOM     11  C   UNL     1      33.180 -14.773 -25.355  0.00  0.00    +0.197 C 
ATOM     12  C   UNL     1      32.171 -13.091 -22.876  0.00  0.00    +0.032 C 
ATOM     13  C   UNL     1      33.773 -15.169 -20.140  0.00  0.00    +0.000 C 
ENDROOT
TORSDOF 0
ENDMDL
MODEL 5
REMARK VINA RESULT:      -7.5      1.823      3.011
REMARK  Name = 39040
REMARK  0 active torsions:
REMARK  status: ('A' for Active; 'I' for Inactive)
REMARK                            x       y       z     vdW  Elec       q    Type
REMARK                         _______ _______ _______ _____ _____    ______ ____
ROOT
ATOM      1  S   UNL     1      34.064 -14.526 -22.577  0.00  0.00    -0.049 S 
ATOM      2  N   UNL     1      34.074 -16.290 -24.464  0.00  0.00    -0.226 N 
ATOM      3  N   UNL     1      33.397 -14.383 -25.311  0.00  0.00    -0.124 NA
ATOM      4  N   UNL     1      33.412 -15.358 -26.311  0.00  0.00    -0.127 NA
ATOM      5  C   UNL     1      34.511 -17.035 -23.383  0.00  0.00    +0.061 C 
ATOM      6  C   UNL     1      34.570 -16.221 -22.238  0.00  0.00    +0.046 C 
ATOM      7  C   UNL     1      34.849 -18.373 -23.378  0.00  0.00    -0.007 C 
ATOM      8  C   UNL     1      33.799 -14.983 -24.224  0.00  0.00    +0.193 C 
ATOM      9  C   UNL     1      34.983 -16.758 -21.032  0.00  0.00    +0.008 C 
ATOM     10  C   UNL     1      35.266 -18.911 -22.160  0.00  0.00    -0.003 C 
ATOM     11  C   UNL     1      33.823 -16.497 -25.777  0.00  0.00    +0.197 C 
ATOM     12  C   UNL     1      34.796 -19.255 -24.575  0.00  0.00    +0.032 C 
ATOM     13  C   UNL     1      35.332 -18.113 -21.000  0.00  0.00    +0.000 C 
ENDROOT
TORSDOF 0
ENDMDL
MODEL 6
REMARK VINA RESULT:      -7.5      2.307      4.323
REMARK  Name = 39040
REMARK  0 active torsions:
REMARK  status: ('A' for Active; 'I' for Inactive)
REMARK                            x       y       z     vdW  Elec       q    Type
REMARK                         _______ _______ _______ _____ _____    ______ ____
ROOT
ATOM      1  S   UNL     1      35.089 -17.807 -23.344  0.00  0.00    -0.049 S 
ATOM      2  N   UNL     1      34.370 -15.663 -22.093  0.00  0.00    -0.226 N 
ATOM      3  N   UNL     1      35.313 -17.018 -20.648  0.00  0.00    -0.124 NA
ATOM      4  N   UNL     1      34.913 -15.847 -19.998  0.00  0.00    -0.127 NA
ATOM      5  C   UNL     1      33.958 -15.385 -23.384  0.00  0.00    +0.061 C 
ATOM      6  C   UNL     1      34.274 -16.465 -24.227  0.00  0.00    +0.046 C 
ATOM      7  C   UNL     1      33.330 -14.238 -23.827  0.00  0.00    -0.007 C 
ATOM      8  C   UNL     1      34.969 -16.865 -21.897  0.00  0.00    +0.193 C 
ATOM      9  C   UNL     1      33.953 -16.406 -25.572  0.00  0.00    +0.008 C 
ATOM     10  C   UNL     1      33.008 -14.182 -25.184  0.00  0.00    -0.003 C 
ATOM     11  C   UNL     1      34.348 -15.048 -20.889  0.00  0.00    +0.197 C 
ATOM     12  C   UNL     1      32.985 -13.082 -22.957  0.00  0.00    +0.032 C 
ATOM     13  C   UNL     1      33.316 -15.254 -26.046  0.00  0.00    +0.000 C 
ENDROOT
TORSDOF 0
ENDMDL
MODEL 7
REMARK VINA RESULT:      -7.5      2.094      3.778
REMARK  Name = 39040
REMARK  0 active torsions:
REMARK  status: ('A' for Active; 'I' for Inactive)
REMARK                            x       y       z     vdW  Elec       q    Type
REMARK                         _______ _______ _______ _____ _____    ______ ____
ROOT
ATOM      1  S   UNL     1      33.765 -14.204 -21.592  0.00  0.00    -0.049 S 
ATOM      2  N   UNL     1      34.602 -16.479 -22.484  0.00  0.00    -0.226 N 
ATOM      3  N   UNL     1      35.012 -16.393 -20.330  0.00  0.00    -0.124 NA
ATOM      4  N   UNL     1      35.456 -17.615 -20.841  0.00  0.00    -0.127 NA
ATOM      5  C   UNL     1      34.100 -15.896 -23.633  0.00  0.00    +0.061 C 
ATOM      6  C   UNL     1      33.589 -14.621 -23.335  0.00  0.00    +0.046 C 
ATOM      7  C   UNL     1      34.081 -16.441 -24.901  0.00  0.00    -0.007 C 
ATOM      8  C   UNL     1      34.510 -15.745 -21.346  0.00  0.00    +0.193 C 
ATOM      9  C   UNL     1      33.033 -13.850 -24.341  0.00  0.00    +0.008 C 
ATOM     10  C   UNL     1      33.519 -15.660 -25.912  0.00  0.00    -0.003 C 
ATOM     11  C   UNL     1      35.198 -17.644 -22.139  0.00  0.00    +0.197 C 
ATOM     12  C   UNL     1      34.615 -17.787 -25.243  0.00  0.00    +0.032 C 
ATOM     13  C   UNL     1      33.001 -14.380 -25.635  0.00  0.00    +0.000 C 
ENDROOT
TORSDOF 0
ENDMDL
MODEL 8
REMARK VINA RESULT:      -7.4      1.720      3.334
REMARK  Name = 39040
REMARK  0 active torsions:
REMARK  status: ('A' for Active; 'I' for Inactive)
REMARK                            x       y       z     vdW  Elec       q    Type
REMARK                         _______ _______ _______ _____ _____    ______ ____
ROOT
ATOM      1  S   UNL     1      34.376 -17.183 -25.409  0.00  0.00    -0.049 S 
ATOM      2  N   UNL     1      33.935 -15.426 -23.566  0.00  0.00    -0.226 N 
ATOM      3  N   UNL     1      33.244 -14.604 -25.479  0.00  0.00    -0.124 NA
ATOM      4  N   UNL     1      33.018 -13.673 -24.462  0.00  0.00    -0.127 NA
ATOM      5  C   UNL     1      34.508 -16.455 -22.841  0.00  0.00    +0.061 C 
ATOM      6  C   UNL     1      34.822 -17.524 -23.698  0.00  0.00    +0.046 C 
ATOM      7  C   UNL     1      34.754 -16.477 -21.482  0.00  0.00    -0.007 C 
ATOM      8  C   UNL     1      33.793 -15.636 -24.900  0.00  0.00    +0.193 C 
ATOM      9  C   UNL     1      35.408 -18.669 -23.185  0.00  0.00    +0.008 C 
ATOM     10  C   UNL     1      35.345 -17.633 -20.970  0.00  0.00    -0.003 C 
ATOM     11  C   UNL     1      33.442 -14.191 -23.320  0.00  0.00    +0.197 C 
ATOM     12  C   UNL     1      34.431 -15.360 -20.554  0.00  0.00    +0.032 C 
ATOM     13  C   UNL     1      35.668 -18.716 -21.811  0.00  0.00    +0.000 C 
ENDROOT
TORSDOF 0
ENDMDL
MODEL 9
REMARK VINA RESULT:      -7.3      2.704      4.966
REMARK  Name = 39040
REMARK  0 active torsions:
REMARK  status: ('A' for Active; 'I' for Inactive)
REMARK                            x       y       z     vdW  Elec       q    Type
REMARK                         _______ _______ _______ _____ _____    ______ ____
ROOT
ATOM      1  S   UNL     1      35.321 -18.430 -21.147  0.00  0.00    -0.049 S 
ATOM      2  N   UNL     1      34.599 -16.139 -22.098  0.00  0.00    -0.226 N 
ATOM      3  N   UNL     1      35.022 -15.892 -19.960  0.00  0.00    -0.124 NA
ATOM      4  N   UNL     1      34.628 -14.666 -20.501  0.00  0.00    -0.127 NA
ATOM      5  C   UNL     1      34.526 -16.943 -23.221  0.00  0.00    +0.061 C 
ATOM      6  C   UNL     1      34.893 -18.258 -22.889  0.00  0.00    +0.046 C 
ATOM      7  C   UNL     1      34.156 -16.560 -24.495  0.00  0.00    -0.007 C 
ATOM      8  C   UNL     1      34.991 -16.744 -20.948  0.00  0.00    +0.193 C 
ATOM      9  C   UNL     1      34.894 -19.241 -23.863  0.00  0.00    +0.008 C 
ATOM     10  C   UNL     1      34.157 -17.553 -25.475  0.00  0.00    -0.003 C 
ATOM     11  C   UNL     1      34.378 -14.840 -21.789  0.00  0.00    +0.197 C 
ATOM     12  C   UNL     1      33.763 -15.176 -24.873  0.00  0.00    +0.032 C 
ATOM     13  C   UNL     1      34.522 -18.878 -25.163  0.00  0.00    +0.000 C 
ENDROOT
TORSDOF 0
ENDMDL
