MODEL 1
REMARK VINA RESULT:      -6.5      0.000      0.000
REMARK  Name = 440667
REMARK  4 active torsions:
REMARK  status: ('A' for Active; 'I' for Inactive)
REMARK    1  A    between atoms: C_5  and  C_9
REMARK    2  A    between atoms: C_9  and  O_10
REMARK    3  A    between atoms: C_9  and  C_12
REMARK    4  A    between atoms: C_12  and  O_13
REMARK                            x       y       z     vdW  Elec       q    Type
REMARK                         _______ _______ _______ _____ _____    ______ ____
ROOT
ATOM      1  O   UNL     1      38.642 -23.855 -12.542  0.00  0.00    -0.436 OA
ATOM      2  O   UNL     1      36.964 -26.916 -13.017  0.00  0.00    -0.284 OA
ATOM      3  O   UNL     1      35.785 -25.130 -11.144  0.00  0.00    -0.276 OA
ATOM      4  O   UNL     1      37.340 -22.699 -10.996  0.00  0.00    -0.241 OA
ATOM      5  C   UNL     1      38.663 -25.151 -13.222  0.00  0.00    +0.262 C 
ATOM      6  C   UNL     1      37.427 -25.836 -12.729  0.00  0.00    +0.260 C 
ATOM      7  C   UNL     1      36.793 -24.910 -11.765  0.00  0.00    +0.308 C 
ATOM      8  C   UNL     1      37.601 -23.656 -11.687  0.00  0.00    +0.384 C 
ENDROOT
BRANCH   5   9
ATOM      9  C   UNL     1      38.634 -24.929 -14.719  0.00  0.00    +0.188 C 
BRANCH   9  10
ATOM     10  O   UNL     1      38.584 -26.195 -15.381  0.00  0.00    -0.378 OA
ATOM     11  H   UNL     1      39.305 -26.757 -15.058  0.00  0.00    +0.211 HD
ENDBRANCH   9  10
BRANCH   9  12
ATOM     12  C   UNL     1      37.409 -24.124 -15.148  0.00  0.00    +0.171 C 
BRANCH  12  13
ATOM     13  O   UNL     1      37.718 -22.735 -15.087  0.00  0.00    -0.379 OA
ATOM     14  H   UNL     1      37.712 -22.364 -15.984  0.00  0.00    +0.211 HD
ENDBRANCH  12  13
ENDBRANCH   9  12
ENDBRANCH   5   9
TORSDOF 4
ENDMDL
MODEL 2
REMARK VINA RESULT:      -6.4      1.507      3.083
REMARK  Name = 440667
REMARK  4 active torsions:
REMARK  status: ('A' for Active; 'I' for Inactive)
REMARK    1  A    between atoms: C_5  and  C_9
REMARK    2  A    between atoms: C_9  and  O_10
REMARK    3  A    between atoms: C_9  and  C_12
REMARK    4  A    between atoms: C_12  and  O_13
REMARK                            x       y       z     vdW  Elec       q    Type
REMARK                         _______ _______ _______ _____ _____    ______ ____
ROOT
ATOM      1  O   UNL     1      35.130 -24.728 -12.338  0.00  0.00    -0.436 OA
ATOM      2  O   UNL     1      37.598 -22.684 -13.802  0.00  0.00    -0.284 OA
ATOM      3  O   UNL     1      37.518 -22.694 -10.959  0.00  0.00    -0.276 OA
ATOM      4  O   UNL     1      35.441 -24.482 -10.043  0.00  0.00    -0.241 OA
ATOM      5  C   UNL     1      35.691 -24.222 -13.591  0.00  0.00    +0.262 C 
ATOM      6  C   UNL     1      36.799 -23.318 -13.150  0.00  0.00    +0.260 C 
ATOM      7  C   UNL     1      36.780 -23.326 -11.671  0.00  0.00    +0.308 C 
ATOM      8  C   UNL     1      35.703 -24.248 -11.200  0.00  0.00    +0.384 C 
ENDROOT
BRANCH   5   9
ATOM      9  C   UNL     1      36.199 -25.386 -14.415  0.00  0.00    +0.188 C 
BRANCH   9  10
ATOM     10  O   UNL     1      36.654 -24.902 -15.681  0.00  0.00    -0.378 OA
ATOM     11  H   UNL     1      37.588 -24.649 -15.613  0.00  0.00    +0.211 HD
ENDBRANCH   9  10
BRANCH   9  12
ATOM     12  C   UNL     1      37.366 -26.096 -13.734  0.00  0.00    +0.171 C 
BRANCH  12  13
ATOM     13  O   UNL     1      36.860 -26.984 -12.742  0.00  0.00    -0.379 OA
ATOM     14  H   UNL     1      37.213 -26.733 -11.874  0.00  0.00    +0.211 HD
ENDBRANCH  12  13
ENDBRANCH   9  12
ENDBRANCH   5   9
TORSDOF 4
ENDMDL
MODEL 3
REMARK VINA RESULT:      -6.4      1.736      3.801
REMARK  Name = 440667
REMARK  4 active torsions:
REMARK  status: ('A' for Active; 'I' for Inactive)
REMARK    1  A    between atoms: C_5  and  C_9
REMARK    2  A    between atoms: C_9  and  O_10
REMARK    3  A    between atoms: C_9  and  C_12
REMARK    4  A    between atoms: C_12  and  O_13
REMARK                            x       y       z     vdW  Elec       q    Type
REMARK                         _______ _______ _______ _____ _____    ______ ____
ROOT
ATOM      1  O   UNL     1      38.291 -24.940 -13.882  0.00  0.00    -0.436 OA
ATOM      2  O   UNL     1      35.103 -25.007 -15.377  0.00  0.00    -0.284 OA
ATOM      3  O   UNL     1      36.809 -27.198 -15.989  0.00  0.00    -0.276 OA
ATOM      4  O   UNL     1      39.323 -26.902 -14.596  0.00  0.00    -0.241 OA
ATOM      5  C   UNL     1      37.027 -24.225 -14.062  0.00  0.00    +0.262 C 
ATOM      6  C   UNL     1      36.232 -25.122 -14.958  0.00  0.00    +0.260 C 
ATOM      7  C   UNL     1      37.102 -26.276 -15.272  0.00  0.00    +0.308 C 
ATOM      8  C   UNL     1      38.402 -26.118 -14.554  0.00  0.00    +0.384 C 
ENDROOT
BRANCH   5   9
ATOM      9  C   UNL     1      36.365 -24.034 -12.714  0.00  0.00    +0.188 C 
BRANCH   9  10
ATOM     10  O   UNL     1      35.460 -25.114 -12.478  0.00  0.00    -0.378 OA
ATOM     11  H   UNL     1      35.412 -25.293 -11.526  0.00  0.00    +0.211 HD
ENDBRANCH   9  10
BRANCH   9  12
ATOM     12  C   UNL     1      37.387 -24.018 -11.579  0.00  0.00    +0.171 C 
BRANCH  12  13
ATOM     13  O   UNL     1      38.169 -22.831 -11.670  0.00  0.00    -0.379 OA
ATOM     14  H   UNL     1      37.604 -22.059 -11.503  0.00  0.00    +0.211 HD
ENDBRANCH  12  13
ENDBRANCH   9  12
ENDBRANCH   5   9
TORSDOF 4
ENDMDL
MODEL 4
REMARK VINA RESULT:      -6.3      1.757      2.907
REMARK  Name = 440667
REMARK  4 active torsions:
REMARK  status: ('A' for Active; 'I' for Inactive)
REMARK    1  A    between atoms: C_5  and  C_9
REMARK    2  A    between atoms: C_9  and  O_10
REMARK    3  A    between atoms: C_9  and  C_12
REMARK    4  A    between atoms: C_12  and  O_13
REMARK                            x       y       z     vdW  Elec       q    Type
REMARK                         _______ _______ _______ _____ _____    ______ ____
ROOT
ATOM      1  O   UNL     1      38.200 -23.903 -14.816  0.00  0.00    -0.436 OA
ATOM      2  O   UNL     1      36.584 -25.963 -12.459  0.00  0.00    -0.284 OA
ATOM      3  O   UNL     1      34.917 -24.815 -14.457  0.00  0.00    -0.276 OA
ATOM      4  O   UNL     1      36.510 -23.223 -16.267  0.00  0.00    -0.241 OA
ATOM      5  C   UNL     1      38.361 -24.709 -13.604  0.00  0.00    +0.262 C 
ATOM      6  C   UNL     1      36.982 -25.220 -13.327  0.00  0.00    +0.260 C 
ATOM      7  C   UNL     1      36.106 -24.644 -14.370  0.00  0.00    +0.308 C 
ATOM      8  C   UNL     1      36.931 -23.818 -15.301  0.00  0.00    +0.384 C 
ENDROOT
BRANCH   5   9
ATOM      9  C   UNL     1      39.340 -25.829 -13.878  0.00  0.00    +0.188 C 
BRANCH   9  10
ATOM     10  O   UNL     1      38.659 -26.899 -14.538  0.00  0.00    -0.378 OA
ATOM     11  H   UNL     1      38.894 -26.899 -15.478  0.00  0.00    +0.211 HD
ENDBRANCH   9  10
BRANCH   9  12
ATOM     12  C   UNL     1      40.486 -25.373 -14.778  0.00  0.00    +0.171 C 
BRANCH  12  13
ATOM     13  O   UNL     1      40.282 -25.883 -16.092  0.00  0.00    -0.379 OA
ATOM     14  H   UNL     1      39.850 -26.750 -16.037  0.00  0.00    +0.211 HD
ENDBRANCH  12  13
ENDBRANCH   9  12
ENDBRANCH   5   9
TORSDOF 4
ENDMDL
MODEL 5
REMARK VINA RESULT:      -6.3      1.982      3.769
REMARK  Name = 440667
REMARK  4 active torsions:
REMARK  status: ('A' for Active; 'I' for Inactive)
REMARK    1  A    between atoms: C_5  and  C_9
REMARK    2  A    between atoms: C_9  and  O_10
REMARK    3  A    between atoms: C_9  and  C_12
REMARK    4  A    between atoms: C_12  and  O_13
REMARK                            x       y       z     vdW  Elec       q    Type
REMARK                         _______ _______ _______ _____ _____    ______ ____
ROOT
ATOM      1  O   UNL     1      36.043 -25.530 -14.719  0.00  0.00    -0.436 OA
ATOM      2  O   UNL     1      38.948 -24.554 -12.982  0.00  0.00    -0.284 OA
ATOM      3  O   UNL     1      39.242 -26.755 -14.759  0.00  0.00    -0.276 OA
ATOM      4  O   UNL     1      36.726 -27.298 -16.071  0.00  0.00    -0.241 OA
ATOM      5  C   UNL     1      36.602 -24.624 -13.714  0.00  0.00    +0.262 C 
ATOM      6  C   UNL     1      38.043 -25.021 -13.636  0.00  0.00    +0.260 C 
ATOM      7  C   UNL     1      38.215 -26.155 -14.569  0.00  0.00    +0.308 C 
ATOM      8  C   UNL     1      36.912 -26.437 -15.243  0.00  0.00    +0.384 C 
ENDROOT
BRANCH   5   9
ATOM      9  C   UNL     1      36.428 -23.195 -14.178  0.00  0.00    +0.188 C 
BRANCH   9  10
ATOM     10  O   UNL     1      37.629 -22.758 -14.818  0.00  0.00    -0.378 OA
ATOM     11  H   UNL     1      37.935 -23.444 -15.432  0.00  0.00    +0.211 HD
ENDBRANCH   9  10
BRANCH   9  12
ATOM     12  C   UNL     1      35.284 -23.060 -15.180  0.00  0.00    +0.171 C 
BRANCH  12  13
ATOM     13  O   UNL     1      35.792 -23.241 -16.498  0.00  0.00    -0.379 OA
ATOM     14  H   UNL     1      35.181 -22.840 -17.137  0.00  0.00    +0.211 HD
ENDBRANCH  12  13
ENDBRANCH   9  12
ENDBRANCH   5   9
TORSDOF 4
ENDMDL
MODEL 6
REMARK VINA RESULT:      -6.3      1.811      2.624
REMARK  Name = 440667
REMARK  4 active torsions:
REMARK  status: ('A' for Active; 'I' for Inactive)
REMARK    1  A    between atoms: C_5  and  C_9
REMARK    2  A    between atoms: C_9  and  O_10
REMARK    3  A    between atoms: C_9  and  C_12
REMARK    4  A    between atoms: C_12  and  O_13
REMARK                            x       y       z     vdW  Elec       q    Type
REMARK                         _______ _______ _______ _____ _____    ______ ____
ROOT
ATOM      1  O   UNL     1      35.642 -23.725 -13.733  0.00  0.00    -0.436 OA
ATOM      2  O   UNL     1      37.988 -24.421 -11.199  0.00  0.00    -0.284 OA
ATOM      3  O   UNL     1      35.280 -25.036 -10.588  0.00  0.00    -0.276 OA
ATOM      4  O   UNL     1      33.598 -24.409 -12.853  0.00  0.00    -0.241 OA
ATOM      5  C   UNL     1      37.048 -23.644 -13.334  0.00  0.00    +0.262 C 
ATOM      6  C   UNL     1      37.063 -24.224 -11.954  0.00  0.00    +0.260 C 
ATOM      7  C   UNL     1      35.661 -24.565 -11.629  0.00  0.00    +0.308 C 
ATOM      8  C   UNL     1      34.794 -24.236 -12.799  0.00  0.00    +0.384 C 
ENDROOT
BRANCH   5   9
ATOM      9  C   UNL     1      37.889 -24.449 -14.301  0.00  0.00    +0.188 C 
BRANCH   9  10
ATOM     10  O   UNL     1      39.213 -24.576 -13.779  0.00  0.00    -0.378 OA
ATOM     11  H   UNL     1      39.452 -25.514 -13.729  0.00  0.00    +0.211 HD
ENDBRANCH   9  10
BRANCH   9  12
ATOM     12  C   UNL     1      37.326 -25.853 -14.507  0.00  0.00    +0.171 C 
BRANCH  12  13
ATOM     13  O   UNL     1      36.527 -25.869 -15.686  0.00  0.00    -0.379 OA
ATOM     14  H   UNL     1      35.836 -26.545 -15.597  0.00  0.00    +0.211 HD
ENDBRANCH  12  13
ENDBRANCH   9  12
ENDBRANCH   5   9
TORSDOF 4
ENDMDL
MODEL 7
REMARK VINA RESULT:      -6.1      1.431      3.644
REMARK  Name = 440667
REMARK  4 active torsions:
REMARK  status: ('A' for Active; 'I' for Inactive)
REMARK    1  A    between atoms: C_5  and  C_9
REMARK    2  A    between atoms: C_9  and  O_10
REMARK    3  A    between atoms: C_9  and  C_12
REMARK    4  A    between atoms: C_12  and  O_13
REMARK                            x       y       z     vdW  Elec       q    Type
REMARK                         _______ _______ _______ _____ _____    ______ ____
ROOT
ATOM      1  O   UNL     1      36.896 -24.173 -14.448  0.00  0.00    -0.436 OA
ATOM      2  O   UNL     1      37.122 -26.755 -12.062  0.00  0.00    -0.284 OA
ATOM      3  O   UNL     1      39.527 -26.125 -13.444  0.00  0.00    -0.276 OA
ATOM      4  O   UNL     1      39.055 -23.954 -15.291  0.00  0.00    -0.241 OA
ATOM      5  C   UNL     1      36.161 -24.998 -13.487  0.00  0.00    +0.262 C 
ATOM      6  C   UNL     1      37.206 -25.908 -12.922  0.00  0.00    +0.260 C 
ATOM      7  C   UNL     1      38.467 -25.579 -13.621  0.00  0.00    +0.308 C 
ATOM      8  C   UNL     1      38.220 -24.460 -14.578  0.00  0.00    +0.384 C 
ENDROOT
BRANCH   5   9
ATOM      9  C   UNL     1      35.548 -24.106 -12.429  0.00  0.00    +0.188 C 
BRANCH   9  10
ATOM     10  O   UNL     1      34.775 -24.904 -11.531  0.00  0.00    -0.378 OA
ATOM     11  H   UNL     1      35.341 -25.222 -10.811  0.00  0.00    +0.211 HD
ENDBRANCH   9  10
BRANCH   9  12
ATOM     12  C   UNL     1      36.616 -23.379 -11.614  0.00  0.00    +0.171 C 
BRANCH  12  13
ATOM     13  O   UNL     1      36.583 -23.853 -10.272  0.00  0.00    -0.379 OA
ATOM     14  H   UNL     1      36.413 -23.109  -9.672  0.00  0.00    +0.211 HD
ENDBRANCH  12  13
ENDBRANCH   9  12
ENDBRANCH   5   9
TORSDOF 4
ENDMDL
MODEL 8
REMARK VINA RESULT:      -6.1      1.605      3.916
REMARK  Name = 440667
REMARK  4 active torsions:
REMARK  status: ('A' for Active; 'I' for Inactive)
REMARK    1  A    between atoms: C_5  and  C_9
REMARK    2  A    between atoms: C_9  and  O_10
REMARK    3  A    between atoms: C_9  and  C_12
REMARK    4  A    between atoms: C_12  and  O_13
REMARK                            x       y       z     vdW  Elec       q    Type
REMARK                         _______ _______ _______ _____ _____    ______ ____
ROOT
ATOM      1  O   UNL     1      36.885 -26.059 -13.017  0.00  0.00    -0.436 OA
ATOM      2  O   UNL     1      38.728 -23.380 -11.663  0.00  0.00    -0.284 OA
ATOM      3  O   UNL     1      40.012 -24.852 -13.730  0.00  0.00    -0.276 OA
ATOM      4  O   UNL     1      38.259 -26.945 -14.677  0.00  0.00    -0.241 OA
ATOM      5  C   UNL     1      36.910 -24.998 -12.009  0.00  0.00    +0.262 C 
ATOM      6  C   UNL     1      38.237 -24.337 -12.216  0.00  0.00    +0.260 C 
ATOM      7  C   UNL     1      38.910 -25.083 -13.302  0.00  0.00    +0.308 C 
ATOM      8  C   UNL     1      38.004 -26.166 -13.786  0.00  0.00    +0.384 C 
ENDROOT
BRANCH   5   9
ATOM      9  C   UNL     1      35.756 -24.050 -12.253  0.00  0.00    +0.188 C 
BRANCH   9  10
ATOM     10  O   UNL     1      36.271 -22.761 -12.593  0.00  0.00    -0.378 OA
ATOM     11  H   UNL     1      35.552 -22.110 -12.569  0.00  0.00    +0.211 HD
ENDBRANCH   9  10
BRANCH   9  12
ATOM     12  C   UNL     1      34.869 -24.523 -13.403  0.00  0.00    +0.171 C 
BRANCH  12  13
ATOM     13  O   UNL     1      33.556 -24.768 -12.910  0.00  0.00    -0.379 OA
ATOM     14  H   UNL     1      33.281 -24.031 -12.343  0.00  0.00    +0.211 HD
ENDBRANCH  12  13
ENDBRANCH   9  12
ENDBRANCH   5   9
TORSDOF 4
ENDMDL
MODEL 9
REMARK VINA RESULT:      -6.1      1.716      2.886
REMARK  Name = 440667
REMARK  4 active torsions:
REMARK  status: ('A' for Active; 'I' for Inactive)
REMARK    1  A    between atoms: C_5  and  C_9
REMARK    2  A    between atoms: C_9  and  O_10
REMARK    3  A    between atoms: C_9  and  C_12
REMARK    4  A    between atoms: C_12  and  O_13
REMARK                            x       y       z     vdW  Elec       q    Type
REMARK                         _______ _______ _______ _____ _____    ______ ____
ROOT
ATOM      1  O   UNL     1      36.931 -23.751 -13.544  0.00  0.00    -0.436 OA
ATOM      2  O   UNL     1      35.329 -25.155 -10.739  0.00  0.00    -0.284 OA
ATOM      3  O   UNL     1      33.621 -23.982 -12.687  0.00  0.00    -0.276 OA
ATOM      4  O   UNL     1      35.198 -22.960 -14.883  0.00  0.00    -0.241 OA
ATOM      5  C   UNL     1      37.118 -24.412 -12.251  0.00  0.00    +0.262 C 
ATOM      6  C   UNL     1      35.724 -24.617 -11.747  0.00  0.00    +0.260 C 
ATOM      7  C   UNL     1      34.823 -24.026 -12.761  0.00  0.00    +0.308 C 
ATOM      8  C   UNL     1      35.640 -23.494 -13.892  0.00  0.00    +0.384 C 
ENDROOT
BRANCH   5   9
ATOM      9  C   UNL     1      37.847 -25.721 -12.460  0.00  0.00    +0.188 C 
BRANCH   9  10
ATOM     10  O   UNL     1      36.892 -26.765 -12.659  0.00  0.00    -0.378 OA
ATOM     11  H   UNL     1      35.997 -26.393 -12.629  0.00  0.00    +0.211 HD
ENDBRANCH   9  10
BRANCH   9  12
ATOM     12  C   UNL     1      38.756 -25.673 -13.686  0.00  0.00    +0.171 C 
BRANCH  12  13
ATOM     13  O   UNL     1      39.708 -24.626 -13.523  0.00  0.00    -0.379 OA
ATOM     14  H   UNL     1      39.986 -24.304 -14.396  0.00  0.00    +0.211 HD
ENDBRANCH  12  13
ENDBRANCH   9  12
ENDBRANCH   5   9
TORSDOF 4
ENDMDL
