MODEL 1
REMARK VINA RESULT:      -7.5      0.000      0.000
REMARK  Name = 802
REMARK  3 active torsions:
REMARK  status: ('A' for Active; 'I' for Inactive)
REMARK    1  A    between atoms: C_3  and  C_11
REMARK    2  A    between atoms: C_11  and  C_13
REMARK    3  A    between atoms: C_13  and  O_14
REMARK                            x       y       z     vdW  Elec       q    Type
REMARK                         _______ _______ _______ _____ _____    ______ ____
ROOT
ATOM      1  N   UNL     1      36.769 -19.785 -20.417  0.00  0.00    -0.312 N 
ATOM      2  C   UNL     1      34.555 -19.749 -20.691  0.00  0.00    +0.011 C 
ATOM      3  C   UNL     1      35.128 -18.651 -21.391  0.00  0.00    +0.005 C 
ATOM      4  C   UNL     1      35.606 -20.444 -20.089  0.00  0.00    +0.048 C 
ATOM      5  C   UNL     1      36.490 -18.700 -21.205  0.00  0.00    +0.058 C 
ATOM      6  C   UNL     1      33.239 -20.220 -20.511  0.00  0.00    +0.001 C 
ATOM      7  C   UNL     1      35.406 -21.592 -19.313  0.00  0.00    +0.015 C 
ATOM      8  C   UNL     1      33.024 -21.367 -19.737  0.00  0.00    +0.000 C 
ATOM      9  C   UNL     1      34.092 -22.040 -19.147  0.00  0.00    +0.001 C 
ATOM     10  H   UNL     1      37.670 -20.055 -20.129  0.00  0.00    +0.152 HD
ENDROOT
BRANCH   3  11
ATOM     11  C   UNL     1      34.401 -17.636 -22.181  0.00  0.00    +0.137 C 
BRANCH  11  13
ATOM     12  O   UNL     1      34.982 -18.073 -24.506  0.00  0.00    -0.250 OA
ATOM     13  C   UNL     1      35.034 -17.334 -23.531  0.00  0.00    +0.318 C 
BRANCH  13  14
ATOM     14  O   UNL     1      35.677 -16.136 -23.546  0.00  0.00    -0.480 OA
ATOM     15  H   UNL     1      35.451 -15.477 -22.920  0.00  0.00    +0.295 HD
ENDBRANCH  13  14
ENDBRANCH  11  13
ENDBRANCH   3  11
TORSDOF 3
ENDMDL
MODEL 2
REMARK VINA RESULT:      -7.4      7.955      9.826
REMARK  Name = 802
REMARK  3 active torsions:
REMARK  status: ('A' for Active; 'I' for Inactive)
REMARK    1  A    between atoms: C_3  and  C_11
REMARK    2  A    between atoms: C_11  and  C_13
REMARK    3  A    between atoms: C_13  and  O_14
REMARK                            x       y       z     vdW  Elec       q    Type
REMARK                         _______ _______ _______ _____ _____    ______ ____
ROOT
ATOM      1  N   UNL     1      36.115 -26.136 -14.249  0.00  0.00    -0.312 N 
ATOM      2  C   UNL     1      37.326 -24.365 -14.862  0.00  0.00    +0.011 C 
ATOM      3  C   UNL     1      38.162 -25.280 -14.165  0.00  0.00    +0.005 C 
ATOM      4  C   UNL     1      36.048 -24.925 -14.902  0.00  0.00    +0.048 C 
ATOM      5  C   UNL     1      37.390 -26.359 -13.801  0.00  0.00    +0.058 C 
ATOM      6  C   UNL     1      37.535 -23.108 -15.467  0.00  0.00    +0.001 C 
ATOM      7  C   UNL     1      34.963 -24.290 -15.517  0.00  0.00    +0.015 C 
ATOM      8  C   UNL     1      36.458 -22.462 -16.086  0.00  0.00    +0.000 C 
ATOM      9  C   UNL     1      35.193 -23.045 -16.109  0.00  0.00    +0.001 C 
ATOM     10  H   UNL     1      35.359 -26.751 -14.124  0.00  0.00    +0.152 HD
ENDROOT
BRANCH   3  11
ATOM     11  C   UNL     1      39.602 -25.114 -13.878  0.00  0.00    +0.137 C 
BRANCH  11  13
ATOM     12  O   UNL     1      41.273 -26.862 -14.162  0.00  0.00    -0.250 OA
ATOM     13  C   UNL     1      40.501 -26.056 -14.664  0.00  0.00    +0.318 C 
BRANCH  13  14
ATOM     14  O   UNL     1      40.358 -25.909 -16.009  0.00  0.00    -0.480 OA
ATOM     15  H   UNL     1      39.564 -26.178 -16.426  0.00  0.00    +0.295 HD
ENDBRANCH  13  14
ENDBRANCH  11  13
ENDBRANCH   3  11
TORSDOF 3
ENDMDL
MODEL 3
REMARK VINA RESULT:      -7.2      1.764      2.636
REMARK  Name = 802
REMARK  3 active torsions:
REMARK  status: ('A' for Active; 'I' for Inactive)
REMARK    1  A    between atoms: C_3  and  C_11
REMARK    2  A    between atoms: C_11  and  C_13
REMARK    3  A    between atoms: C_13  and  O_14
REMARK                            x       y       z     vdW  Elec       q    Type
REMARK                         _______ _______ _______ _____ _____    ______ ____
ROOT
ATOM      1  N   UNL     1      32.670 -20.745 -20.287  0.00  0.00    -0.312 N 
ATOM      2  C   UNL     1      34.873 -20.394 -20.305  0.00  0.00    +0.011 C 
ATOM      3  C   UNL     1      34.255 -19.522 -21.244  0.00  0.00    +0.005 C 
ATOM      4  C   UNL     1      33.856 -21.150 -19.718  0.00  0.00    +0.048 C 
ATOM      5  C   UNL     1      32.901 -19.761 -21.211  0.00  0.00    +0.058 C 
ATOM      6  C   UNL     1      36.204 -20.613 -19.896  0.00  0.00    +0.001 C 
ATOM      7  C   UNL     1      34.104 -22.119 -18.739  0.00  0.00    +0.015 C 
ATOM      8  C   UNL     1      36.466 -21.579 -18.917  0.00  0.00    +0.000 C 
ATOM      9  C   UNL     1      35.432 -22.320 -18.349  0.00  0.00    +0.001 C 
ATOM     10  H   UNL     1      31.784 -21.109 -20.062  0.00  0.00    +0.152 HD
ENDROOT
BRANCH   3  11
ATOM     11  C   UNL     1      34.936 -18.533 -22.105  0.00  0.00    +0.137 C 
BRANCH  11  13
ATOM     12  O   UNL     1      35.241 -16.762 -20.462  0.00  0.00    -0.250 OA
ATOM     13  C   UNL     1      34.874 -17.107 -21.577  0.00  0.00    +0.318 C 
BRANCH  13  14
ATOM     14  O   UNL     1      34.359 -16.239 -22.488  0.00  0.00    -0.480 OA
ATOM     15  H   UNL     1      34.365 -16.459 -23.398  0.00  0.00    +0.295 HD
ENDBRANCH  13  14
ENDBRANCH  11  13
ENDBRANCH   3  11
TORSDOF 3
ENDMDL
MODEL 4
REMARK VINA RESULT:      -7.1      2.865      5.103
REMARK  Name = 802
REMARK  3 active torsions:
REMARK  status: ('A' for Active; 'I' for Inactive)
REMARK    1  A    between atoms: C_3  and  C_11
REMARK    2  A    between atoms: C_11  and  C_13
REMARK    3  A    between atoms: C_13  and  O_14
REMARK                            x       y       z     vdW  Elec       q    Type
REMARK                         _______ _______ _______ _____ _____    ______ ____
ROOT
ATOM      1  N   UNL     1      35.264 -17.371 -24.112  0.00  0.00    -0.312 N 
ATOM      2  C   UNL     1      35.004 -16.972 -21.932  0.00  0.00    +0.011 C 
ATOM      3  C   UNL     1      35.406 -18.325 -22.113  0.00  0.00    +0.005 C 
ATOM      4  C   UNL     1      34.923 -16.396 -23.201  0.00  0.00    +0.048 C 
ATOM      5  C   UNL     1      35.558 -18.540 -23.463  0.00  0.00    +0.058 C 
ATOM      6  C   UNL     1      34.701 -16.180 -20.806  0.00  0.00    +0.001 C 
ATOM      7  C   UNL     1      34.551 -15.061 -23.403  0.00  0.00    +0.015 C 
ATOM      8  C   UNL     1      34.328 -14.843 -20.994  0.00  0.00    +0.000 C 
ATOM      9  C   UNL     1      34.255 -14.295 -22.273  0.00  0.00    +0.001 C 
ATOM     10  H   UNL     1      35.294 -17.245 -25.087  0.00  0.00    +0.152 HD
ENDROOT
BRANCH   3  11
ATOM     11  C   UNL     1      35.625 -19.326 -21.049  0.00  0.00    +0.137 C 
BRANCH  11  13
ATOM     12  O   UNL     1      33.248 -19.856 -21.081  0.00  0.00    -0.250 OA
ATOM     13  C   UNL     1      34.368 -20.081 -20.642  0.00  0.00    +0.318 C 
BRANCH  13  14
ATOM     14  O   UNL     1      34.621 -21.049 -19.721  0.00  0.00    -0.480 OA
ATOM     15  H   UNL     1      35.504 -21.288 -19.524  0.00  0.00    +0.295 HD
ENDBRANCH  13  14
ENDBRANCH  11  13
ENDBRANCH   3  11
TORSDOF 3
ENDMDL
MODEL 5
REMARK VINA RESULT:      -7.0      3.481      5.095
REMARK  Name = 802
REMARK  3 active torsions:
REMARK  status: ('A' for Active; 'I' for Inactive)
REMARK    1  A    between atoms: C_3  and  C_11
REMARK    2  A    between atoms: C_11  and  C_13
REMARK    3  A    between atoms: C_13  and  O_14
REMARK                            x       y       z     vdW  Elec       q    Type
REMARK                         _______ _______ _______ _____ _____    ______ ____
ROOT
ATOM      1  N   UNL     1      36.851 -20.510 -19.745  0.00  0.00    -0.312 N 
ATOM      2  C   UNL     1      34.835 -20.107 -20.612  0.00  0.00    +0.011 C 
ATOM      3  C   UNL     1      34.726 -21.145 -19.646  0.00  0.00    +0.005 C 
ATOM      4  C   UNL     1      36.178 -19.726 -20.655  0.00  0.00    +0.048 C 
ATOM      5  C   UNL     1      35.981 -21.371 -19.130  0.00  0.00    +0.058 C 
ATOM      6  C   UNL     1      33.917 -19.452 -21.457  0.00  0.00    +0.001 C 
ATOM      7  C   UNL     1      36.651 -18.719 -21.504  0.00  0.00    +0.015 C 
ATOM      8  C   UNL     1      34.377 -18.442 -22.312  0.00  0.00    +0.000 C 
ATOM      9  C   UNL     1      35.723 -18.084 -22.334  0.00  0.00    +0.001 C 
ATOM     10  H   UNL     1      37.816 -20.459 -19.562  0.00  0.00    +0.152 HD
ENDROOT
BRANCH   3  11
ATOM     11  C   UNL     1      33.493 -21.859 -19.257  0.00  0.00    +0.137 C 
BRANCH  11  13
ATOM     12  O   UNL     1      33.779 -23.434 -17.422  0.00  0.00    -0.250 OA
ATOM     13  C   UNL     1      33.739 -23.221 -18.627  0.00  0.00    +0.318 C 
BRANCH  13  14
ATOM     14  O   UNL     1      33.913 -24.198 -19.556  0.00  0.00    -0.480 OA
ATOM     15  H   UNL     1      33.662 -24.047 -20.446  0.00  0.00    +0.295 HD
ENDBRANCH  13  14
ENDBRANCH  11  13
ENDBRANCH   3  11
TORSDOF 3
ENDMDL
MODEL 6
REMARK VINA RESULT:      -7.0      2.706      4.977
REMARK  Name = 802
REMARK  3 active torsions:
REMARK  status: ('A' for Active; 'I' for Inactive)
REMARK    1  A    between atoms: C_3  and  C_11
REMARK    2  A    between atoms: C_11  and  C_13
REMARK    3  A    between atoms: C_13  and  O_14
REMARK                            x       y       z     vdW  Elec       q    Type
REMARK                         _______ _______ _______ _____ _____    ______ ____
ROOT
ATOM      1  N   UNL     1      35.000 -16.287 -21.751  0.00  0.00    -0.312 N 
ATOM      2  C   UNL     1      34.798 -18.236 -22.819  0.00  0.00    +0.011 C 
ATOM      3  C   UNL     1      34.968 -18.483 -21.429  0.00  0.00    +0.005 C 
ATOM      4  C   UNL     1      34.822 -16.851 -22.995  0.00  0.00    +0.048 C 
ATOM      5  C   UNL     1      35.090 -17.267 -20.798  0.00  0.00    +0.058 C 
ATOM      6  C   UNL     1      34.625 -19.060 -23.950  0.00  0.00    +0.001 C 
ATOM      7  C   UNL     1      34.681 -16.245 -24.249  0.00  0.00    +0.015 C 
ATOM      8  C   UNL     1      34.483 -18.468 -25.211  0.00  0.00    +0.000 C 
ATOM      9  C   UNL     1      34.512 -17.082 -25.356  0.00  0.00    +0.001 C 
ATOM     10  H   UNL     1      35.055 -15.322 -21.573  0.00  0.00    +0.152 HD
ENDROOT
BRANCH   3  11
ATOM     11  C   UNL     1      35.007 -19.804 -20.769  0.00  0.00    +0.137 C 
BRANCH  11  13
ATOM     12  O   UNL     1      32.575 -19.794 -20.636  0.00  0.00    -0.250 OA
ATOM     13  C   UNL     1      33.640 -20.333 -20.362  0.00  0.00    +0.318 C 
BRANCH  13  14
ATOM     14  O   UNL     1      33.722 -21.487 -19.647  0.00  0.00    -0.480 OA
ATOM     15  H   UNL     1      34.219 -22.208 -19.979  0.00  0.00    +0.295 HD
ENDBRANCH  13  14
ENDBRANCH  11  13
ENDBRANCH   3  11
TORSDOF 3
ENDMDL
MODEL 7
REMARK VINA RESULT:      -7.0      3.287      4.509
REMARK  Name = 802
REMARK  3 active torsions:
REMARK  status: ('A' for Active; 'I' for Inactive)
REMARK    1  A    between atoms: C_3  and  C_11
REMARK    2  A    between atoms: C_11  and  C_13
REMARK    3  A    between atoms: C_13  and  O_14
REMARK                            x       y       z     vdW  Elec       q    Type
REMARK                         _______ _______ _______ _____ _____    ______ ____
ROOT
ATOM      1  N   UNL     1      34.832 -16.969 -20.997  0.00  0.00    -0.312 N 
ATOM      2  C   UNL     1      34.583 -16.520 -23.169  0.00  0.00    +0.011 C 
ATOM      3  C   UNL     1      34.482 -15.309 -22.429  0.00  0.00    +0.005 C 
ATOM      4  C   UNL     1      34.802 -17.546 -22.247  0.00  0.00    +0.048 C 
ATOM      5  C   UNL     1      34.639 -15.617 -21.098  0.00  0.00    +0.058 C 
ATOM      6  C   UNL     1      34.509 -16.844 -24.539  0.00  0.00    +0.001 C 
ATOM      7  C   UNL     1      34.952 -18.885 -22.627  0.00  0.00    +0.015 C 
ATOM      8  C   UNL     1      34.657 -18.179 -24.933  0.00  0.00    +0.000 C 
ATOM      9  C   UNL     1      34.874 -19.182 -23.991  0.00  0.00    +0.001 C 
ATOM     10  H   UNL     1      34.971 -17.456 -20.155  0.00  0.00    +0.152 HD
ENDROOT
BRANCH   3  11
ATOM     11  C   UNL     1      34.252 -13.959 -22.982  0.00  0.00    +0.137 C 
BRANCH  11  13
ATOM     12  O   UNL     1      32.613 -13.937 -24.783  0.00  0.00    -0.250 OA
ATOM     13  C   UNL     1      32.874 -13.769 -23.598  0.00  0.00    +0.318 C 
BRANCH  13  14
ATOM     14  O   UNL     1      31.944 -13.387 -22.683  0.00  0.00    -0.480 OA
ATOM     15  H   UNL     1      32.216 -13.075 -21.843  0.00  0.00    +0.295 HD
ENDBRANCH  13  14
ENDBRANCH  11  13
ENDBRANCH   3  11
TORSDOF 3
ENDMDL
MODEL 8
REMARK VINA RESULT:      -7.0      8.008      9.293
REMARK  Name = 802
REMARK  3 active torsions:
REMARK  status: ('A' for Active; 'I' for Inactive)
REMARK    1  A    between atoms: C_3  and  C_11
REMARK    2  A    between atoms: C_11  and  C_13
REMARK    3  A    between atoms: C_13  and  O_14
REMARK                            x       y       z     vdW  Elec       q    Type
REMARK                         _______ _______ _______ _____ _____    ______ ____
ROOT
ATOM      1  N   UNL     1      30.013 -25.418 -13.955  0.00  0.00    -0.312 N 
ATOM      2  C   UNL     1      30.764 -24.012 -15.516  0.00  0.00    +0.011 C 
ATOM      3  C   UNL     1      29.373 -24.231 -15.718  0.00  0.00    +0.005 C 
ATOM      4  C   UNL     1      31.141 -24.768 -14.404  0.00  0.00    +0.048 C 
ATOM      5  C   UNL     1      28.939 -25.099 -14.743  0.00  0.00    +0.058 C 
ATOM      6  C   UNL     1      31.743 -23.241 -16.175  0.00  0.00    +0.001 C 
ATOM      7  C   UNL     1      32.453 -24.792 -13.916  0.00  0.00    +0.015 C 
ATOM      8  C   UNL     1      33.059 -23.256 -15.697  0.00  0.00    +0.000 C 
ATOM      9  C   UNL     1      33.406 -24.020 -14.586  0.00  0.00    +0.001 C 
ATOM     10  H   UNL     1      29.983 -26.023 -13.180  0.00  0.00    +0.152 HD
ENDROOT
BRANCH   3  11
ATOM     11  C   UNL     1      28.534 -23.637 -16.779  0.00  0.00    +0.137 C 
BRANCH  11  13
ATOM     12  O   UNL     1      27.961 -21.804 -15.281  0.00  0.00    -0.250 OA
ATOM     13  C   UNL     1      27.903 -22.306 -16.395  0.00  0.00    +0.318 C 
BRANCH  13  14
ATOM     14  O   UNL     1      27.254 -21.721 -17.437  0.00  0.00    -0.480 OA
ATOM     15  H   UNL     1      26.906 -22.250 -18.128  0.00  0.00    +0.295 HD
ENDBRANCH  13  14
ENDBRANCH  11  13
ENDBRANCH   3  11
TORSDOF 3
ENDMDL
MODEL 9
REMARK VINA RESULT:      -6.9      4.659      5.751
REMARK  Name = 802
REMARK  3 active torsions:
REMARK  status: ('A' for Active; 'I' for Inactive)
REMARK    1  A    between atoms: C_3  and  C_11
REMARK    2  A    between atoms: C_11  and  C_13
REMARK    3  A    between atoms: C_13  and  O_14
REMARK                            x       y       z     vdW  Elec       q    Type
REMARK                         _______ _______ _______ _____ _____    ______ ____
ROOT
ATOM      1  N   UNL     1      35.176 -16.660 -23.838  0.00  0.00    -0.312 N 
ATOM      2  C   UNL     1      33.588 -15.127 -23.512  0.00  0.00    +0.011 C 
ATOM      3  C   UNL     1      33.680 -15.412 -24.903  0.00  0.00    +0.005 C 
ATOM      4  C   UNL     1      34.536 -15.923 -22.867  0.00  0.00    +0.048 C 
ATOM      5  C   UNL     1      34.665 -16.358 -25.072  0.00  0.00    +0.058 C 
ATOM      6  C   UNL     1      32.784 -14.266 -22.738  0.00  0.00    +0.001 C 
ATOM      7  C   UNL     1      34.724 -15.901 -21.479  0.00  0.00    +0.015 C 
ATOM      8  C   UNL     1      32.961 -14.234 -21.349  0.00  0.00    +0.000 C 
ATOM      9  C   UNL     1      33.917 -15.039 -20.732  0.00  0.00    +0.001 C 
ATOM     10  H   UNL     1      35.895 -17.310 -23.670  0.00  0.00    +0.152 HD
ENDROOT
BRANCH   3  11
ATOM     11  C   UNL     1      32.870 -14.809 -25.980  0.00  0.00    +0.137 C 
BRANCH  11  13
ATOM     12  O   UNL     1      33.525 -12.466 -25.872  0.00  0.00    -0.250 OA
ATOM     13  C   UNL     1      33.431 -13.501 -26.518  0.00  0.00    +0.318 C 
BRANCH  13  14
ATOM     14  O   UNL     1      33.826 -13.601 -27.815  0.00  0.00    -0.480 OA
ATOM     15  H   UNL     1      34.575 -13.126 -28.114  0.00  0.00    +0.295 HD
ENDBRANCH  13  14
ENDBRANCH  11  13
ENDBRANCH   3  11
TORSDOF 3
ENDMDL
