MODEL 1
REMARK VINA RESULT:      -6.7      0.000      0.000
REMARK  Name = 83242
REMARK  5 active torsions:
REMARK  status: ('A' for Active; 'I' for Inactive)
REMARK    1  A    between atoms: C_1  and  C_2
REMARK    2  A    between atoms: C_1  and  C_9
REMARK    3  A    between atoms: C_2  and  C_3
REMARK    4  A    between atoms: C_9  and  C_10
REMARK    5  A    between atoms: C_10  and  N_11
REMARK                            x       y       z     vdW  Elec       q    Type
REMARK                         _______ _______ _______ _____ _____    ______ ____
ROOT
ATOM      1  C   UNL     1      35.285 -18.654 -22.793  0.00  0.00    +0.002 C 
ENDROOT
BRANCH   1   2
ATOM      2  C   UNL     1      34.268 -18.644 -21.650  0.00  0.00    +0.026 C 
BRANCH   2   3
ATOM      3  C   UNL     1      34.416 -19.854 -20.762  0.00  0.00    -0.022 C 
ATOM      4  C   UNL     1      35.682 -20.348 -20.488  0.00  0.00    -0.004 C 
ATOM      5  C   UNL     1      33.282 -20.455 -20.234  0.00  0.00    -0.004 C 
ATOM      6  C   UNL     1      35.818 -21.467 -19.667  0.00  0.00    -0.000 C 
ATOM      7  C   UNL     1      33.418 -21.573 -19.412  0.00  0.00    -0.000 C 
ATOM      8  C   UNL     1      34.686 -22.080 -19.129  0.00  0.00    -0.000 C 
ENDBRANCH   2   3
ENDBRANCH   1   2
BRANCH   1   9
ATOM      9  C   UNL     1      34.618 -19.006 -24.125  0.00  0.00    -0.024 C 
BRANCH   9  10
ATOM     10  C   UNL     1      34.559 -17.791 -25.050  0.00  0.00    -0.086 C 
BRANCH  10  11
ATOM     11  N   UNL     1      35.291 -16.673 -24.466  0.00  0.00    +0.380 N 
ATOM     12  H   UNL     1      34.733 -15.823 -24.543  0.00  0.00    -0.089 HD
ATOM     13  H   UNL     1      36.173 -16.548 -24.962  0.00  0.00    -0.089 HD
ATOM     14  H   UNL     1      35.480 -16.869 -23.482  0.00  0.00    -0.089 HD
ENDBRANCH  10  11
ENDBRANCH   9  10
ENDBRANCH   1   9
TORSDOF 5
ENDMDL
MODEL 2
REMARK VINA RESULT:      -6.7      0.071      1.457
REMARK  Name = 83242
REMARK  5 active torsions:
REMARK  status: ('A' for Active; 'I' for Inactive)
REMARK    1  A    between atoms: C_1  and  C_2
REMARK    2  A    between atoms: C_1  and  C_9
REMARK    3  A    between atoms: C_2  and  C_3
REMARK    4  A    between atoms: C_9  and  C_10
REMARK    5  A    between atoms: C_10  and  N_11
REMARK                            x       y       z     vdW  Elec       q    Type
REMARK                         _______ _______ _______ _____ _____    ______ ____
ROOT
ATOM      1  C   UNL     1      35.265 -18.640 -22.825  0.00  0.00    +0.002 C 
ENDROOT
BRANCH   1   2
ATOM      2  C   UNL     1      34.246 -18.635 -21.683  0.00  0.00    +0.026 C 
BRANCH   2   3
ATOM      3  C   UNL     1      34.413 -19.832 -20.783  0.00  0.00    -0.022 C 
ATOM      4  C   UNL     1      33.289 -20.492 -20.310  0.00  0.00    -0.004 C 
ATOM      5  C   UNL     1      35.690 -20.255 -20.441  0.00  0.00    -0.004 C 
ATOM      6  C   UNL     1      33.444 -21.599 -19.476  0.00  0.00    -0.000 C 
ATOM      7  C   UNL     1      35.846 -21.363 -19.609  0.00  0.00    -0.000 C 
ATOM      8  C   UNL     1      34.722 -22.035 -19.125  0.00  0.00    -0.000 C 
ENDBRANCH   2   3
ENDBRANCH   1   2
BRANCH   1   9
ATOM      9  C   UNL     1      34.602 -19.001 -24.157  0.00  0.00    -0.024 C 
BRANCH   9  10
ATOM     10  C   UNL     1      34.567 -17.798 -25.100  0.00  0.00    -0.086 C 
BRANCH  10  11
ATOM     11  N   UNL     1      35.319 -16.686 -24.530  0.00  0.00    +0.380 N 
ATOM     12  H   UNL     1      34.777 -15.827 -24.621  0.00  0.00    -0.089 HD
ATOM     13  H   UNL     1      36.205 -16.584 -25.026  0.00  0.00    -0.089 HD
ATOM     14  H   UNL     1      35.502 -16.871 -23.543  0.00  0.00    -0.089 HD
ENDBRANCH  10  11
ENDBRANCH   9  10
ENDBRANCH   1   9
TORSDOF 5
ENDMDL
MODEL 3
REMARK VINA RESULT:      -6.3      2.404      5.339
REMARK  Name = 83242
REMARK  5 active torsions:
REMARK  status: ('A' for Active; 'I' for Inactive)
REMARK    1  A    between atoms: C_1  and  C_2
REMARK    2  A    between atoms: C_1  and  C_9
REMARK    3  A    between atoms: C_2  and  C_3
REMARK    4  A    between atoms: C_9  and  C_10
REMARK    5  A    between atoms: C_10  and  N_11
REMARK                            x       y       z     vdW  Elec       q    Type
REMARK                         _______ _______ _______ _____ _____    ______ ____
ROOT
ATOM      1  C   UNL     1      34.507 -20.000 -20.756  0.00  0.00    +0.002 C 
ENDROOT
BRANCH   1   2
ATOM      2  C   UNL     1      35.398 -18.812 -21.128  0.00  0.00    +0.026 C 
BRANCH   2   3
ATOM      3  C   UNL     1      35.106 -18.312 -22.519  0.00  0.00    -0.022 C 
ATOM      4  C   UNL     1      35.214 -16.957 -22.793  0.00  0.00    -0.004 C 
ATOM      5  C   UNL     1      34.735 -19.215 -23.505  0.00  0.00    -0.004 C 
ATOM      6  C   UNL     1      34.944 -16.494 -24.081  0.00  0.00    -0.000 C 
ATOM      7  C   UNL     1      34.466 -18.753 -24.793  0.00  0.00    -0.000 C 
ATOM      8  C   UNL     1      34.570 -17.392 -25.081  0.00  0.00    -0.000 C 
ENDBRANCH   2   3
ENDBRANCH   1   2
BRANCH   1   9
ATOM      9  C   UNL     1      35.282 -21.042 -19.945  0.00  0.00    -0.024 C 
BRANCH   9  10
ATOM     10  C   UNL     1      34.335 -22.046 -19.289  0.00  0.00    -0.086 C 
BRANCH  10  11
ATOM     11  N   UNL     1      32.964 -21.807 -19.723  0.00  0.00    +0.380 N 
ATOM     12  H   UNL     1      32.488 -21.221 -19.037  0.00  0.00    -0.089 HD
ATOM     13  H   UNL     1      32.473 -22.698 -19.808  0.00  0.00    -0.089 HD
ATOM     14  H   UNL     1      32.971 -21.336 -20.627  0.00  0.00    -0.089 HD
ENDBRANCH  10  11
ENDBRANCH   9  10
ENDBRANCH   1   9
TORSDOF 5
ENDMDL
MODEL 4
REMARK VINA RESULT:      -6.2      3.274      5.506
REMARK  Name = 83242
REMARK  5 active torsions:
REMARK  status: ('A' for Active; 'I' for Inactive)
REMARK    1  A    between atoms: C_1  and  C_2
REMARK    2  A    between atoms: C_1  and  C_9
REMARK    3  A    between atoms: C_2  and  C_3
REMARK    4  A    between atoms: C_9  and  C_10
REMARK    5  A    between atoms: C_10  and  N_11
REMARK                            x       y       z     vdW  Elec       q    Type
REMARK                         _______ _______ _______ _____ _____    ______ ____
ROOT
ATOM      1  C   UNL     1      34.351 -19.513 -21.777  0.00  0.00    +0.002 C 
ENDROOT
BRANCH   1   2
ATOM      2  C   UNL     1      35.363 -18.499 -21.241  0.00  0.00    +0.026 C 
BRANCH   2   3
ATOM      3  C   UNL     1      35.011 -17.092 -21.651  0.00  0.00    -0.022 C 
ATOM      4  C   UNL     1      35.035 -16.745 -22.993  0.00  0.00    -0.004 C 
ATOM      5  C   UNL     1      34.668 -16.164 -20.677  0.00  0.00    -0.004 C 
ATOM      6  C   UNL     1      34.709 -15.443 -23.372  0.00  0.00    -0.000 C 
ATOM      7  C   UNL     1      34.342 -14.862 -21.055  0.00  0.00    -0.000 C 
ATOM      8  C   UNL     1      34.362 -14.501 -22.403  0.00  0.00    -0.000 C 
ENDBRANCH   2   3
ENDBRANCH   1   2
BRANCH   1   9
ATOM      9  C   UNL     1      33.356 -19.931 -20.690  0.00  0.00    -0.024 C 
BRANCH   9  10
ATOM     10  C   UNL     1      33.925 -21.055 -19.825  0.00  0.00    -0.086 C 
BRANCH  10  11
ATOM     11  N   UNL     1      32.846 -21.885 -19.302  0.00  0.00    +0.380 N 
ATOM     12  H   UNL     1      33.057 -22.868 -19.479  0.00  0.00    -0.089 HD
ATOM     13  H   UNL     1      31.971 -21.636 -19.762  0.00  0.00    -0.089 HD
ATOM     14  H   UNL     1      32.757 -21.732 -18.297  0.00  0.00    -0.089 HD
ENDBRANCH  10  11
ENDBRANCH   9  10
ENDBRANCH   1   9
TORSDOF 5
ENDMDL
MODEL 5
REMARK VINA RESULT:      -6.2      1.838      2.138
REMARK  Name = 83242
REMARK  5 active torsions:
REMARK  status: ('A' for Active; 'I' for Inactive)
REMARK    1  A    between atoms: C_1  and  C_2
REMARK    2  A    between atoms: C_1  and  C_9
REMARK    3  A    between atoms: C_2  and  C_3
REMARK    4  A    between atoms: C_9  and  C_10
REMARK    5  A    between atoms: C_10  and  N_11
REMARK                            x       y       z     vdW  Elec       q    Type
REMARK                         _______ _______ _______ _____ _____    ______ ____
ROOT
ATOM      1  C   UNL     1      34.926 -16.896 -20.989  0.00  0.00    +0.002 C 
ENDROOT
BRANCH   1   2
ATOM      2  C   UNL     1      34.661 -18.130 -21.855  0.00  0.00    +0.026 C 
BRANCH   2   3
ATOM      3  C   UNL     1      34.480 -19.369 -21.016  0.00  0.00    -0.022 C 
ATOM      4  C   UNL     1      35.595 -20.089 -20.613  0.00  0.00    -0.004 C 
ATOM      5  C   UNL     1      33.201 -19.771 -20.661  0.00  0.00    -0.004 C 
ATOM      6  C   UNL     1      35.427 -21.236 -19.837  0.00  0.00    -0.000 C 
ATOM      7  C   UNL     1      33.032 -20.917 -19.885  0.00  0.00    -0.000 C 
ATOM      8  C   UNL     1      34.146 -21.650 -19.473  0.00  0.00    -0.000 C 
ENDBRANCH   2   3
ENDBRANCH   1   2
BRANCH   1   9
ATOM      9  C   UNL     1      33.978 -15.750 -21.353  0.00  0.00    -0.024 C 
BRANCH   9  10
ATOM     10  C   UNL     1      34.147 -15.338 -22.815  0.00  0.00    -0.086 C 
BRANCH  10  11
ATOM     11  N   UNL     1      34.430 -13.910 -22.909  0.00  0.00    +0.380 N 
ATOM     12  H   UNL     1      35.321 -13.771 -23.385  0.00  0.00    -0.089 HD
ATOM     13  H   UNL     1      34.479 -13.510 -21.972  0.00  0.00    -0.089 HD
ATOM     14  H   UNL     1      33.687 -13.451 -23.436  0.00  0.00    -0.089 HD
ENDBRANCH  10  11
ENDBRANCH   9  10
ENDBRANCH   1   9
TORSDOF 5
ENDMDL
MODEL 6
REMARK VINA RESULT:      -6.0      3.294      4.804
REMARK  Name = 83242
REMARK  5 active torsions:
REMARK  status: ('A' for Active; 'I' for Inactive)
REMARK    1  A    between atoms: C_1  and  C_2
REMARK    2  A    between atoms: C_1  and  C_9
REMARK    3  A    between atoms: C_2  and  C_3
REMARK    4  A    between atoms: C_9  and  C_10
REMARK    5  A    between atoms: C_10  and  N_11
REMARK                            x       y       z     vdW  Elec       q    Type
REMARK                         _______ _______ _______ _____ _____    ______ ____
ROOT
ATOM      1  C   UNL     1      33.028 -15.484 -20.588  0.00  0.00    +0.002 C 
ENDROOT
BRANCH   1   2
ATOM      2  C   UNL     1      34.498 -15.842 -20.820  0.00  0.00    +0.026 C 
BRANCH   2   3
ATOM      3  C   UNL     1      34.646 -16.978 -21.799  0.00  0.00    -0.022 C 
ATOM      4  C   UNL     1      34.511 -18.284 -21.353  0.00  0.00    -0.004 C 
ATOM      5  C   UNL     1      34.914 -16.701 -23.132  0.00  0.00    -0.004 C 
ATOM      6  C   UNL     1      34.648 -19.336 -22.259  0.00  0.00    -0.000 C 
ATOM      7  C   UNL     1      35.050 -17.751 -24.038  0.00  0.00    -0.000 C 
ATOM      8  C   UNL     1      34.917 -19.070 -23.601  0.00  0.00    -0.000 C 
ENDBRANCH   2   3
ENDBRANCH   1   2
BRANCH   1   9
ATOM      9  C   UNL     1      32.779 -13.991 -20.816  0.00  0.00    -0.024 C 
BRANCH   9  10
ATOM     10  C   UNL     1      32.399 -13.711 -22.270  0.00  0.00    -0.086 C 
BRANCH  10  11
ATOM     11  N   UNL     1      31.640 -12.469 -22.365  0.00  0.00    +0.380 N 
ATOM     12  H   UNL     1      30.831 -12.516 -21.745  0.00  0.00    -0.089 HD
ATOM     13  H   UNL     1      31.325 -12.335 -23.326  0.00  0.00    -0.089 HD
ATOM     14  H   UNL     1      32.234 -11.687 -22.090  0.00  0.00    -0.089 HD
ENDBRANCH  10  11
ENDBRANCH   9  10
ENDBRANCH   1   9
TORSDOF 5
ENDMDL
MODEL 7
REMARK VINA RESULT:      -5.9      2.610      5.632
REMARK  Name = 83242
REMARK  5 active torsions:
REMARK  status: ('A' for Active; 'I' for Inactive)
REMARK    1  A    between atoms: C_1  and  C_2
REMARK    2  A    between atoms: C_1  and  C_9
REMARK    3  A    between atoms: C_2  and  C_3
REMARK    4  A    between atoms: C_9  and  C_10
REMARK    5  A    between atoms: C_10  and  N_11
REMARK                            x       y       z     vdW  Elec       q    Type
REMARK                         _______ _______ _______ _____ _____    ______ ____
ROOT
ATOM      1  C   UNL     1      35.703 -18.558 -21.475  0.00  0.00    +0.002 C 
ENDROOT
BRANCH   1   2
ATOM      2  C   UNL     1      35.717 -18.531 -23.005  0.00  0.00    +0.026 C 
BRANCH   2   3
ATOM      3  C   UNL     1      35.015 -17.311 -23.546  0.00  0.00    -0.022 C 
ATOM      4  C   UNL     1      34.815 -16.216 -22.719  0.00  0.00    -0.004 C 
ATOM      5  C   UNL     1      34.580 -17.303 -24.864  0.00  0.00    -0.004 C 
ATOM      6  C   UNL     1      34.166 -15.088 -23.220  0.00  0.00    -0.000 C 
ATOM      7  C   UNL     1      33.932 -16.175 -25.365  0.00  0.00    -0.000 C 
ATOM      8  C   UNL     1      33.725 -15.067 -24.543  0.00  0.00    -0.000 C 
ENDBRANCH   2   3
ENDBRANCH   1   2
BRANCH   1   9
ATOM      9  C   UNL     1      34.957 -19.787 -20.949  0.00  0.00    -0.024 C 
BRANCH   9  10
ATOM     10  C   UNL     1      33.447 -19.552 -20.937  0.00  0.00    -0.086 C 
BRANCH  10  11
ATOM     11  N   UNL     1      32.781 -20.584 -20.151  0.00  0.00    +0.380 N 
ATOM     12  H   UNL     1      33.054 -21.504 -20.496  0.00  0.00    -0.089 HD
ATOM     13  H   UNL     1      31.770 -20.475 -20.234  0.00  0.00    -0.089 HD
ATOM     14  H   UNL     1      33.053 -20.493 -19.172  0.00  0.00    -0.089 HD
ENDBRANCH  10  11
ENDBRANCH   9  10
ENDBRANCH   1   9
TORSDOF 5
ENDMDL
MODEL 8
REMARK VINA RESULT:      -5.9      3.251      5.117
REMARK  Name = 83242
REMARK  5 active torsions:
REMARK  status: ('A' for Active; 'I' for Inactive)
REMARK    1  A    between atoms: C_1  and  C_2
REMARK    2  A    between atoms: C_1  and  C_9
REMARK    3  A    between atoms: C_2  and  C_3
REMARK    4  A    between atoms: C_9  and  C_10
REMARK    5  A    between atoms: C_10  and  N_11
REMARK                            x       y       z     vdW  Elec       q    Type
REMARK                         _______ _______ _______ _____ _____    ______ ____
ROOT
ATOM      1  C   UNL     1      34.546 -15.321 -20.854  0.00  0.00    +0.002 C 
ENDROOT
BRANCH   1   2
ATOM      2  C   UNL     1      34.906 -16.799 -21.020  0.00  0.00    +0.026 C 
BRANCH   2   3
ATOM      3  C   UNL     1      34.812 -17.236 -22.459  0.00  0.00    -0.022 C 
ATOM      4  C   UNL     1      34.815 -16.281 -23.464  0.00  0.00    -0.004 C 
ATOM      5  C   UNL     1      34.725 -18.589 -22.756  0.00  0.00    -0.004 C 
ATOM      6  C   UNL     1      34.727 -16.686 -24.796  0.00  0.00    -0.000 C 
ATOM      7  C   UNL     1      34.638 -18.994 -24.088  0.00  0.00    -0.000 C 
ATOM      8  C   UNL     1      34.639 -18.043 -25.108  0.00  0.00    -0.000 C 
ENDBRANCH   2   3
ENDBRANCH   1   2
BRANCH   1   9
ATOM      9  C   UNL     1      33.051 -15.143 -20.574  0.00  0.00    -0.024 C 
BRANCH   9  10
ATOM     10  C   UNL     1      32.568 -13.761 -21.012  0.00  0.00    -0.086 C 
BRANCH  10  11
ATOM     11  N   UNL     1      32.317 -13.744 -22.449  0.00  0.00    +0.380 N 
ATOM     12  H   UNL     1      32.722 -14.577 -22.875  0.00  0.00    -0.089 HD
ATOM     13  H   UNL     1      32.741 -12.911 -22.858  0.00  0.00    -0.089 HD
ATOM     14  H   UNL     1      31.311 -13.730 -22.617  0.00  0.00    -0.089 HD
ENDBRANCH  10  11
ENDBRANCH   9  10
ENDBRANCH   1   9
TORSDOF 5
ENDMDL
MODEL 9
REMARK VINA RESULT:      -5.8      7.037      8.497
REMARK  Name = 83242
REMARK  5 active torsions:
REMARK  status: ('A' for Active; 'I' for Inactive)
REMARK    1  A    between atoms: C_1  and  C_2
REMARK    2  A    between atoms: C_1  and  C_9
REMARK    3  A    between atoms: C_2  and  C_3
REMARK    4  A    between atoms: C_9  and  C_10
REMARK    5  A    between atoms: C_10  and  N_11
REMARK                            x       y       z     vdW  Elec       q    Type
REMARK                         _______ _______ _______ _____ _____    ______ ____
ROOT
ATOM      1  C   UNL     1      31.459 -11.501 -19.604  0.00  0.00    +0.002 C 
ENDROOT
BRANCH   1   2
ATOM      2  C   UNL     1      31.483 -11.631 -21.128  0.00  0.00    +0.026 C 
BRANCH   2   3
ATOM      3  C   UNL     1      32.164 -12.902 -21.568  0.00  0.00    -0.022 C 
ATOM      4  C   UNL     1      32.427 -13.105 -22.914  0.00  0.00    -0.004 C 
ATOM      5  C   UNL     1      32.518 -13.850 -20.618  0.00  0.00    -0.004 C 
ATOM      6  C   UNL     1      33.057 -14.281 -23.321  0.00  0.00    -0.000 C 
ATOM      7  C   UNL     1      33.149 -15.025 -21.023  0.00  0.00    -0.000 C 
ATOM      8  C   UNL     1      33.418 -15.241 -22.375  0.00  0.00    -0.000 C 
ENDBRANCH   2   3
ENDBRANCH   1   2
BRANCH   1   9
ATOM      9  C   UNL     1      31.736 -10.060 -19.166  0.00  0.00    -0.024 C 
BRANCH   9  10
ATOM     10  C   UNL     1      32.060  -9.172 -20.366  0.00  0.00    -0.086 C 
BRANCH  10  11
ATOM     11  N   UNL     1      32.855  -8.024 -19.945  0.00  0.00    +0.380 N 
ATOM     12  H   UNL     1      32.814  -7.301 -20.664  0.00  0.00    -0.089 HD
ATOM     13  H   UNL     1      33.824  -8.312 -19.807  0.00  0.00    -0.089 HD
ATOM     14  H   UNL     1      32.482  -7.655 -19.070  0.00  0.00    -0.089 HD
ENDBRANCH  10  11
ENDBRANCH   9  10
ENDBRANCH   1   9
TORSDOF 5
ENDMDL
