MODEL 1
REMARK VINA RESULT:      -9.5      0.000      0.000
REMARK  Name = 10343728
REMARK  7 active torsions:
REMARK  status: ('A' for Active; 'I' for Inactive)
REMARK    1  A    between atoms: N_2  and  C_20
REMARK    2  A    between atoms: C_3  and  N_7
REMARK    3  A    between atoms: N_7  and  S_9
REMARK    4  A    between atoms: S_9  and  C_12
REMARK    5  A    between atoms: C_12  and  C_13
REMARK    6  A    between atoms: C_13  and  C_16
REMARK    7  A    between atoms: C_20  and  C_25
REMARK                            x       y       z     vdW  Elec       q    Type
REMARK                         _______ _______ _______ _____ _____    ______ ____
ROOT
ATOM      1  O   UNL     1      36.279 -22.536 -16.299  0.00  0.00    -0.273 OA
ATOM      2  N   UNL     1      34.095 -23.321 -15.920  0.00  0.00    -0.272 N 
ATOM      3  C   UNL     1      34.502 -22.204 -17.924  0.00  0.00    +0.153 C 
ATOM      4  C   UNL     1      33.223 -23.024 -18.048  0.00  0.00    +0.048 C 
ATOM      5  C   UNL     1      32.826 -23.283 -16.608  0.00  0.00    +0.096 C 
ATOM      6  C   UNL     1      35.115 -22.697 -16.637  0.00  0.00    +0.242 C 
ENDROOT
BRANCH   3   7
ATOM      7  N   UNL     1      35.417 -22.480 -19.037  0.00  0.00    -0.176 NA
ATOM      8  H   UNL     1      36.043 -23.226 -18.730  0.00  0.00    +0.149 HD
BRANCH   7   9
ATOM      9  S   UNL     1      36.401 -21.221 -19.641  0.00  0.00    +0.041 S 
ATOM     10  O   UNL     1      37.334 -21.752 -20.615  0.00  0.00    -0.157 OA
ATOM     11  O   UNL     1      36.869 -20.425 -18.522  0.00  0.00    -0.157 OA
BRANCH   9  12
ATOM     12  C   UNL     1      35.191 -20.253 -20.511  0.00  0.00    +0.174 C 
BRANCH  12  13
ATOM     13  C   UNL     1      35.743 -18.923 -21.012  0.00  0.00    +0.060 C 
BRANCH  13  16
ATOM     14 CL   UNL     1      34.040 -16.097 -25.484  0.00  0.00    -0.075 Cl
ATOM     15  S   UNL     1      35.003 -16.918 -22.797  0.00  0.00    -0.080 S 
ATOM     16  C   UNL     1      35.252 -18.564 -22.394  0.00  0.00    +0.010 C 
ATOM     17  C   UNL     1      34.955 -19.404 -23.444  0.00  0.00    +0.004 C 
ATOM     18  C   UNL     1      34.518 -18.688 -24.596  0.00  0.00    +0.018 C 
ATOM     19  C   UNL     1      34.497 -17.327 -24.381  0.00  0.00    +0.087 C 
ENDBRANCH  13  16
ENDBRANCH  12  13
ENDBRANCH   9  12
ENDBRANCH   7   9
ENDBRANCH   3   7
BRANCH   2  20
ATOM     20  C   UNL     1      34.213 -23.848 -14.578  0.00  0.00    +0.152 C 
ATOM     21  C   UNL     1      32.954 -24.548 -14.122  0.00  0.00    +0.031 C 
BRANCH  20  25
ATOM     22  O   UNL     1      38.643 -24.104 -12.168  0.00  0.00    -0.350 OA
ATOM     23  O   UNL     1      35.405 -25.636 -15.579  0.00  0.00    -0.273 OA
ATOM     24  N   UNL     1      36.331 -24.718 -13.657  0.00  0.00    -0.273 N 
ATOM     25  C   UNL     1      35.365 -24.818 -14.656  0.00  0.00    +0.244 C 
ATOM     26  C   UNL     1      36.251 -23.848 -12.480  0.00  0.00    +0.126 C 
ATOM     27  C   UNL     1      37.484 -25.617 -13.662  0.00  0.00    +0.126 C 
ATOM     28  C   UNL     1      37.583 -23.147 -12.250  0.00  0.00    +0.164 C 
ATOM     29  C   UNL     1      38.763 -24.840 -13.387  0.00  0.00    +0.164 C 
ENDBRANCH  20  25
ENDBRANCH   2  20
TORSDOF 7
ENDMDL
MODEL 2
REMARK VINA RESULT:      -9.4      1.403      1.875
REMARK  Name = 10343728
REMARK  7 active torsions:
REMARK  status: ('A' for Active; 'I' for Inactive)
REMARK    1  A    between atoms: N_2  and  C_20
REMARK    2  A    between atoms: C_3  and  N_7
REMARK    3  A    between atoms: N_7  and  S_9
REMARK    4  A    between atoms: S_9  and  C_12
REMARK    5  A    between atoms: C_12  and  C_13
REMARK    6  A    between atoms: C_13  and  C_16
REMARK    7  A    between atoms: C_20  and  C_25
REMARK                            x       y       z     vdW  Elec       q    Type
REMARK                         _______ _______ _______ _____ _____    ______ ____
ROOT
ATOM      1  O   UNL     1      34.437 -22.545 -17.949  0.00  0.00    -0.273 OA
ATOM      2  N   UNL     1      35.769 -22.788 -16.026  0.00  0.00    -0.272 N 
ATOM      3  C   UNL     1      36.752 -21.810 -17.899  0.00  0.00    +0.153 C 
ATOM      4  C   UNL     1      37.567 -21.467 -16.657  0.00  0.00    +0.048 C 
ATOM      5  C   UNL     1      37.135 -22.513 -15.648  0.00  0.00    +0.096 C 
ATOM      6  C   UNL     1      35.486 -22.406 -17.338  0.00  0.00    +0.242 C 
ENDROOT
BRANCH   3   7
ATOM      7  N   UNL     1      36.425 -20.603 -18.666  0.00  0.00    -0.176 NA
ATOM      8  H   UNL     1      35.727 -20.089 -18.128  0.00  0.00    +0.149 HD
BRANCH   7   9
ATOM      9  S   UNL     1      35.814 -20.762 -20.252  0.00  0.00    +0.041 S 
ATOM     10  O   UNL     1      34.382 -20.540 -20.251  0.00  0.00    -0.157 OA
ATOM     11  O   UNL     1      36.378 -21.961 -20.845  0.00  0.00    -0.157 OA
BRANCH   9  12
ATOM     12  C   UNL     1      36.584 -19.367 -21.040  0.00  0.00    +0.174 C 
BRANCH  12  13
ATOM     13  C   UNL     1      35.655 -18.164 -21.158  0.00  0.00    +0.060 C 
BRANCH  13  16
ATOM     14 CL   UNL     1      33.790 -15.753 -25.804  0.00  0.00    -0.075 Cl
ATOM     15  S   UNL     1      34.739 -16.340 -23.053  0.00  0.00    -0.080 S 
ATOM     16  C   UNL     1      35.179 -17.924 -22.570  0.00  0.00    +0.010 C 
ATOM     17  C   UNL     1      35.035 -18.834 -23.593  0.00  0.00    +0.004 C 
ATOM     18  C   UNL     1      34.556 -18.225 -24.789  0.00  0.00    +0.018 C 
ATOM     19  C   UNL     1      34.354 -16.871 -24.634  0.00  0.00    +0.087 C 
ENDBRANCH  13  16
ENDBRANCH  12  13
ENDBRANCH   9  12
ENDBRANCH   7   9
ENDBRANCH   3   7
BRANCH   2  20
ATOM     20  C   UNL     1      34.868 -23.500 -15.147  0.00  0.00    +0.152 C 
ATOM     21  C   UNL     1      33.570 -23.865 -15.829  0.00  0.00    +0.031 C 
BRANCH  20  25
ATOM     22  O   UNL     1      37.820 -24.594 -11.199  0.00  0.00    -0.350 OA
ATOM     23  O   UNL     1      35.766 -25.653 -15.572  0.00  0.00    -0.273 OA
ATOM     24  N   UNL     1      36.146 -24.768 -13.459  0.00  0.00    -0.273 N 
ATOM     25  C   UNL     1      35.630 -24.740 -14.753  0.00  0.00    +0.244 C 
ATOM     26  C   UNL     1      35.897 -23.762 -12.422  0.00  0.00    +0.126 C 
ATOM     27  C   UNL     1      36.903 -25.931 -12.998  0.00  0.00    +0.126 C 
ATOM     28  C   UNL     1      37.194 -23.411 -11.705  0.00  0.00    +0.164 C 
ATOM     29  C   UNL     1      38.159 -25.487 -12.262  0.00  0.00    +0.164 C 
ENDBRANCH  20  25
ENDBRANCH   2  20
TORSDOF 7
ENDMDL
MODEL 3
REMARK VINA RESULT:      -9.3      1.643      2.061
REMARK  Name = 10343728
REMARK  7 active torsions:
REMARK  status: ('A' for Active; 'I' for Inactive)
REMARK    1  A    between atoms: N_2  and  C_20
REMARK    2  A    between atoms: C_3  and  N_7
REMARK    3  A    between atoms: N_7  and  S_9
REMARK    4  A    between atoms: S_9  and  C_12
REMARK    5  A    between atoms: C_12  and  C_13
REMARK    6  A    between atoms: C_13  and  C_16
REMARK    7  A    between atoms: C_20  and  C_25
REMARK                            x       y       z     vdW  Elec       q    Type
REMARK                         _______ _______ _______ _____ _____    ______ ____
ROOT
ATOM      1  O   UNL     1      33.435 -22.949 -17.618  0.00  0.00    -0.273 OA
ATOM      2  N   UNL     1      35.210 -22.879 -16.077  0.00  0.00    -0.272 N 
ATOM      3  C   UNL     1      35.648 -22.172 -18.254  0.00  0.00    +0.153 C 
ATOM      4  C   UNL     1      36.723 -21.633 -17.317  0.00  0.00    +0.048 C 
ATOM      5  C   UNL     1      36.610 -22.526 -16.096  0.00  0.00    +0.096 C 
ATOM      6  C   UNL     1      34.593 -22.701 -17.315  0.00  0.00    +0.242 C 
ENDROOT
BRANCH   3   7
ATOM      7  N   UNL     1      35.076 -21.097 -19.074  0.00  0.00    -0.176 NA
ATOM      8  H   UNL     1      34.201 -21.452 -19.460  0.00  0.00    +0.149 HD
BRANCH   7   9
ATOM      9  S   UNL     1      35.981 -20.473 -20.381  0.00  0.00    +0.041 S 
ATOM     10  O   UNL     1      36.580 -21.562 -21.127  0.00  0.00    -0.157 OA
ATOM     11  O   UNL     1      36.791 -19.372 -19.896  0.00  0.00    -0.157 OA
BRANCH   9  12
ATOM     12  C   UNL     1      34.681 -19.779 -21.374  0.00  0.00    +0.174 C 
BRANCH  12  13
ATOM     13  C   UNL     1      35.202 -18.878 -22.488  0.00  0.00    +0.060 C 
BRANCH  13  16
ATOM     14 CL   UNL     1      34.072 -13.490 -23.255  0.00  0.00    -0.075 Cl
ATOM     15  S   UNL     1      34.671 -16.379 -23.597  0.00  0.00    -0.080 S 
ATOM     16  C   UNL     1      34.898 -17.417 -22.254  0.00  0.00    +0.010 C 
ATOM     17  C   UNL     1      34.769 -16.749 -21.057  0.00  0.00    +0.004 C 
ATOM     18  C   UNL     1      34.479 -15.366 -21.244  0.00  0.00    +0.018 C 
ATOM     19  C   UNL     1      34.398 -15.031 -22.578  0.00  0.00    +0.087 C 
ENDBRANCH  13  16
ENDBRANCH  12  13
ENDBRANCH   9  12
ENDBRANCH   7   9
ENDBRANCH   3   7
BRANCH   2  20
ATOM     20  C   UNL     1      34.594 -23.471 -14.910  0.00  0.00    +0.152 C 
ATOM     21  C   UNL     1      33.169 -23.902 -15.169  0.00  0.00    +0.031 C 
BRANCH  20  25
ATOM     22  O   UNL     1      37.941 -24.378 -11.240  0.00  0.00    -0.350 OA
ATOM     23  O   UNL     1      35.581 -25.565 -15.422  0.00  0.00    -0.273 OA
ATOM     24  N   UNL     1      36.090 -24.656 -13.346  0.00  0.00    -0.273 N 
ATOM     25  C   UNL     1      35.462 -24.661 -14.590  0.00  0.00    +0.244 C 
ATOM     26  C   UNL     1      35.871 -23.666 -12.286  0.00  0.00    +0.126 C 
ATOM     27  C   UNL     1      36.954 -25.770 -12.958  0.00  0.00    +0.126 C 
ATOM     28  C   UNL     1      37.202 -23.236 -11.683  0.00  0.00    +0.164 C 
ATOM     29  C   UNL     1      38.240 -25.250 -12.332  0.00  0.00    +0.164 C 
ENDBRANCH  20  25
ENDBRANCH   2  20
TORSDOF 7
ENDMDL
MODEL 4
REMARK VINA RESULT:      -9.3      4.573     10.153
REMARK  Name = 10343728
REMARK  7 active torsions:
REMARK  status: ('A' for Active; 'I' for Inactive)
REMARK    1  A    between atoms: N_2  and  C_20
REMARK    2  A    between atoms: C_3  and  N_7
REMARK    3  A    between atoms: N_7  and  S_9
REMARK    4  A    between atoms: S_9  and  C_12
REMARK    5  A    between atoms: C_12  and  C_13
REMARK    6  A    between atoms: C_13  and  C_16
REMARK    7  A    between atoms: C_20  and  C_25
REMARK                            x       y       z     vdW  Elec       q    Type
REMARK                         _______ _______ _______ _____ _____    ______ ____
ROOT
ATOM      1  O   UNL     1      36.546 -20.719 -20.162  0.00  0.00    -0.273 OA
ATOM      2  N   UNL     1      34.901 -19.377 -21.175  0.00  0.00    -0.272 N 
ATOM      3  C   UNL     1      34.183 -21.273 -20.026  0.00  0.00    +0.153 C 
ATOM      4  C   UNL     1      33.015 -20.309 -20.199  0.00  0.00    +0.048 C 
ATOM      5  C   UNL     1      33.466 -19.404 -21.330  0.00  0.00    +0.096 C 
ATOM      6  C   UNL     1      35.383 -20.452 -20.427  0.00  0.00    +0.242 C 
ENDROOT
BRANCH   3   7
ATOM      7  N   UNL     1      34.322 -21.687 -18.625  0.00  0.00    -0.176 NA
ATOM      8  H   UNL     1      35.307 -21.910 -18.477  0.00  0.00    +0.149 HD
BRANCH   7   9
ATOM      9  S   UNL     1      33.418 -23.020 -18.056  0.00  0.00    +0.041 S 
ATOM     10  O   UNL     1      33.727 -24.195 -18.845  0.00  0.00    -0.157 OA
ATOM     11  O   UNL     1      32.044 -22.595 -17.862  0.00  0.00    -0.157 OA
BRANCH   9  12
ATOM     12  C   UNL     1      34.139 -23.237 -16.445  0.00  0.00    +0.174 C 
BRANCH  12  13
ATOM     13  C   UNL     1      35.584 -22.758 -16.372  0.00  0.00    +0.060 C 
BRANCH  13  16
ATOM     14 CL   UNL     1      37.264 -26.370 -12.497  0.00  0.00    -0.075 Cl
ATOM     15  S   UNL     1      35.684 -24.672 -14.351  0.00  0.00    -0.080 S 
ATOM     16  C   UNL     1      36.437 -23.598 -15.452  0.00  0.00    +0.010 C 
ATOM     17  C   UNL     1      37.810 -23.638 -15.355  0.00  0.00    +0.004 C 
ATOM     18  C   UNL     1      38.251 -24.562 -14.363  0.00  0.00    +0.018 C 
ATOM     19  C   UNL     1      37.196 -25.193 -13.740  0.00  0.00    +0.087 C 
ENDBRANCH  13  16
ENDBRANCH  12  13
ENDBRANCH   9  12
ENDBRANCH   7   9
ENDBRANCH   3   7
BRANCH   2  20
ATOM     20  C   UNL     1      35.718 -18.392 -21.850  0.00  0.00    +0.152 C 
ATOM     21  C   UNL     1      37.194 -18.691 -21.730  0.00  0.00    +0.031 C 
BRANCH  20  25
ATOM     22  O   UNL     1      33.686 -14.983 -24.971  0.00  0.00    -0.350 OA
ATOM     23  O   UNL     1      35.187 -19.559 -23.844  0.00  0.00    -0.273 OA
ATOM     24  N   UNL     1      34.985 -17.246 -23.908  0.00  0.00    -0.273 N 
ATOM     25  C   UNL     1      35.275 -18.460 -23.289  0.00  0.00    +0.244 C 
ATOM     26  C   UNL     1      35.200 -15.919 -23.323  0.00  0.00    +0.126 C 
ATOM     27  C   UNL     1      34.543 -17.224 -25.302  0.00  0.00    +0.126 C 
ATOM     28  C   UNL     1      33.990 -15.029 -23.574  0.00  0.00    +0.164 C 
ATOM     29  C   UNL     1      33.358 -16.283 -25.467  0.00  0.00    +0.164 C 
ENDBRANCH  20  25
ENDBRANCH   2  20
TORSDOF 7
ENDMDL
MODEL 5
REMARK VINA RESULT:      -9.2      4.408      9.642
REMARK  Name = 10343728
REMARK  7 active torsions:
REMARK  status: ('A' for Active; 'I' for Inactive)
REMARK    1  A    between atoms: N_2  and  C_20
REMARK    2  A    between atoms: C_3  and  N_7
REMARK    3  A    between atoms: N_7  and  S_9
REMARK    4  A    between atoms: S_9  and  C_12
REMARK    5  A    between atoms: C_12  and  C_13
REMARK    6  A    between atoms: C_13  and  C_16
REMARK    7  A    between atoms: C_20  and  C_25
REMARK                            x       y       z     vdW  Elec       q    Type
REMARK                         _______ _______ _______ _____ _____    ______ ____
ROOT
ATOM      1  O   UNL     1      35.859 -20.782 -19.205  0.00  0.00    -0.273 OA
ATOM      2  N   UNL     1      34.892 -19.378 -20.825  0.00  0.00    -0.272 N 
ATOM      3  C   UNL     1      33.617 -21.171 -20.058  0.00  0.00    +0.153 C 
ATOM      4  C   UNL     1      32.705 -20.140 -20.712  0.00  0.00    +0.048 C 
ATOM      5  C   UNL     1      33.652 -19.316 -21.563  0.00  0.00    +0.096 C 
ATOM      6  C   UNL     1      34.935 -20.449 -19.933  0.00  0.00    +0.242 C 
ENDROOT
BRANCH   3   7
ATOM      7  N   UNL     1      33.131 -21.535 -18.722  0.00  0.00    -0.176 NA
ATOM      8  H   UNL     1      33.535 -20.865 -18.067  0.00  0.00    +0.149 HD
BRANCH   7   9
ATOM      9  S   UNL     1      33.463 -23.094 -18.109  0.00  0.00    +0.041 S 
ATOM     10  O   UNL     1      33.925 -23.954 -19.180  0.00  0.00    -0.157 OA
ATOM     11  O   UNL     1      32.361 -23.498 -17.256  0.00  0.00    -0.157 OA
BRANCH   9  12
ATOM     12  C   UNL     1      34.849 -22.740 -17.054  0.00  0.00    +0.174 C 
BRANCH  12  13
ATOM     13  C   UNL     1      34.704 -23.343 -15.662  0.00  0.00    +0.060 C 
BRANCH  13  16
ATOM     14 CL   UNL     1      39.688 -25.423 -14.350  0.00  0.00    -0.075 Cl
ATOM     15  S   UNL     1      37.402 -23.661 -15.050  0.00  0.00    -0.080 S 
ATOM     16  C   UNL     1      35.829 -24.286 -15.308  0.00  0.00    +0.010 C 
ATOM     17  C   UNL     1      35.784 -25.653 -15.151  0.00  0.00    +0.004 C 
ATOM     18  C   UNL     1      37.058 -26.196 -14.814  0.00  0.00    +0.018 C 
ATOM     19  C   UNL     1      38.028 -25.221 -14.727  0.00  0.00    +0.087 C 
ENDBRANCH  13  16
ENDBRANCH  12  13
ENDBRANCH   9  12
ENDBRANCH   7   9
ENDBRANCH   3   7
BRANCH   2  20
ATOM     20  C   UNL     1      35.989 -18.478 -21.110  0.00  0.00    +0.152 C 
ATOM     21  C   UNL     1      37.278 -19.215 -21.390  0.00  0.00    +0.031 C 
BRANCH  20  25
ATOM     22  O   UNL     1      33.130 -14.357 -21.691  0.00  0.00    -0.350 OA
ATOM     23  O   UNL     1      35.697 -18.204 -23.446  0.00  0.00    -0.273 OA
ATOM     24  N   UNL     1      34.953 -16.467 -22.095  0.00  0.00    -0.273 N 
ATOM     25  C   UNL     1      35.538 -17.710 -22.327  0.00  0.00    +0.244 C 
ATOM     26  C   UNL     1      34.864 -15.797 -20.794  0.00  0.00    +0.126 C 
ATOM     27  C   UNL     1      34.484 -15.659 -23.220  0.00  0.00    +0.126 C 
ATOM     28  C   UNL     1      33.472 -15.212 -20.597  0.00  0.00    +0.164 C 
ATOM     29  C   UNL     1      33.106 -15.085 -22.921  0.00  0.00    +0.164 C 
ENDBRANCH  20  25
ENDBRANCH   2  20
TORSDOF 7
ENDMDL
MODEL 6
REMARK VINA RESULT:      -9.1      2.909      4.954
REMARK  Name = 10343728
REMARK  7 active torsions:
REMARK  status: ('A' for Active; 'I' for Inactive)
REMARK    1  A    between atoms: N_2  and  C_20
REMARK    2  A    between atoms: C_3  and  N_7
REMARK    3  A    between atoms: N_7  and  S_9
REMARK    4  A    between atoms: S_9  and  C_12
REMARK    5  A    between atoms: C_12  and  C_13
REMARK    6  A    between atoms: C_13  and  C_16
REMARK    7  A    between atoms: C_20  and  C_25
REMARK                            x       y       z     vdW  Elec       q    Type
REMARK                         _______ _______ _______ _____ _____    ______ ____
ROOT
ATOM      1  O   UNL     1      31.879 -23.182 -17.757  0.00  0.00    -0.273 OA
ATOM      2  N   UNL     1      33.102 -23.728 -15.823  0.00  0.00    -0.272 N 
ATOM      3  C   UNL     1      34.297 -22.957 -17.668  0.00  0.00    +0.153 C 
ATOM      4  C   UNL     1      35.149 -22.811 -16.412  0.00  0.00    +0.048 C 
ATOM      5  C   UNL     1      34.490 -23.756 -15.425  0.00  0.00    +0.096 C 
ATOM      6  C   UNL     1      32.925 -23.277 -17.131  0.00  0.00    +0.242 C 
ENDROOT
BRANCH   3   7
ATOM      7  N   UNL     1      34.245 -21.697 -18.419  0.00  0.00    -0.176 NA
ATOM      8  H   UNL     1      33.362 -21.691 -18.929  0.00  0.00    +0.149 HD
BRANCH   7   9
ATOM      9  S   UNL     1      35.476 -21.349 -19.551  0.00  0.00    +0.041 S 
ATOM     10  O   UNL     1      35.778 -22.534 -20.328  0.00  0.00    -0.157 OA
ATOM     11  O   UNL     1      36.531 -20.617 -18.874  0.00  0.00    -0.157 OA
BRANCH   9  12
ATOM     12  C   UNL     1      34.628 -20.200 -20.610  0.00  0.00    +0.174 C 
BRANCH  12  13
ATOM     13  C   UNL     1      35.546 -19.118 -21.167  0.00  0.00    +0.060 C 
BRANCH  13  16
ATOM     14 CL   UNL     1      34.096 -15.915 -25.471  0.00  0.00    -0.075 Cl
ATOM     15  S   UNL     1      34.913 -16.965 -22.816  0.00  0.00    -0.080 S 
ATOM     16  C   UNL     1      35.130 -18.640 -22.538  0.00  0.00    +0.010 C 
ATOM     17  C   UNL     1      34.882 -19.388 -23.667  0.00  0.00    +0.004 C 
ATOM     18  C   UNL     1      34.510 -18.575 -24.777  0.00  0.00    +0.018 C 
ATOM     19  C   UNL     1      34.487 -17.236 -24.452  0.00  0.00    +0.087 C 
ENDBRANCH  13  16
ENDBRANCH  12  13
ENDBRANCH   9  12
ENDBRANCH   7   9
ENDBRANCH   3   7
BRANCH   2  20
ATOM     20  C   UNL     1      32.057 -24.245 -14.966  0.00  0.00    +0.152 C 
ATOM     21  C   UNL     1      32.587 -24.700 -13.626  0.00  0.00    +0.031 C 
BRANCH  20  25
ATOM     22  O   UNL     1      27.404 -23.363 -16.716  0.00  0.00    -0.350 OA
ATOM     23  O   UNL     1      31.513 -22.034 -14.304  0.00  0.00    -0.273 OA
ATOM     24  N   UNL     1      29.795 -23.296 -15.226  0.00  0.00    -0.273 N 
ATOM     25  C   UNL     1      31.104 -23.089 -14.797  0.00  0.00    +0.244 C 
ATOM     26  C   UNL     1      29.245 -24.571 -15.696  0.00  0.00    +0.126 C 
ATOM     27  C   UNL     1      28.807 -22.224 -15.104  0.00  0.00    +0.126 C 
ATOM     28  C   UNL     1      28.409 -24.354 -16.951  0.00  0.00    +0.164 C 
ATOM     29  C   UNL     1      27.994 -22.104 -16.385  0.00  0.00    +0.164 C 
ENDBRANCH  20  25
ENDBRANCH   2  20
TORSDOF 7
ENDMDL
MODEL 7
REMARK VINA RESULT:      -9.1      4.600     10.097
REMARK  Name = 10343728
REMARK  7 active torsions:
REMARK  status: ('A' for Active; 'I' for Inactive)
REMARK    1  A    between atoms: N_2  and  C_20
REMARK    2  A    between atoms: C_3  and  N_7
REMARK    3  A    between atoms: N_7  and  S_9
REMARK    4  A    between atoms: S_9  and  C_12
REMARK    5  A    between atoms: C_12  and  C_13
REMARK    6  A    between atoms: C_13  and  C_16
REMARK    7  A    between atoms: C_20  and  C_25
REMARK                            x       y       z     vdW  Elec       q    Type
REMARK                         _______ _______ _______ _____ _____    ______ ____
ROOT
ATOM      1  O   UNL     1      36.716 -20.519 -19.888  0.00  0.00    -0.273 OA
ATOM      2  N   UNL     1      35.066 -19.329 -21.069  0.00  0.00    -0.272 N 
ATOM      3  C   UNL     1      34.413 -21.287 -19.988  0.00  0.00    +0.153 C 
ATOM      4  C   UNL     1      33.185 -20.434 -20.284  0.00  0.00    +0.048 C 
ATOM      5  C   UNL     1      33.663 -19.488 -21.368  0.00  0.00    +0.096 C 
ATOM      6  C   UNL     1      35.567 -20.358 -20.271  0.00  0.00    +0.242 C 
ENDROOT
BRANCH   3   7
ATOM      7  N   UNL     1      34.447 -21.692 -18.578  0.00  0.00    -0.176 NA
ATOM      8  H   UNL     1      35.413 -21.940 -18.363  0.00  0.00    +0.149 HD
BRANCH   7   9
ATOM      9  S   UNL     1      33.472 -22.995 -18.060  0.00  0.00    +0.041 S 
ATOM     10  O   UNL     1      33.749 -24.167 -18.866  0.00  0.00    -0.157 OA
ATOM     11  O   UNL     1      32.113 -22.515 -17.892  0.00  0.00    -0.157 OA
BRANCH   9  12
ATOM     12  C   UNL     1      34.140 -23.276 -16.437  0.00  0.00    +0.174 C 
BRANCH  12  13
ATOM     13  C   UNL     1      35.546 -22.712 -16.268  0.00  0.00    +0.060 C 
BRANCH  13  16
ATOM     14 CL   UNL     1      37.342 -26.321 -12.442  0.00  0.00    -0.075 Cl
ATOM     15  S   UNL     1      35.708 -24.585 -14.213  0.00  0.00    -0.080 S 
ATOM     16  C   UNL     1      36.426 -23.575 -15.395  0.00  0.00    +0.010 C 
ATOM     17  C   UNL     1      37.798 -23.682 -15.402  0.00  0.00    +0.004 C 
ATOM     18  C   UNL     1      38.269 -24.605 -14.424  0.00  0.00    +0.018 C 
ATOM     19  C   UNL     1      37.236 -25.169 -13.707  0.00  0.00    +0.087 C 
ENDBRANCH  13  16
ENDBRANCH  12  13
ENDBRANCH   9  12
ENDBRANCH   7   9
ENDBRANCH   3   7
BRANCH   2  20
ATOM     20  C   UNL     1      35.853 -18.271 -21.664  0.00  0.00    +0.152 C 
ATOM     21  C   UNL     1      36.053 -18.469 -23.148  0.00  0.00    +0.031 C 
BRANCH  20  25
ATOM     22  O   UNL     1      33.556 -14.958 -24.704  0.00  0.00    -0.350 OA
ATOM     23  O   UNL     1      35.067 -16.527 -20.263  0.00  0.00    -0.273 OA
ATOM     24  N   UNL     1      34.358 -16.483 -22.474  0.00  0.00    -0.273 N 
ATOM     25  C   UNL     1      35.059 -17.017 -21.395  0.00  0.00    +0.244 C 
ATOM     26  C   UNL     1      34.224 -17.106 -23.795  0.00  0.00    +0.126 C 
ATOM     27  C   UNL     1      33.567 -15.265 -22.301  0.00  0.00    +0.126 C 
ATOM     28  C   UNL     1      34.436 -16.070 -24.891  0.00  0.00    +0.164 C 
ATOM     29  C   UNL     1      33.812 -14.306 -23.458  0.00  0.00    +0.164 C 
ENDBRANCH  20  25
ENDBRANCH   2  20
TORSDOF 7
ENDMDL
MODEL 8
REMARK VINA RESULT:      -8.9      6.312     11.894
REMARK  Name = 10343728
REMARK  7 active torsions:
REMARK  status: ('A' for Active; 'I' for Inactive)
REMARK    1  A    between atoms: N_2  and  C_20
REMARK    2  A    between atoms: C_3  and  N_7
REMARK    3  A    between atoms: N_7  and  S_9
REMARK    4  A    between atoms: S_9  and  C_12
REMARK    5  A    between atoms: C_12  and  C_13
REMARK    6  A    between atoms: C_13  and  C_16
REMARK    7  A    between atoms: C_20  and  C_25
REMARK                            x       y       z     vdW  Elec       q    Type
REMARK                         _______ _______ _______ _____ _____    ______ ____
ROOT
ATOM      1  O   UNL     1      34.237 -16.609 -23.888  0.00  0.00    -0.273 OA
ATOM      2  N   UNL     1      34.017 -14.556 -22.761  0.00  0.00    -0.272 N 
ATOM      3  C   UNL     1      34.216 -16.480 -21.462  0.00  0.00    +0.153 C 
ATOM      4  C   UNL     1      34.551 -15.256 -20.616  0.00  0.00    +0.048 C 
ATOM      5  C   UNL     1      33.933 -14.109 -21.391  0.00  0.00    +0.096 C 
ATOM      6  C   UNL     1      34.175 -15.938 -22.868  0.00  0.00    +0.242 C 
ENDROOT
BRANCH   3   7
ATOM      7  N   UNL     1      35.270 -17.496 -21.361  0.00  0.00    -0.176 NA
ATOM      8  H   UNL     1      35.908 -17.341 -22.141  0.00  0.00    +0.149 HD
BRANCH   7   9
ATOM      9  S   UNL     1      34.840 -19.149 -21.389  0.00  0.00    +0.041 S 
ATOM     10  O   UNL     1      35.035 -19.684 -22.721  0.00  0.00    -0.157 OA
ATOM     11  O   UNL     1      33.570 -19.307 -20.704  0.00  0.00    -0.157 OA
BRANCH   9  12
ATOM     12  C   UNL     1      36.099 -19.829 -20.334  0.00  0.00    +0.174 C 
BRANCH  12  13
ATOM     13  C   UNL     1      36.105 -21.354 -20.325  0.00  0.00    +0.060 C 
BRANCH  13  16
ATOM     14 CL   UNL     1      34.926 -23.175 -15.208  0.00  0.00    -0.075 Cl
ATOM     15  S   UNL     1      36.222 -22.044 -17.629  0.00  0.00    -0.080 S 
ATOM     16  C   UNL     1      35.397 -21.938 -19.126  0.00  0.00    +0.010 C 
ATOM     17  C   UNL     1      34.113 -22.430 -19.044  0.00  0.00    +0.004 C 
ATOM     18  C   UNL     1      33.802 -22.900 -17.736  0.00  0.00    +0.018 C 
ATOM     19  C   UNL     1      34.860 -22.749 -16.867  0.00  0.00    +0.087 C 
ENDBRANCH  13  16
ENDBRANCH  12  13
ENDBRANCH   9  12
ENDBRANCH   7   9
ENDBRANCH   3   7
BRANCH   2  20
ATOM     20  C   UNL     1      33.824 -13.646 -23.869  0.00  0.00    +0.152 C 
ATOM     21  C   UNL     1      33.183 -14.319 -25.060  0.00  0.00    +0.031 C 
BRANCH  20  25
ATOM     22  O   UNL     1      34.114  -8.605 -23.884  0.00  0.00    -0.350 OA
ATOM     23  O   UNL     1      32.013 -12.878 -22.545  0.00  0.00    -0.273 OA
ATOM     24  N   UNL     1      33.196 -11.264 -23.724  0.00  0.00    -0.273 N 
ATOM     25  C   UNL     1      32.925 -12.569 -23.317  0.00  0.00    +0.244 C 
ATOM     26  C   UNL     1      34.185 -10.876 -24.735  0.00  0.00    +0.126 C 
ATOM     27  C   UNL     1      32.375 -10.159 -23.232  0.00  0.00    +0.126 C 
ATOM     28  C   UNL     1      34.989  -9.675 -24.252  0.00  0.00    +0.164 C 
ATOM     29  C   UNL     1      33.256  -8.992 -22.808  0.00  0.00    +0.164 C 
ENDBRANCH  20  25
ENDBRANCH   2  20
TORSDOF 7
ENDMDL
MODEL 9
REMARK VINA RESULT:      -8.8      6.503     12.077
REMARK  Name = 10343728
REMARK  7 active torsions:
REMARK  status: ('A' for Active; 'I' for Inactive)
REMARK    1  A    between atoms: N_2  and  C_20
REMARK    2  A    between atoms: C_3  and  N_7
REMARK    3  A    between atoms: N_7  and  S_9
REMARK    4  A    between atoms: S_9  and  C_12
REMARK    5  A    between atoms: C_12  and  C_13
REMARK    6  A    between atoms: C_13  and  C_16
REMARK    7  A    between atoms: C_20  and  C_25
REMARK                            x       y       z     vdW  Elec       q    Type
REMARK                         _______ _______ _______ _____ _____    ______ ____
ROOT
ATOM      1  O   UNL     1      34.938 -14.434 -22.030  0.00  0.00    -0.273 OA
ATOM      2  N   UNL     1      34.028 -14.004 -24.156  0.00  0.00    -0.272 N 
ATOM      3  C   UNL     1      34.663 -16.195 -23.682  0.00  0.00    +0.153 C 
ATOM      4  C   UNL     1      33.698 -16.188 -24.862  0.00  0.00    +0.048 C 
ATOM      5  C   UNL     1      33.754 -14.756 -25.358  0.00  0.00    +0.096 C 
ATOM      6  C   UNL     1      34.570 -14.791 -23.140  0.00  0.00    +0.242 C 
ENDROOT
BRANCH   3   7
ATOM      7  N   UNL     1      34.228 -17.146 -22.651  0.00  0.00    -0.176 NA
ATOM      8  H   UNL     1      33.587 -16.645 -22.037  0.00  0.00    +0.149 HD
BRANCH   7   9
ATOM      9  S   UNL     1      35.399 -17.887 -21.653  0.00  0.00    +0.041 S 
ATOM     10  O   UNL     1      35.502 -17.166 -20.400  0.00  0.00    -0.157 OA
ATOM     11  O   UNL     1      36.580 -18.159 -22.452  0.00  0.00    -0.157 OA
BRANCH   9  12
ATOM     12  C   UNL     1      34.609 -19.445 -21.327  0.00  0.00    +0.174 C 
BRANCH  12  13
ATOM     13  C   UNL     1      35.534 -20.450 -20.651  0.00  0.00    +0.060 C 
BRANCH  13  16
ATOM     14 CL   UNL     1      34.463 -23.617 -16.212  0.00  0.00    -0.075 Cl
ATOM     15  S   UNL     1      35.737 -21.953 -18.315  0.00  0.00    -0.080 S 
ATOM     16  C   UNL     1      34.833 -21.289 -19.610  0.00  0.00    +0.010 C 
ATOM     17  C   UNL     1      33.500 -21.625 -19.534  0.00  0.00    +0.004 C 
ATOM     18  C   UNL     1      33.215 -22.437 -18.399  0.00  0.00    +0.018 C 
ATOM     19  C   UNL     1      34.344 -22.692 -17.649  0.00  0.00    +0.087 C 
ENDBRANCH  13  16
ENDBRANCH  12  13
ENDBRANCH   9  12
ENDBRANCH   7   9
ENDBRANCH   3   7
BRANCH   2  20
ATOM     20  C   UNL     1      33.860 -12.568 -24.106  0.00  0.00    +0.152 C 
ATOM     21  C   UNL     1      33.619 -11.970 -25.472  0.00  0.00    +0.031 C 
BRANCH  20  25
ATOM     22  O   UNL     1      32.055  -8.522 -21.685  0.00  0.00    -0.350 OA
ATOM     23  O   UNL     1      32.046 -13.343 -22.791  0.00  0.00    -0.273 OA
ATOM     24  N   UNL     1      32.330 -11.041 -22.916  0.00  0.00    -0.273 N 
ATOM     25  C   UNL     1      32.663 -12.361 -23.213  0.00  0.00    +0.244 C 
ATOM     26  C   UNL     1      32.960  -9.852 -23.501  0.00  0.00    +0.126 C 
ATOM     27  C   UNL     1      31.186 -10.752 -22.053  0.00  0.00    +0.126 C 
ATOM     28  C   UNL     1      33.247  -8.821 -22.417  0.00  0.00    +0.164 C 
ATOM     29  C   UNL     1      31.551  -9.687 -21.029  0.00  0.00    +0.164 C 
ENDBRANCH  20  25
ENDBRANCH   2  20
TORSDOF 7
ENDMDL
