MODEL 1
REMARK VINA RESULT:      -8.4      0.000      0.000
REMARK  Name = 24875311
REMARK  4 active torsions:
REMARK  status: ('A' for Active; 'I' for Inactive)
REMARK    1  A    between atoms: C_1  and  C_9
REMARK    2  A    between atoms: C_4  and  O_14
REMARK    3  A    between atoms: C_6  and  O_16
REMARK    4  A    between atoms: C_8  and  C_12
REMARK                            x       y       z     vdW  Elec       q    Type
REMARK                         _______ _______ _______ _____ _____    ______ ____
ROOT
ATOM      1  C   UNL     1      34.968 -19.310 -21.311  0.00  0.00    +0.009 C 
ATOM      2  C   UNL     1      33.801 -19.938 -20.876  0.00  0.00    +0.040 C 
ATOM      3  C   UNL     1      36.207 -19.728 -20.824  0.00  0.00    +0.004 C 
ATOM      4  C   UNL     1      33.872 -20.983 -19.955  0.00  0.00    +0.167 C 
ATOM      5  C   UNL     1      36.279 -20.772 -19.902  0.00  0.00    +0.040 C 
ATOM      6  C   UNL     1      35.112 -21.400 -19.467  0.00  0.00    +0.167 C 
ENDROOT
BRANCH   1   9
ATOM      7  S   UNL     1      34.894 -18.618 -23.934  0.00  0.00    -0.087 S 
ATOM      8  C   UNL     1      34.819 -16.873 -22.049  0.00  0.00    -0.016 C 
ATOM      9  C   UNL     1      34.894 -18.231 -22.265  0.00  0.00    +0.026 C 
ATOM     10  C   UNL     1      34.762 -16.139 -23.270  0.00  0.00    +0.003 C 
ATOM     11  C   UNL     1      34.796 -16.966 -24.371  0.00  0.00    +0.035 C 
BRANCH   8  12
ATOM     12  C   UNL     1      34.802 -16.230 -20.712  0.00  0.00    +0.027 C 
ATOM     13  C   UNL     1      33.939 -14.968 -20.677  0.00  0.00    +0.005 C 
ENDBRANCH   8  12
ENDBRANCH   1   9
BRANCH   4  14
ATOM     14  O   UNL     1      32.725 -21.588 -19.538  0.00  0.00    -0.503 OA
ATOM     15  H   UNL     1      31.997 -21.665 -20.123  0.00  0.00    +0.292 HD
ENDBRANCH   4  14
BRANCH   6  16
ATOM     16  O   UNL     1      35.194 -22.419 -18.568  0.00  0.00    -0.503 OA
ATOM     17  H   UNL     1      35.021 -23.300 -18.840  0.00  0.00    +0.292 HD
ENDBRANCH   6  16
TORSDOF 4
ENDMDL
MODEL 2
REMARK VINA RESULT:      -8.2      0.714      1.688
REMARK  Name = 24875311
REMARK  4 active torsions:
REMARK  status: ('A' for Active; 'I' for Inactive)
REMARK    1  A    between atoms: C_1  and  C_9
REMARK    2  A    between atoms: C_4  and  O_14
REMARK    3  A    between atoms: C_6  and  O_16
REMARK    4  A    between atoms: C_8  and  C_12
REMARK                            x       y       z     vdW  Elec       q    Type
REMARK                         _______ _______ _______ _____ _____    ______ ____
ROOT
ATOM      1  C   UNL     1      34.551 -19.301 -21.367  0.00  0.00    +0.009 C 
ATOM      2  C   UNL     1      35.685 -19.918 -20.837  0.00  0.00    +0.040 C 
ATOM      3  C   UNL     1      33.281 -19.707 -20.956  0.00  0.00    +0.004 C 
ATOM      4  C   UNL     1      35.549 -20.939 -19.897  0.00  0.00    +0.167 C 
ATOM      5  C   UNL     1      33.144 -20.730 -20.017  0.00  0.00    +0.040 C 
ATOM      6  C   UNL     1      34.278 -21.346 -19.487  0.00  0.00    +0.167 C 
ENDROOT
BRANCH   1   9
ATOM      7  S   UNL     1      34.776 -18.664 -23.995  0.00  0.00    -0.087 S 
ATOM      8  C   UNL     1      34.774 -16.882 -22.144  0.00  0.00    -0.016 C 
ATOM      9  C   UNL     1      34.692 -18.244 -22.337  0.00  0.00    +0.026 C 
ATOM     10  C   UNL     1      34.909 -16.175 -23.374  0.00  0.00    +0.003 C 
ATOM     11  C   UNL     1      34.925 -17.023 -24.459  0.00  0.00    +0.035 C 
BRANCH   8  12
ATOM     12  C   UNL     1      34.732 -16.212 -20.821  0.00  0.00    +0.027 C 
ATOM     13  C   UNL     1      33.533 -15.273 -20.674  0.00  0.00    +0.005 C 
ENDBRANCH   8  12
ENDBRANCH   1   9
BRANCH   4  14
ATOM     14  O   UNL     1      36.663 -21.533 -19.387  0.00  0.00    -0.503 OA
ATOM     15  H   UNL     1      37.509 -21.164 -19.554  0.00  0.00    +0.292 HD
ENDBRANCH   4  14
BRANCH   6  16
ATOM     16  O   UNL     1      34.133 -22.342 -18.570  0.00  0.00    -0.503 OA
ATOM     17  H   UNL     1      33.337 -22.834 -18.534  0.00  0.00    +0.292 HD
ENDBRANCH   6  16
TORSDOF 4
ENDMDL
MODEL 3
REMARK VINA RESULT:      -8.2      1.298      2.249
REMARK  Name = 24875311
REMARK  4 active torsions:
REMARK  status: ('A' for Active; 'I' for Inactive)
REMARK    1  A    between atoms: C_1  and  C_9
REMARK    2  A    between atoms: C_4  and  O_14
REMARK    3  A    between atoms: C_6  and  O_16
REMARK    4  A    between atoms: C_8  and  C_12
REMARK                            x       y       z     vdW  Elec       q    Type
REMARK                         _______ _______ _______ _____ _____    ______ ____
ROOT
ATOM      1  C   UNL     1      34.985 -19.063 -21.034  0.00  0.00    +0.009 C 
ATOM      2  C   UNL     1      33.809 -19.743 -20.722  0.00  0.00    +0.040 C 
ATOM      3  C   UNL     1      36.217 -19.578 -20.631  0.00  0.00    +0.004 C 
ATOM      4  C   UNL     1      33.863 -20.940 -20.007  0.00  0.00    +0.167 C 
ATOM      5  C   UNL     1      36.272 -20.774 -19.915  0.00  0.00    +0.040 C 
ATOM      6  C   UNL     1      35.096 -21.455 -19.603  0.00  0.00    +0.167 C 
ENDROOT
BRANCH   1   9
ATOM      7  S   UNL     1      34.665 -16.371 -20.913  0.00  0.00    -0.087 S 
ATOM      8  C   UNL     1      35.057 -17.609 -23.129  0.00  0.00    -0.016 C 
ATOM      9  C   UNL     1      34.928 -17.827 -21.775  0.00  0.00    +0.026 C 
ATOM     10  C   UNL     1      34.937 -16.229 -23.464  0.00  0.00    +0.003 C 
ATOM     11  C   UNL     1      34.721 -15.445 -22.352  0.00  0.00    +0.035 C 
BRANCH   8  12
ATOM     12  C   UNL     1      35.290 -18.673 -24.137  0.00  0.00    +0.027 C 
ATOM     13  C   UNL     1      34.139 -18.802 -25.136  0.00  0.00    +0.005 C 
ENDBRANCH   8  12
ENDBRANCH   1   9
BRANCH   4  14
ATOM     14  O   UNL     1      32.707 -21.595 -19.709  0.00  0.00    -0.503 OA
ATOM     15  H   UNL     1      31.911 -21.365 -20.147  0.00  0.00    +0.292 HD
ENDBRANCH   4  14
BRANCH   6  16
ATOM     16  O   UNL     1      35.162 -22.622 -18.905  0.00  0.00    -0.503 OA
ATOM     17  H   UNL     1      34.687 -22.717 -18.102  0.00  0.00    +0.292 HD
ENDBRANCH   6  16
TORSDOF 4
ENDMDL
MODEL 4
REMARK VINA RESULT:      -7.8      1.532      2.807
REMARK  Name = 24875311
REMARK  4 active torsions:
REMARK  status: ('A' for Active; 'I' for Inactive)
REMARK    1  A    between atoms: C_1  and  C_9
REMARK    2  A    between atoms: C_4  and  O_14
REMARK    3  A    between atoms: C_6  and  O_16
REMARK    4  A    between atoms: C_8  and  C_12
REMARK                            x       y       z     vdW  Elec       q    Type
REMARK                         _______ _______ _______ _____ _____    ______ ____
ROOT
ATOM      1  C   UNL     1      34.542 -18.955 -21.080  0.00  0.00    +0.009 C 
ATOM      2  C   UNL     1      35.720 -19.632 -20.765  0.00  0.00    +0.040 C 
ATOM      3  C   UNL     1      33.308 -19.506 -20.735  0.00  0.00    +0.004 C 
ATOM      4  C   UNL     1      35.665 -20.860 -20.105  0.00  0.00    +0.167 C 
ATOM      5  C   UNL     1      33.252 -20.735 -20.076  0.00  0.00    +0.040 C 
ATOM      6  C   UNL     1      34.430 -21.411 -19.761  0.00  0.00    +0.167 C 
ENDROOT
BRANCH   1   9
ATOM      7  S   UNL     1      34.138 -16.278 -20.899  0.00  0.00    -0.087 S 
ATOM      8  C   UNL     1      34.985 -17.397 -23.051  0.00  0.00    -0.016 C 
ATOM      9  C   UNL     1      34.600 -17.684 -21.760  0.00  0.00    +0.026 C 
ATOM     10  C   UNL     1      34.898 -16.004 -23.338  0.00  0.00    +0.003 C 
ATOM     11  C   UNL     1      34.450 -15.280 -22.255  0.00  0.00    +0.035 C 
BRANCH   8  12
ATOM     12  C   UNL     1      35.436 -18.406 -24.042  0.00  0.00    +0.027 C 
ATOM     13  C   UNL     1      34.272 -19.101 -24.747  0.00  0.00    +0.005 C 
ENDBRANCH   8  12
ENDBRANCH   1   9
BRANCH   4  14
ATOM     14  O   UNL     1      36.822 -21.510 -19.803  0.00  0.00    -0.503 OA
ATOM     15  H   UNL     1      36.804 -22.268 -19.251  0.00  0.00    +0.292 HD
ENDBRANCH   4  14
BRANCH   6  16
ATOM     16  O   UNL     1      34.363 -22.609 -19.117  0.00  0.00    -0.503 OA
ATOM     17  H   UNL     1      34.008 -23.358 -19.553  0.00  0.00    +0.292 HD
ENDBRANCH   6  16
TORSDOF 4
ENDMDL
MODEL 5
REMARK VINA RESULT:      -7.7      3.465      5.566
REMARK  Name = 24875311
REMARK  4 active torsions:
REMARK  status: ('A' for Active; 'I' for Inactive)
REMARK    1  A    between atoms: C_1  and  C_9
REMARK    2  A    between atoms: C_4  and  O_14
REMARK    3  A    between atoms: C_6  and  O_16
REMARK    4  A    between atoms: C_8  and  C_12
REMARK                            x       y       z     vdW  Elec       q    Type
REMARK                         _______ _______ _______ _____ _____    ______ ____
ROOT
ATOM      1  C   UNL     1      35.178 -18.430 -22.717  0.00  0.00    +0.009 C 
ATOM      2  C   UNL     1      35.180 -17.042 -22.583  0.00  0.00    +0.040 C 
ATOM      3  C   UNL     1      34.821 -19.013 -23.933  0.00  0.00    +0.004 C 
ATOM      4  C   UNL     1      34.824 -16.236 -23.665  0.00  0.00    +0.167 C 
ATOM      5  C   UNL     1      34.465 -18.208 -25.015  0.00  0.00    +0.040 C 
ATOM      6  C   UNL     1      34.467 -16.820 -24.881  0.00  0.00    +0.167 C 
ENDROOT
BRANCH   1   9
ATOM      7  S   UNL     1      37.205 -19.387 -21.188  0.00  0.00    -0.087 S 
ATOM      8  C   UNL     1      34.750 -20.012 -20.761  0.00  0.00    -0.016 C 
ATOM      9  C   UNL     1      35.547 -19.263 -21.598  0.00  0.00    +0.026 C 
ATOM     10  C   UNL     1      35.510 -20.699 -19.770  0.00  0.00    +0.003 C 
ATOM     11  C   UNL     1      36.860 -20.447 -19.889  0.00  0.00    +0.035 C 
BRANCH   8  12
ATOM     12  C   UNL     1      33.273 -20.108 -20.864  0.00  0.00    +0.027 C 
ATOM     13  C   UNL     1      32.643 -20.808 -19.660  0.00  0.00    +0.005 C 
ENDBRANCH   8  12
ENDBRANCH   1   9
BRANCH   4  14
ATOM     14  O   UNL     1      34.830 -14.882 -23.522  0.00  0.00    -0.503 OA
ATOM     15  H   UNL     1      34.022 -14.416 -23.433  0.00  0.00    +0.292 HD
ENDBRANCH   4  14
BRANCH   6  16
ATOM     16  O   UNL     1      34.119 -16.044 -25.945  0.00  0.00    -0.503 OA
ATOM     17  H   UNL     1      34.362 -16.300 -26.813  0.00  0.00    +0.292 HD
ENDBRANCH   6  16
TORSDOF 4
ENDMDL
MODEL 6
REMARK VINA RESULT:      -7.5      5.085      6.954
REMARK  Name = 24875311
REMARK  4 active torsions:
REMARK  status: ('A' for Active; 'I' for Inactive)
REMARK    1  A    between atoms: C_1  and  C_9
REMARK    2  A    between atoms: C_4  and  O_14
REMARK    3  A    between atoms: C_6  and  O_16
REMARK    4  A    between atoms: C_8  and  C_12
REMARK                            x       y       z     vdW  Elec       q    Type
REMARK                         _______ _______ _______ _____ _____    ______ ____
ROOT
ATOM      1  C   UNL     1      33.510 -13.869 -24.089  0.00  0.00    +0.009 C 
ATOM      2  C   UNL     1      34.440 -14.637 -23.389  0.00  0.00    +0.040 C 
ATOM      3  C   UNL     1      32.977 -14.342 -25.289  0.00  0.00    +0.004 C 
ATOM      4  C   UNL     1      34.839 -15.877 -23.888  0.00  0.00    +0.167 C 
ATOM      5  C   UNL     1      33.376 -15.582 -25.789  0.00  0.00    +0.040 C 
ATOM      6  C   UNL     1      34.307 -16.349 -25.088  0.00  0.00    +0.167 C 
ENDROOT
BRANCH   1   9
ATOM      7  S   UNL     1      32.014 -12.556 -22.245  0.00  0.00    -0.087 S 
ATOM      8  C   UNL     1      33.443 -11.321 -23.987  0.00  0.00    -0.016 C 
ATOM      9  C   UNL     1      33.096 -12.588 -23.572  0.00  0.00    +0.026 C 
ATOM     10  C   UNL     1      32.812 -10.310 -23.205  0.00  0.00    +0.003 C 
ATOM     11  C   UNL     1      32.006 -10.844 -22.223  0.00  0.00    +0.035 C 
BRANCH   8  12
ATOM     12  C   UNL     1      34.362 -11.023 -25.113  0.00  0.00    +0.027 C 
ATOM     13  C   UNL     1      35.244  -9.803 -24.846  0.00  0.00    +0.005 C 
ENDBRANCH   8  12
ENDBRANCH   1   9
BRANCH   4  14
ATOM     14  O   UNL     1      35.748 -16.617 -23.195  0.00  0.00    -0.503 OA
ATOM     15  H   UNL     1      35.581 -16.850 -22.302  0.00  0.00    +0.292 HD
ENDBRANCH   4  14
BRANCH   6  16
ATOM     16  O   UNL     1      34.688 -17.558 -25.585  0.00  0.00    -0.503 OA
ATOM     17  H   UNL     1      34.087 -18.070 -26.090  0.00  0.00    +0.292 HD
ENDBRANCH   6  16
TORSDOF 4
ENDMDL
MODEL 7
REMARK VINA RESULT:      -7.4      5.127      7.078
REMARK  Name = 24875311
REMARK  4 active torsions:
REMARK  status: ('A' for Active; 'I' for Inactive)
REMARK    1  A    between atoms: C_1  and  C_9
REMARK    2  A    between atoms: C_4  and  O_14
REMARK    3  A    between atoms: C_6  and  O_16
REMARK    4  A    between atoms: C_8  and  C_12
REMARK                            x       y       z     vdW  Elec       q    Type
REMARK                         _______ _______ _______ _____ _____    ______ ____
ROOT
ATOM      1  C   UNL     1      33.480 -13.671 -23.762  0.00  0.00    +0.009 C 
ATOM      2  C   UNL     1      33.085 -14.158 -25.008  0.00  0.00    +0.040 C 
ATOM      3  C   UNL     1      34.321 -14.433 -22.950  0.00  0.00    +0.004 C 
ATOM      4  C   UNL     1      33.532 -15.406 -25.443  0.00  0.00    +0.167 C 
ATOM      5  C   UNL     1      34.767 -15.681 -23.384  0.00  0.00    +0.040 C 
ATOM      6  C   UNL     1      34.372 -16.168 -24.631  0.00  0.00    +0.167 C 
ENDROOT
BRANCH   1   9
ATOM      7  S   UNL     1      31.873 -12.319 -22.044  0.00  0.00    -0.087 S 
ATOM      8  C   UNL     1      33.367 -11.122 -23.758  0.00  0.00    -0.016 C 
ATOM      9  C   UNL     1      33.020 -12.380 -23.314  0.00  0.00    +0.026 C 
ATOM     10  C   UNL     1      32.681 -10.095 -23.047  0.00  0.00    +0.003 C 
ATOM     11  C   UNL     1      31.836 -10.608 -22.087  0.00  0.00    +0.035 C 
BRANCH   8  12
ATOM     12  C   UNL     1      34.336 -10.849 -24.848  0.00  0.00    +0.027 C 
ATOM     13  C   UNL     1      35.124  -9.557 -24.626  0.00  0.00    +0.005 C 
ENDBRANCH   8  12
ENDBRANCH   1   9
BRANCH   4  14
ATOM     14  O   UNL     1      33.139 -15.870 -26.662  0.00  0.00    -0.503 OA
ATOM     15  H   UNL     1      32.287 -16.244 -26.769  0.00  0.00    +0.292 HD
ENDBRANCH   4  14
BRANCH   6  16
ATOM     16  O   UNL     1      34.814 -17.387 -25.044  0.00  0.00    -0.503 OA
ATOM     17  H   UNL     1      34.263 -17.933 -25.570  0.00  0.00    +0.292 HD
ENDBRANCH   6  16
TORSDOF 4
ENDMDL
MODEL 8
REMARK VINA RESULT:      -7.3      9.604     10.935
REMARK  Name = 24875311
REMARK  4 active torsions:
REMARK  status: ('A' for Active; 'I' for Inactive)
REMARK    1  A    between atoms: C_1  and  C_9
REMARK    2  A    between atoms: C_4  and  O_14
REMARK    3  A    between atoms: C_6  and  O_16
REMARK    4  A    between atoms: C_8  and  C_12
REMARK                            x       y       z     vdW  Elec       q    Type
REMARK                         _______ _______ _______ _____ _____    ______ ____
ROOT
ATOM      1  C   UNL     1      32.136  -8.410 -22.166  0.00  0.00    +0.009 C 
ATOM      2  C   UNL     1      31.604  -9.656 -22.498  0.00  0.00    +0.040 C 
ATOM      3  C   UNL     1      32.392  -8.094 -20.832  0.00  0.00    +0.004 C 
ATOM      4  C   UNL     1      31.328 -10.586 -21.495  0.00  0.00    +0.167 C 
ATOM      5  C   UNL     1      32.116  -9.023 -19.829  0.00  0.00    +0.040 C 
ATOM      6  C   UNL     1      31.584 -10.269 -20.160  0.00  0.00    +0.167 C 
ENDROOT
BRANCH   1   9
ATOM      7  S   UNL     1      31.157  -6.430 -23.742  0.00  0.00    -0.087 S 
ATOM      8  C   UNL     1      33.604  -7.201 -23.866  0.00  0.00    -0.016 C 
ATOM      9  C   UNL     1      32.423  -7.449 -23.203  0.00  0.00    +0.026 C 
ATOM     10  C   UNL     1      33.469  -6.161 -24.831  0.00  0.00    +0.003 C 
ATOM     11  C   UNL     1      32.188  -5.654 -24.867  0.00  0.00    +0.035 C 
BRANCH   8  12
ATOM     12  C   UNL     1      34.878  -7.922 -23.622  0.00  0.00    +0.027 C 
ATOM     13  C   UNL     1      34.936  -9.273 -24.337  0.00  0.00    +0.005 C 
ENDBRANCH   8  12
ENDBRANCH   1   9
BRANCH   4  14
ATOM     14  O   UNL     1      30.809 -11.799 -21.832  0.00  0.00    -0.503 OA
ATOM     15  H   UNL     1      30.052 -12.126 -21.386  0.00  0.00    +0.292 HD
ENDBRANCH   4  14
BRANCH   6  16
ATOM     16  O   UNL     1      31.319 -11.169 -19.173  0.00  0.00    -0.503 OA
ATOM     17  H   UNL     1      30.509 -11.127 -18.704  0.00  0.00    +0.292 HD
ENDBRANCH   6  16
TORSDOF 4
ENDMDL
MODEL 9
REMARK VINA RESULT:      -7.2      5.693      8.110
REMARK  Name = 24875311
REMARK  4 active torsions:
REMARK  status: ('A' for Active; 'I' for Inactive)
REMARK    1  A    between atoms: C_1  and  C_9
REMARK    2  A    between atoms: C_4  and  O_14
REMARK    3  A    between atoms: C_6  and  O_16
REMARK    4  A    between atoms: C_8  and  C_12
REMARK                            x       y       z     vdW  Elec       q    Type
REMARK                         _______ _______ _______ _____ _____    ______ ____
ROOT
ATOM      1  C   UNL     1      33.141 -13.008 -23.586  0.00  0.00    +0.009 C 
ATOM      2  C   UNL     1      32.095 -12.930 -22.666  0.00  0.00    +0.040 C 
ATOM      3  C   UNL     1      33.742 -11.842 -24.060  0.00  0.00    +0.004 C 
ATOM      4  C   UNL     1      31.650 -11.685 -22.221  0.00  0.00    +0.167 C 
ATOM      5  C   UNL     1      33.296 -10.597 -23.616  0.00  0.00    +0.040 C 
ATOM      6  C   UNL     1      32.250 -10.518 -22.697  0.00  0.00    +0.167 C 
ENDROOT
BRANCH   1   9
ATOM      7  S   UNL     1      34.555 -15.244 -22.983  0.00  0.00    -0.087 S 
ATOM      8  C   UNL     1      33.398 -14.922 -25.254  0.00  0.00    -0.016 C 
ATOM      9  C   UNL     1      33.603 -14.295 -24.044  0.00  0.00    +0.026 C 
ATOM     10  C   UNL     1      34.030 -16.198 -25.310  0.00  0.00    +0.003 C 
ATOM     11  C   UNL     1      34.695 -16.497 -24.141  0.00  0.00    +0.035 C 
BRANCH   8  12
ATOM     12  C   UNL     1      32.615 -14.351 -26.378  0.00  0.00    +0.027 C 
ATOM     13  C   UNL     1      33.457 -13.454 -27.286  0.00  0.00    +0.005 C 
ENDBRANCH   8  12
ENDBRANCH   1   9
BRANCH   4  14
ATOM     14  O   UNL     1      30.628 -11.621 -21.323  0.00  0.00    -0.503 OA
ATOM     15  H   UNL     1      29.824 -12.073 -21.494  0.00  0.00    +0.292 HD
ENDBRANCH   4  14
BRANCH   6  16
ATOM     16  O   UNL     1      31.824  -9.298 -22.269  0.00  0.00    -0.503 OA
ATOM     17  H   UNL     1      32.447  -8.631 -22.055  0.00  0.00    +0.292 HD
ENDBRANCH   6  16
TORSDOF 4
ENDMDL
