MODEL 1
REMARK VINA RESULT:      -6.9      0.000      0.000
REMARK  Name = 4771
REMARK  3 active torsions:
REMARK  status: ('A' for Active; 'I' for Inactive)
REMARK    1  A    between atoms: C_1  and  N_4
REMARK    2  A    between atoms: C_1  and  C_8
REMARK    3  A    between atoms: C_8  and  C_9
REMARK                            x       y       z     vdW  Elec       q    Type
REMARK                         _______ _______ _______ _____ _____    ______ ____
ROOT
ATOM      1  C   UNL     1      35.122 -18.094 -23.101  0.00  0.00    -0.045 C 
ATOM      2  C   UNL     1      34.738 -19.361 -23.879  0.00  0.00    -0.022 C 
ATOM      3  C   UNL     1      34.797 -16.850 -23.940  0.00  0.00    -0.022 C 
ENDROOT
BRANCH   1   4
ATOM      4  N   UNL     1      36.583 -18.125 -22.915  0.00  0.00    +0.383 N 
ATOM      5  H   UNL     1      37.040 -18.185 -23.825  0.00  0.00    -0.089 HD
ATOM      6  H   UNL     1      36.838 -18.937 -22.352  0.00  0.00    -0.089 HD
ATOM      7  H   UNL     1      36.882 -17.274 -22.439  0.00  0.00    -0.089 HD
ENDBRANCH   1   4
BRANCH   1   8
ATOM      8  C   UNL     1      34.467 -18.045 -21.696  0.00  0.00    +0.006 C 
BRANCH   8   9
ATOM      9  C   UNL     1      34.433 -19.346 -20.927  0.00  0.00    -0.024 C 
ATOM     10  C   UNL     1      35.625 -19.943 -20.551  0.00  0.00    -0.004 C 
ATOM     11  C   UNL     1      33.210 -19.916 -20.613  0.00  0.00    -0.004 C 
ATOM     12  C   UNL     1      35.593 -21.143 -19.841  0.00  0.00    -0.000 C 
ATOM     13  C   UNL     1      33.178 -21.117 -19.904  0.00  0.00    -0.000 C 
ATOM     14  C   UNL     1      34.370 -21.730 -19.517  0.00  0.00    -0.000 C 
ENDBRANCH   8   9
ENDBRANCH   1   8
TORSDOF 3
ENDMDL
MODEL 2
REMARK VINA RESULT:      -6.9      0.007      1.457
REMARK  Name = 4771
REMARK  3 active torsions:
REMARK  status: ('A' for Active; 'I' for Inactive)
REMARK    1  A    between atoms: C_1  and  N_4
REMARK    2  A    between atoms: C_1  and  C_8
REMARK    3  A    between atoms: C_8  and  C_9
REMARK                            x       y       z     vdW  Elec       q    Type
REMARK                         _______ _______ _______ _____ _____    ______ ____
ROOT
ATOM      1  C   UNL     1      35.116 -18.094 -23.104  0.00  0.00    -0.045 C 
ATOM      2  C   UNL     1      34.738 -19.363 -23.881  0.00  0.00    -0.022 C 
ATOM      3  C   UNL     1      34.790 -16.852 -23.945  0.00  0.00    -0.022 C 
ENDROOT
BRANCH   1   4
ATOM      4  N   UNL     1      36.578 -18.120 -22.914  0.00  0.00    +0.383 N 
ATOM      5  H   UNL     1      36.947 -19.012 -23.241  0.00  0.00    -0.089 HD
ATOM      6  H   UNL     1      36.794 -18.004 -21.924  0.00  0.00    -0.089 HD
ATOM      7  H   UNL     1      37.002 -17.360 -23.446  0.00  0.00    -0.089 HD
ENDBRANCH   1   4
BRANCH   1   8
ATOM      8  C   UNL     1      34.458 -18.046 -21.700  0.00  0.00    +0.006 C 
BRANCH   8   9
ATOM      9  C   UNL     1      34.426 -19.345 -20.929  0.00  0.00    -0.024 C 
ATOM     10  C   UNL     1      33.205 -19.919 -20.616  0.00  0.00    -0.004 C 
ATOM     11  C   UNL     1      35.620 -19.938 -20.551  0.00  0.00    -0.004 C 
ATOM     12  C   UNL     1      33.176 -21.118 -19.904  0.00  0.00    -0.000 C 
ATOM     13  C   UNL     1      35.592 -21.137 -19.840  0.00  0.00    -0.000 C 
ATOM     14  C   UNL     1      34.370 -21.728 -19.517  0.00  0.00    -0.000 C 
ENDBRANCH   8   9
ENDBRANCH   1   8
TORSDOF 3
ENDMDL
MODEL 3
REMARK VINA RESULT:      -6.3      1.723      2.290
REMARK  Name = 4771
REMARK  3 active torsions:
REMARK  status: ('A' for Active; 'I' for Inactive)
REMARK    1  A    between atoms: C_1  and  N_4
REMARK    2  A    between atoms: C_1  and  C_8
REMARK    3  A    between atoms: C_8  and  C_9
REMARK                            x       y       z     vdW  Elec       q    Type
REMARK                         _______ _______ _______ _____ _____    ______ ____
ROOT
ATOM      1  C   UNL     1      34.102 -16.276 -21.472  0.00  0.00    -0.045 C 
ATOM      2  C   UNL     1      34.548 -15.078 -22.321  0.00  0.00    -0.022 C 
ATOM      3  C   UNL     1      32.667 -16.055 -20.973  0.00  0.00    -0.022 C 
ENDROOT
BRANCH   1   4
ATOM      4  N   UNL     1      34.974 -16.315 -20.284  0.00  0.00    +0.383 N 
ATOM      5  H   UNL     1      35.735 -16.975 -20.443  0.00  0.00    -0.089 HD
ATOM      6  H   UNL     1      34.430 -16.612 -19.473  0.00  0.00    -0.089 HD
ATOM      7  H   UNL     1      35.358 -15.386 -20.114  0.00  0.00    -0.089 HD
ENDBRANCH   1   4
BRANCH   1   8
ATOM      8  C   UNL     1      34.264 -17.624 -22.223  0.00  0.00    +0.006 C 
BRANCH   8   9
ATOM      9  C   UNL     1      34.342 -18.865 -21.363  0.00  0.00    -0.024 C 
ATOM     10  C   UNL     1      35.581 -19.418 -21.081  0.00  0.00    -0.004 C 
ATOM     11  C   UNL     1      33.174 -19.425 -20.875  0.00  0.00    -0.004 C 
ATOM     12  C   UNL     1      35.652 -20.563 -20.287  0.00  0.00    -0.000 C 
ATOM     13  C   UNL     1      33.245 -20.570 -20.082  0.00  0.00    -0.000 C 
ATOM     14  C   UNL     1      34.484 -21.139 -19.788  0.00  0.00    -0.000 C 
ENDBRANCH   8   9
ENDBRANCH   1   8
TORSDOF 3
ENDMDL
MODEL 4
REMARK VINA RESULT:      -6.2      2.154      4.815
REMARK  Name = 4771
REMARK  3 active torsions:
REMARK  status: ('A' for Active; 'I' for Inactive)
REMARK    1  A    between atoms: C_1  and  N_4
REMARK    2  A    between atoms: C_1  and  C_8
REMARK    3  A    between atoms: C_8  and  C_9
REMARK                            x       y       z     vdW  Elec       q    Type
REMARK                         _______ _______ _______ _____ _____    ______ ____
ROOT
ATOM      1  C   UNL     1      34.768 -19.016 -21.444  0.00  0.00    -0.045 C 
ATOM      2  C   UNL     1      33.381 -19.379 -20.895  0.00  0.00    -0.022 C 
ATOM      3  C   UNL     1      34.796 -19.226 -22.964  0.00  0.00    -0.022 C 
ENDROOT
BRANCH   1   4
ATOM      4  N   UNL     1      35.730 -19.964 -20.856  0.00  0.00    +0.383 N 
ATOM      5  H   UNL     1      35.278 -20.868 -20.722  0.00  0.00    -0.089 HD
ATOM      6  H   UNL     1      36.052 -19.608 -19.956  0.00  0.00    -0.089 HD
ATOM      7  H   UNL     1      36.527 -20.072 -21.484  0.00  0.00    -0.089 HD
ENDBRANCH   1   4
BRANCH   1   8
ATOM      8  C   UNL     1      35.205 -17.584 -21.038  0.00  0.00    +0.006 C 
BRANCH   8   9
ATOM      9  C   UNL     1      34.423 -16.445 -21.651  0.00  0.00    -0.024 C 
ATOM     10  C   UNL     1      33.297 -15.968 -21.001  0.00  0.00    -0.004 C 
ATOM     11  C   UNL     1      34.848 -15.902 -22.852  0.00  0.00    -0.004 C 
ATOM     12  C   UNL     1      32.576 -14.917 -21.568  0.00  0.00    -0.000 C 
ATOM     13  C   UNL     1      34.127 -14.851 -23.419  0.00  0.00    -0.000 C 
ATOM     14  C   UNL     1      32.991 -14.358 -22.776  0.00  0.00    -0.000 C 
ENDBRANCH   8   9
ENDBRANCH   1   8
TORSDOF 3
ENDMDL
MODEL 5
REMARK VINA RESULT:      -6.2      2.099      3.103
REMARK  Name = 4771
REMARK  3 active torsions:
REMARK  status: ('A' for Active; 'I' for Inactive)
REMARK    1  A    between atoms: C_1  and  N_4
REMARK    2  A    between atoms: C_1  and  C_8
REMARK    3  A    between atoms: C_8  and  C_9
REMARK                            x       y       z     vdW  Elec       q    Type
REMARK                         _______ _______ _______ _____ _____    ______ ____
ROOT
ATOM      1  C   UNL     1      34.065 -15.699 -21.586  0.00  0.00    -0.045 C 
ATOM      2  C   UNL     1      32.547 -15.613 -21.378  0.00  0.00    -0.022 C 
ATOM      3  C   UNL     1      34.781 -15.643 -20.229  0.00  0.00    -0.022 C 
ENDROOT
BRANCH   1   4
ATOM      4  N   UNL     1      34.469 -14.499 -22.340  0.00  0.00    +0.383 N 
ATOM      5  H   UNL     1      35.487 -14.427 -22.345  0.00  0.00    -0.089 HD
ATOM      6  H   UNL     1      34.072 -13.669 -21.898  0.00  0.00    -0.089 HD
ATOM      7  H   UNL     1      34.128 -14.569 -23.299  0.00  0.00    -0.089 HD
ENDBRANCH   1   4
BRANCH   1   8
ATOM      8  C   UNL     1      34.476 -16.941 -22.419  0.00  0.00    +0.006 C 
BRANCH   8   9
ATOM      9  C   UNL     1      34.754 -18.207 -21.641  0.00  0.00    -0.024 C 
ATOM     10  C   UNL     1      33.692 -18.988 -21.214  0.00  0.00    -0.004 C 
ATOM     11  C   UNL     1      36.065 -18.562 -21.370  0.00  0.00    -0.004 C 
ATOM     12  C   UNL     1      33.949 -20.156 -20.496  0.00  0.00    -0.000 C 
ATOM     13  C   UNL     1      36.322 -19.730 -20.652  0.00  0.00    -0.000 C 
ATOM     14  C   UNL     1      35.264 -20.527 -20.216  0.00  0.00    -0.000 C 
ENDBRANCH   8   9
ENDBRANCH   1   8
TORSDOF 3
ENDMDL
MODEL 6
REMARK VINA RESULT:      -6.1      2.301      4.805
REMARK  Name = 4771
REMARK  3 active torsions:
REMARK  status: ('A' for Active; 'I' for Inactive)
REMARK    1  A    between atoms: C_1  and  N_4
REMARK    2  A    between atoms: C_1  and  C_8
REMARK    3  A    between atoms: C_8  and  C_9
REMARK                            x       y       z     vdW  Elec       q    Type
REMARK                         _______ _______ _______ _____ _____    ______ ____
ROOT
ATOM      1  C   UNL     1      34.775 -18.980 -21.423  0.00  0.00    -0.045 C 
ATOM      2  C   UNL     1      34.762 -19.199 -22.942  0.00  0.00    -0.022 C 
ATOM      3  C   UNL     1      35.638 -20.055 -20.749  0.00  0.00    -0.022 C 
ENDROOT
BRANCH   1   4
ATOM      4  N   UNL     1      33.394 -19.169 -20.945  0.00  0.00    +0.383 N 
ATOM      5  H   UNL     1      33.275 -18.691 -20.051  0.00  0.00    -0.089 HD
ATOM      6  H   UNL     1      33.208 -20.165 -20.825  0.00  0.00    -0.089 HD
ATOM      7  H   UNL     1      32.743 -18.781 -21.627  0.00  0.00    -0.089 HD
ENDBRANCH   1   4
BRANCH   1   8
ATOM      8  C   UNL     1      35.217 -17.543 -21.039  0.00  0.00    +0.006 C 
BRANCH   8   9
ATOM      9  C   UNL     1      34.426 -16.412 -21.655  0.00  0.00    -0.024 C 
ATOM     10  C   UNL     1      34.837 -15.878 -22.865  0.00  0.00    -0.004 C 
ATOM     11  C   UNL     1      33.306 -15.932 -20.997  0.00  0.00    -0.004 C 
ATOM     12  C   UNL     1      34.107 -14.834 -23.433  0.00  0.00    -0.000 C 
ATOM     13  C   UNL     1      32.576 -14.887 -21.565  0.00  0.00    -0.000 C 
ATOM     14  C   UNL     1      32.976 -14.339 -22.784  0.00  0.00    -0.000 C 
ENDBRANCH   8   9
ENDBRANCH   1   8
TORSDOF 3
ENDMDL
MODEL 7
REMARK VINA RESULT:      -5.9      2.635      4.033
REMARK  Name = 4771
REMARK  3 active torsions:
REMARK  status: ('A' for Active; 'I' for Inactive)
REMARK    1  A    between atoms: C_1  and  N_4
REMARK    2  A    between atoms: C_1  and  C_8
REMARK    3  A    between atoms: C_8  and  C_9
REMARK                            x       y       z     vdW  Elec       q    Type
REMARK                         _______ _______ _______ _____ _____    ______ ____
ROOT
ATOM      1  C   UNL     1      33.713 -14.389 -23.338  0.00  0.00    -0.045 C 
ATOM      2  C   UNL     1      33.294 -14.976 -24.693  0.00  0.00    -0.022 C 
ATOM      3  C   UNL     1      32.504 -14.344 -22.394  0.00  0.00    -0.022 C 
ENDROOT
BRANCH   1   4
ATOM      4  N   UNL     1      34.131 -12.996 -23.577  0.00  0.00    +0.383 N 
ATOM      5  H   UNL     1      33.576 -12.601 -24.336  0.00  0.00    -0.089 HD
ATOM      6  H   UNL     1      35.119 -12.977 -23.832  0.00  0.00    -0.089 HD
ATOM      7  H   UNL     1      33.988 -12.449 -22.729  0.00  0.00    -0.089 HD
ENDBRANCH   1   4
BRANCH   1   8
ATOM      8  C   UNL     1      34.918 -15.145 -22.717  0.00  0.00    +0.006 C 
BRANCH   8   9
ATOM      9  C   UNL     1      34.775 -16.644 -22.591  0.00  0.00    -0.024 C 
ATOM     10  C   UNL     1      34.360 -17.187 -21.385  0.00  0.00    -0.004 C 
ATOM     11  C   UNL     1      35.063 -17.446 -23.682  0.00  0.00    -0.004 C 
ATOM     12  C   UNL     1      34.229 -18.571 -21.270  0.00  0.00    -0.000 C 
ATOM     13  C   UNL     1      34.932 -18.830 -23.567  0.00  0.00    -0.000 C 
ATOM     14  C   UNL     1      34.515 -19.392 -22.360  0.00  0.00    -0.000 C 
ENDBRANCH   8   9
ENDBRANCH   1   8
TORSDOF 3
ENDMDL
MODEL 8
REMARK VINA RESULT:      -5.9      1.834      5.037
REMARK  Name = 4771
REMARK  3 active torsions:
REMARK  status: ('A' for Active; 'I' for Inactive)
REMARK    1  A    between atoms: C_1  and  N_4
REMARK    2  A    between atoms: C_1  and  C_8
REMARK    3  A    between atoms: C_8  and  C_9
REMARK                            x       y       z     vdW  Elec       q    Type
REMARK                         _______ _______ _______ _____ _____    ______ ____
ROOT
ATOM      1  C   UNL     1      35.432 -18.683 -21.404  0.00  0.00    -0.045 C 
ATOM      2  C   UNL     1      34.042 -19.328 -21.491  0.00  0.00    -0.022 C 
ATOM      3  C   UNL     1      36.394 -19.619 -20.659  0.00  0.00    -0.022 C 
ENDROOT
BRANCH   1   4
ATOM      4  N   UNL     1      35.295 -17.462 -20.590  0.00  0.00    +0.383 N 
ATOM      5  H   UNL     1      35.658 -17.636 -19.653  0.00  0.00    -0.089 HD
ATOM      6  H   UNL     1      34.310 -17.202 -20.531  0.00  0.00    -0.089 HD
ATOM      7  H   UNL     1      35.821 -16.704 -21.024  0.00  0.00    -0.089 HD
ENDBRANCH   1   4
BRANCH   1   8
ATOM      8  C   UNL     1      35.976 -18.265 -22.796  0.00  0.00    +0.006 C 
BRANCH   8   9
ATOM      9  C   UNL     1      35.154 -17.253 -23.560  0.00  0.00    -0.024 C 
ATOM     10  C   UNL     1      34.659 -17.586 -24.810  0.00  0.00    -0.004 C 
ATOM     11  C   UNL     1      34.912 -16.012 -22.995  0.00  0.00    -0.004 C 
ATOM     12  C   UNL     1      33.900 -16.652 -25.515  0.00  0.00    -0.000 C 
ATOM     13  C   UNL     1      34.154 -15.077 -23.700  0.00  0.00    -0.000 C 
ATOM     14  C   UNL     1      33.647 -15.398 -24.960  0.00  0.00    -0.000 C 
ENDBRANCH   8   9
ENDBRANCH   1   8
TORSDOF 3
ENDMDL
MODEL 9
REMARK VINA RESULT:      -5.9      1.670      3.176
REMARK  Name = 4771
REMARK  3 active torsions:
REMARK  status: ('A' for Active; 'I' for Inactive)
REMARK    1  A    between atoms: C_1  and  N_4
REMARK    2  A    between atoms: C_1  and  C_8
REMARK    3  A    between atoms: C_8  and  C_9
REMARK                            x       y       z     vdW  Elec       q    Type
REMARK                         _______ _______ _______ _____ _____    ______ ____
ROOT
ATOM      1  C   UNL     1      34.885 -19.627 -21.219  0.00  0.00    -0.045 C 
ATOM      2  C   UNL     1      34.807 -19.335 -22.724  0.00  0.00    -0.022 C 
ATOM      3  C   UNL     1      33.470 -19.695 -20.629  0.00  0.00    -0.022 C 
ENDROOT
BRANCH   1   4
ATOM      4  N   UNL     1      35.564 -18.481 -20.589  0.00  0.00    +0.383 N 
ATOM      5  H   UNL     1      35.424 -18.516 -19.579  0.00  0.00    -0.089 HD
ATOM      6  H   UNL     1      35.176 -17.611 -20.956  0.00  0.00    -0.089 HD
ATOM      7  H   UNL     1      36.562 -18.522 -20.796  0.00  0.00    -0.089 HD
ENDBRANCH   1   4
BRANCH   1   8
ATOM      8  C   UNL     1      35.716 -20.899 -20.908  0.00  0.00    +0.006 C 
BRANCH   8   9
ATOM      9  C   UNL     1      35.498 -21.526 -19.551  0.00  0.00    -0.024 C 
ATOM     10  C   UNL     1      34.306 -22.182 -19.289  0.00  0.00    -0.004 C 
ATOM     11  C   UNL     1      36.495 -21.433 -18.594  0.00  0.00    -0.004 C 
ATOM     12  C   UNL     1      34.106 -22.760 -18.036  0.00  0.00    -0.000 C 
ATOM     13  C   UNL     1      36.295 -22.012 -17.340  0.00  0.00    -0.000 C 
ATOM     14  C   UNL     1      35.100 -22.676 -17.062  0.00  0.00    -0.000 C 
ENDBRANCH   8   9
ENDBRANCH   1   8
TORSDOF 3
ENDMDL
