MODEL 1
REMARK VINA RESULT:      -6.7      0.000      0.000
REMARK  Name = 983
REMARK  9 active torsions:
REMARK  status: ('A' for Active; 'I' for Inactive)
REMARK    1  A    between atoms: P_1  and  O_3
REMARK    2  A    between atoms: P_1  and  O_5
REMARK    3  A    between atoms: P_1  and  O_12
REMARK    4  A    between atoms: O_5  and  P_6
REMARK    5  A    between atoms: P_6  and  O_8
REMARK    6  A    between atoms: P_6  and  O_10
REMARK    7  A    between atoms: O_12  and  P_13
REMARK    8  A    between atoms: P_13  and  O_15
REMARK    9  A    between atoms: P_13  and  O_17
REMARK                            x       y       z     vdW  Elec       q    Type
REMARK                         _______ _______ _______ _____ _____    ______ ____
ROOT
ATOM      1  P   UNL     1      37.260 -26.300 -15.031  0.00  0.00    +0.492 P 
ATOM      2  O   UNL     1      36.676 -27.241 -16.042  0.00  0.00    -0.226 OA
ENDROOT
BRANCH   1   3
ATOM      3  O   UNL     1      37.501 -24.792 -15.560  0.00  0.00    -0.302 OA
ATOM      4  H   UNL     1      36.753 -24.520 -16.115  0.00  0.00    +0.222 HD
ENDBRANCH   1   3
BRANCH   1   5
ATOM      5  O   UNL     1      38.697 -26.729 -14.436  0.00  0.00    -0.186 OA
BRANCH   5   6
ATOM      6  P   UNL     1      40.148 -26.026 -14.542  0.00  0.00    +0.481 P 
ATOM      7  O   UNL     1      41.286 -26.831 -13.987  0.00  0.00    -0.227 OA
BRANCH   6   8
ATOM      8  O   UNL     1      40.277 -25.662 -16.111  0.00  0.00    -0.302 OA
ATOM      9  H   UNL     1      39.442 -25.279 -16.425  0.00  0.00    +0.222 HD
ENDBRANCH   6   8
BRANCH   6  10
ATOM     10  O   UNL     1      39.918 -24.586 -13.845  0.00  0.00    -0.302 OA
ATOM     11  H   UNL     1      39.844 -24.700 -12.884  0.00  0.00    +0.222 HD
ENDBRANCH   6  10
ENDBRANCH   5   6
ENDBRANCH   1   5
BRANCH   1  12
ATOM     12  O   UNL     1      36.359 -26.083 -13.707  0.00  0.00    -0.186 OA
BRANCH  12  13
ATOM     13  P   UNL     1      36.562 -25.104 -12.438  0.00  0.00    +0.481 P 
ATOM     14  O   UNL     1      35.366 -24.962 -11.545  0.00  0.00    -0.227 OA
BRANCH  13  15
ATOM     15  O   UNL     1      37.074 -23.725 -13.109  0.00  0.00    -0.302 OA
ATOM     16  H   UNL     1      37.874 -23.895 -13.629  0.00  0.00    +0.222 HD
ENDBRANCH  13  15
BRANCH  13  17
ATOM     17  O   UNL     1      37.891 -25.685 -11.725  0.00  0.00    -0.302 OA
ATOM     18  H   UNL     1      37.757 -25.711 -10.764  0.00  0.00    +0.222 HD
ENDBRANCH  13  17
ENDBRANCH  12  13
ENDBRANCH   1  12
TORSDOF 9
ENDMDL
MODEL 2
REMARK VINA RESULT:      -6.7      1.062      4.304
REMARK  Name = 983
REMARK  9 active torsions:
REMARK  status: ('A' for Active; 'I' for Inactive)
REMARK    1  A    between atoms: P_1  and  O_3
REMARK    2  A    between atoms: P_1  and  O_5
REMARK    3  A    between atoms: P_1  and  O_12
REMARK    4  A    between atoms: O_5  and  P_6
REMARK    5  A    between atoms: P_6  and  O_8
REMARK    6  A    between atoms: P_6  and  O_10
REMARK    7  A    between atoms: O_12  and  P_13
REMARK    8  A    between atoms: P_13  and  O_15
REMARK    9  A    between atoms: P_13  and  O_17
REMARK                            x       y       z     vdW  Elec       q    Type
REMARK                         _______ _______ _______ _____ _____    ______ ____
ROOT
ATOM      1  P   UNL     1      37.614 -24.062 -14.720  0.00  0.00    +0.492 P 
ATOM      2  O   UNL     1      37.806 -22.758 -15.435  0.00  0.00    -0.226 OA
ENDROOT
BRANCH   1   3
ATOM      3  O   UNL     1      37.024 -25.261 -15.631  0.00  0.00    -0.302 OA
ATOM      4  H   UNL     1      37.693 -25.532 -16.280  0.00  0.00    +0.222 HD
ENDBRANCH   1   3
BRANCH   1   5
ATOM      5  O   UNL     1      36.611 -24.017 -13.456  0.00  0.00    -0.186 OA
BRANCH   5   6
ATOM      6  P   UNL     1      36.475 -24.983 -12.169  0.00  0.00    +0.481 P 
ATOM      7  O   UNL     1      35.193 -24.843 -11.402  0.00  0.00    -0.227 OA
BRANCH   6   8
ATOM      8  O   UNL     1      36.744 -26.458 -12.774  0.00  0.00    -0.302 OA
ATOM      9  H   UNL     1      36.959 -26.386 -13.718  0.00  0.00    +0.222 HD
ENDBRANCH   6   8
BRANCH   6  10
ATOM     10  O   UNL     1      37.819 -24.677 -11.326  0.00  0.00    -0.302 OA
ATOM     11  H   UNL     1      38.540 -24.455 -11.936  0.00  0.00    +0.222 HD
ENDBRANCH   6  10
ENDBRANCH   5   6
ENDBRANCH   1   5
BRANCH   1  12
ATOM     12  O   UNL     1      38.962 -24.703 -14.102  0.00  0.00    -0.186 OA
BRANCH  12  13
ATOM     13  P   UNL     1      39.847 -25.967 -14.579  0.00  0.00    +0.481 P 
ATOM     14  O   UNL     1      41.053 -26.255 -13.734  0.00  0.00    -0.227 OA
BRANCH  13  15
ATOM     15  O   UNL     1      40.170 -25.634 -16.128  0.00  0.00    -0.302 OA
ATOM     16  H   UNL     1      39.392 -25.229 -16.540  0.00  0.00    +0.222 HD
ENDBRANCH  13  15
BRANCH  13  17
ATOM     17  O   UNL     1      38.769 -27.167 -14.673  0.00  0.00    -0.302 OA
ATOM     18  H   UNL     1      38.252 -27.073 -15.489  0.00  0.00    +0.222 HD
ENDBRANCH  13  17
ENDBRANCH  12  13
ENDBRANCH   1  12
TORSDOF 9
ENDMDL
MODEL 3
REMARK VINA RESULT:      -6.5      0.449      1.653
REMARK  Name = 983
REMARK  9 active torsions:
REMARK  status: ('A' for Active; 'I' for Inactive)
REMARK    1  A    between atoms: P_1  and  O_3
REMARK    2  A    between atoms: P_1  and  O_5
REMARK    3  A    between atoms: P_1  and  O_12
REMARK    4  A    between atoms: O_5  and  P_6
REMARK    5  A    between atoms: P_6  and  O_8
REMARK    6  A    between atoms: P_6  and  O_10
REMARK    7  A    between atoms: O_12  and  P_13
REMARK    8  A    between atoms: P_13  and  O_15
REMARK    9  A    between atoms: P_13  and  O_17
REMARK                            x       y       z     vdW  Elec       q    Type
REMARK                         _______ _______ _______ _____ _____    ______ ____
ROOT
ATOM      1  P   UNL     1      37.275 -26.190 -14.797  0.00  0.00    +0.492 P 
ATOM      2  O   UNL     1      36.536 -27.095 -15.737  0.00  0.00    -0.226 OA
ENDROOT
BRANCH   1   3
ATOM      3  O   UNL     1      37.472 -24.673 -15.321  0.00  0.00    -0.302 OA
ATOM      4  H   UNL     1      37.272 -24.631 -16.269  0.00  0.00    +0.222 HD
ENDBRANCH   1   3
BRANCH   1   5
ATOM      5  O   UNL     1      38.772 -26.659 -14.418  0.00  0.00    -0.186 OA
BRANCH   5   6
ATOM      6  P   UNL     1      40.191 -25.899 -14.544  0.00  0.00    +0.481 P 
ATOM      7  O   UNL     1      40.286 -24.603 -13.795  0.00  0.00    -0.227 OA
BRANCH   6   8
ATOM      8  O   UNL     1      41.263 -27.022 -14.093  0.00  0.00    -0.302 OA
ATOM      9  H   UNL     1      42.113 -26.851 -14.529  0.00  0.00    +0.222 HD
ENDBRANCH   6   8
BRANCH   6  10
ATOM     10  O   UNL     1      40.418 -25.790 -16.141  0.00  0.00    -0.302 OA
ATOM     11  H   UNL     1      40.871 -26.587 -16.457  0.00  0.00    +0.222 HD
ENDBRANCH   6  10
ENDBRANCH   5   6
ENDBRANCH   1   5
BRANCH   1  12
ATOM     12  O   UNL     1      36.572 -25.989 -13.356  0.00  0.00    -0.186 OA
BRANCH  12  13
ATOM     13  P   UNL     1      36.649 -24.767 -12.303  0.00  0.00    +0.481 P 
ATOM     14  O   UNL     1      36.327 -23.416 -12.870  0.00  0.00    -0.227 OA
BRANCH  13  15
ATOM     15  O   UNL     1      38.135 -24.902 -11.681  0.00  0.00    -0.302 OA
ATOM     16  H   UNL     1      38.725 -25.306 -12.337  0.00  0.00    +0.222 HD
ENDBRANCH  13  15
BRANCH  13  17
ATOM     17  O   UNL     1      35.695 -25.252 -11.093  0.00  0.00    -0.302 OA
ATOM     18  H   UNL     1      36.229 -25.387 -10.294  0.00  0.00    +0.222 HD
ENDBRANCH  13  17
ENDBRANCH  12  13
ENDBRANCH   1  12
TORSDOF 9
ENDMDL
MODEL 4
REMARK VINA RESULT:      -6.5      1.185      4.334
REMARK  Name = 983
REMARK  9 active torsions:
REMARK  status: ('A' for Active; 'I' for Inactive)
REMARK    1  A    between atoms: P_1  and  O_3
REMARK    2  A    between atoms: P_1  and  O_5
REMARK    3  A    between atoms: P_1  and  O_12
REMARK    4  A    between atoms: O_5  and  P_6
REMARK    5  A    between atoms: P_6  and  O_8
REMARK    6  A    between atoms: P_6  and  O_10
REMARK    7  A    between atoms: O_12  and  P_13
REMARK    8  A    between atoms: P_13  and  O_15
REMARK    9  A    between atoms: P_13  and  O_17
REMARK                            x       y       z     vdW  Elec       q    Type
REMARK                         _______ _______ _______ _____ _____    ______ ____
ROOT
ATOM      1  P   UNL     1      37.499 -25.662 -14.094  0.00  0.00    +0.492 P 
ATOM      2  O   UNL     1      36.955 -25.766 -15.487  0.00  0.00    -0.226 OA
ENDROOT
BRANCH   1   3
ATOM      3  O   UNL     1      36.558 -26.301 -12.944  0.00  0.00    -0.302 OA
ATOM      4  H   UNL     1      36.593 -25.742 -12.151  0.00  0.00    +0.222 HD
ENDBRANCH   1   3
BRANCH   1   5
ATOM      5  O   UNL     1      37.774 -24.160 -13.570  0.00  0.00    -0.186 OA
BRANCH   5   6
ATOM      6  P   UNL     1      37.364 -23.420 -12.194  0.00  0.00    +0.481 P 
ATOM      7  O   UNL     1      38.058 -22.114 -11.944  0.00  0.00    -0.227 OA
BRANCH   6   8
ATOM      8  O   UNL     1      35.752 -23.324 -12.282  0.00  0.00    -0.302 OA
ATOM      9  H   UNL     1      35.370 -24.211 -12.183  0.00  0.00    +0.222 HD
ENDBRANCH   6   8
BRANCH   6  10
ATOM     10  O   UNL     1      37.607 -24.555 -11.070  0.00  0.00    -0.302 OA
ATOM     11  H   UNL     1      36.891 -24.521 -10.416  0.00  0.00    +0.222 HD
ENDBRANCH   6  10
ENDBRANCH   5   6
ENDBRANCH   1   5
BRANCH   1  12
ATOM     12  O   UNL     1      38.915 -26.403 -13.860  0.00  0.00    -0.186 OA
BRANCH  12  13
ATOM     13  P   UNL     1      40.391 -26.066 -14.423  0.00  0.00    +0.481 P 
ATOM     14  O   UNL     1      41.457 -27.051 -14.044  0.00  0.00    -0.227 OA
BRANCH  13  15
ATOM     15  O   UNL     1      40.651 -24.556 -13.909  0.00  0.00    -0.302 OA
ATOM     16  H   UNL     1      39.959 -23.972 -14.256  0.00  0.00    +0.222 HD
ENDBRANCH  13  15
BRANCH  13  17
ATOM     17  O   UNL     1      40.155 -25.883 -16.011  0.00  0.00    -0.302 OA
ATOM     18  H   UNL     1      39.315 -26.299 -16.263  0.00  0.00    +0.222 HD
ENDBRANCH  13  17
ENDBRANCH  12  13
ENDBRANCH   1  12
TORSDOF 9
ENDMDL
MODEL 5
REMARK VINA RESULT:      -6.4      1.620      2.984
REMARK  Name = 983
REMARK  9 active torsions:
REMARK  status: ('A' for Active; 'I' for Inactive)
REMARK    1  A    between atoms: P_1  and  O_3
REMARK    2  A    between atoms: P_1  and  O_5
REMARK    3  A    between atoms: P_1  and  O_12
REMARK    4  A    between atoms: O_5  and  P_6
REMARK    5  A    between atoms: P_6  and  O_8
REMARK    6  A    between atoms: P_6  and  O_10
REMARK    7  A    between atoms: O_12  and  P_13
REMARK    8  A    between atoms: P_13  and  O_15
REMARK    9  A    between atoms: P_13  and  O_17
REMARK                            x       y       z     vdW  Elec       q    Type
REMARK                         _______ _______ _______ _____ _____    ______ ____
ROOT
ATOM      1  P   UNL     1      37.632 -25.129 -12.577  0.00  0.00    +0.492 P 
ATOM      2  O   UNL     1      37.661 -24.535 -11.201  0.00  0.00    -0.226 OA
ENDROOT
BRANCH   1   3
ATOM      3  O   UNL     1      36.880 -26.555 -12.692  0.00  0.00    -0.302 OA
ATOM      4  H   UNL     1      35.990 -26.482 -12.312  0.00  0.00    +0.222 HD
ENDBRANCH   1   3
BRANCH   1   5
ATOM      5  O   UNL     1      39.077 -25.406 -13.241  0.00  0.00    -0.186 OA
BRANCH   5   6
ATOM      6  P   UNL     1      39.523 -25.603 -14.781  0.00  0.00    +0.481 P 
ATOM      7  O   UNL     1      40.891 -26.185 -14.977  0.00  0.00    -0.227 OA
BRANCH   6   8
ATOM      8  O   UNL     1      38.318 -26.476 -15.414  0.00  0.00    -0.302 OA
ATOM      9  H   UNL     1      37.848 -26.941 -14.703  0.00  0.00    +0.222 HD
ENDBRANCH   6   8
BRANCH   6  10
ATOM     10  O   UNL     1      39.298 -24.138 -15.426  0.00  0.00    -0.302 OA
ATOM     11  H   UNL     1      39.722 -23.470 -14.865  0.00  0.00    +0.222 HD
ENDBRANCH   6  10
ENDBRANCH   5   6
ENDBRANCH   1   5
BRANCH   1  12
ATOM     12  O   UNL     1      36.880 -24.230 -13.689  0.00  0.00    -0.186 OA
BRANCH  12  13
ATOM     13  P   UNL     1      35.430 -24.398 -14.381  0.00  0.00    +0.481 P 
ATOM     14  O   UNL     1      34.946 -23.201 -15.146  0.00  0.00    -0.227 OA
BRANCH  13  15
ATOM     15  O   UNL     1      34.479 -24.843 -13.151  0.00  0.00    -0.302 OA
ATOM     16  H   UNL     1      34.489 -25.809 -13.068  0.00  0.00    +0.222 HD
ENDBRANCH  13  15
BRANCH  13  17
ATOM     17  O   UNL     1      35.580 -25.755 -15.245  0.00  0.00    -0.302 OA
ATOM     18  H   UNL     1      34.931 -26.408 -14.936  0.00  0.00    +0.222 HD
ENDBRANCH  13  17
ENDBRANCH  12  13
ENDBRANCH   1  12
TORSDOF 9
ENDMDL
MODEL 6
REMARK VINA RESULT:      -6.2      1.597      4.669
REMARK  Name = 983
REMARK  9 active torsions:
REMARK  status: ('A' for Active; 'I' for Inactive)
REMARK    1  A    between atoms: P_1  and  O_3
REMARK    2  A    between atoms: P_1  and  O_5
REMARK    3  A    between atoms: P_1  and  O_12
REMARK    4  A    between atoms: O_5  and  P_6
REMARK    5  A    between atoms: P_6  and  O_8
REMARK    6  A    between atoms: P_6  and  O_10
REMARK    7  A    between atoms: O_12  and  P_13
REMARK    8  A    between atoms: P_13  and  O_15
REMARK    9  A    between atoms: P_13  and  O_17
REMARK                            x       y       z     vdW  Elec       q    Type
REMARK                         _______ _______ _______ _____ _____    ______ ____
ROOT
ATOM      1  P   UNL     1      37.965 -24.361 -12.472  0.00  0.00    +0.492 P 
ATOM      2  O   UNL     1      37.298 -25.457 -11.697  0.00  0.00    -0.226 OA
ENDROOT
BRANCH   1   3
ATOM      3  O   UNL     1      38.393 -23.069 -11.599  0.00  0.00    -0.302 OA
ATOM      4  H   UNL     1      39.082 -22.574 -12.070  0.00  0.00    +0.222 HD
ENDBRANCH   1   3
BRANCH   1   5
ATOM      5  O   UNL     1      37.092 -23.735 -13.676  0.00  0.00    -0.186 OA
BRANCH   5   6
ATOM      6  P   UNL     1      35.677 -24.185 -14.313  0.00  0.00    +0.481 P 
ATOM      7  O   UNL     1      35.777 -25.068 -15.521  0.00  0.00    -0.227 OA
BRANCH   6   8
ATOM      8  O   UNL     1      34.890 -24.838 -13.061  0.00  0.00    -0.302 OA
ATOM      9  H   UNL     1      33.946 -24.911 -13.275  0.00  0.00    +0.222 HD
ENDBRANCH   6   8
BRANCH   6  10
ATOM     10  O   UNL     1      34.907 -22.783 -14.545  0.00  0.00    -0.302 OA
ATOM     11  H   UNL     1      34.129 -22.932 -15.106  0.00  0.00    +0.222 HD
ENDBRANCH   6  10
ENDBRANCH   5   6
ENDBRANCH   1   5
BRANCH   1  12
ATOM     12  O   UNL     1      39.346 -24.785 -13.196  0.00  0.00    -0.186 OA
BRANCH  12  13
ATOM     13  P   UNL     1      39.630 -25.365 -14.676  0.00  0.00    +0.481 P 
ATOM     14  O   UNL     1      41.008 -25.917 -14.890  0.00  0.00    -0.227 OA
BRANCH  13  15
ATOM     15  O   UNL     1      39.239 -24.129 -15.642  0.00  0.00    -0.302 OA
ATOM     16  H   UNL     1      39.358 -24.392 -16.568  0.00  0.00    +0.222 HD
ENDBRANCH  13  15
BRANCH  13  17
ATOM     17  O   UNL     1      38.423 -26.414 -14.907  0.00  0.00    -0.302 OA
ATOM     18  H   UNL     1      37.633 -26.108 -14.432  0.00  0.00    +0.222 HD
ENDBRANCH  13  17
ENDBRANCH  12  13
ENDBRANCH   1  12
TORSDOF 9
ENDMDL
MODEL 7
REMARK VINA RESULT:      -6.2      1.756      3.917
REMARK  Name = 983
REMARK  9 active torsions:
REMARK  status: ('A' for Active; 'I' for Inactive)
REMARK    1  A    between atoms: P_1  and  O_3
REMARK    2  A    between atoms: P_1  and  O_5
REMARK    3  A    between atoms: P_1  and  O_12
REMARK    4  A    between atoms: O_5  and  P_6
REMARK    5  A    between atoms: P_6  and  O_8
REMARK    6  A    between atoms: P_6  and  O_10
REMARK    7  A    between atoms: O_12  and  P_13
REMARK    8  A    between atoms: P_13  and  O_15
REMARK    9  A    between atoms: P_13  and  O_17
REMARK                            x       y       z     vdW  Elec       q    Type
REMARK                         _______ _______ _______ _____ _____    ______ ____
ROOT
ATOM      1  P   UNL     1      36.667 -23.528 -14.909  0.00  0.00    +0.492 P 
ATOM      2  O   UNL     1      37.987 -23.026 -15.412  0.00  0.00    -0.226 OA
ENDROOT
BRANCH   1   3
ATOM      3  O   UNL     1      35.372 -22.776 -15.521  0.00  0.00    -0.302 OA
ATOM      4  H   UNL     1      34.992 -22.189 -14.849  0.00  0.00    +0.222 HD
ENDBRANCH   1   3
BRANCH   1   5
ATOM      5  O   UNL     1      36.449 -23.423 -13.314  0.00  0.00    -0.186 OA
BRANCH   5   6
ATOM      6  P   UNL     1      37.487 -23.575 -12.085  0.00  0.00    +0.481 P 
ATOM      7  O   UNL     1      36.939 -24.269 -10.873  0.00  0.00    -0.227 OA
BRANCH   6   8
ATOM      8  O   UNL     1      38.767 -24.296 -12.758  0.00  0.00    -0.302 OA
ATOM      9  H   UNL     1      39.564 -24.083 -12.247  0.00  0.00    +0.222 HD
ENDBRANCH   6   8
BRANCH   6  10
ATOM     10  O   UNL     1      38.000 -22.062 -11.839  0.00  0.00    -0.302 OA
ATOM     11  H   UNL     1      37.257 -21.512 -11.546  0.00  0.00    +0.222 HD
ENDBRANCH   6  10
ENDBRANCH   5   6
ENDBRANCH   1   5
BRANCH   1  12
ATOM     12  O   UNL     1      36.367 -25.084 -15.224  0.00  0.00    -0.186 OA
BRANCH  12  13
ATOM     13  P   UNL     1      37.285 -26.398 -15.029  0.00  0.00    +0.481 P 
ATOM     14  O   UNL     1      37.211 -27.031 -13.671  0.00  0.00    -0.227 OA
BRANCH  13  15
ATOM     15  O   UNL     1      38.759 -25.892 -15.460  0.00  0.00    -0.302 OA
ATOM     16  H   UNL     1      38.753 -24.928 -15.561  0.00  0.00    +0.222 HD
ENDBRANCH  13  15
BRANCH  13  17
ATOM     17  O   UNL     1      36.845 -27.350 -16.258  0.00  0.00    -0.302 OA
ATOM     18  H   UNL     1      36.679 -26.807 -17.045  0.00  0.00    +0.222 HD
ENDBRANCH  13  17
ENDBRANCH  12  13
ENDBRANCH   1  12
TORSDOF 9
ENDMDL
MODEL 8
REMARK VINA RESULT:      -6.1      1.633      4.532
REMARK  Name = 983
REMARK  9 active torsions:
REMARK  status: ('A' for Active; 'I' for Inactive)
REMARK    1  A    between atoms: P_1  and  O_3
REMARK    2  A    between atoms: P_1  and  O_5
REMARK    3  A    between atoms: P_1  and  O_12
REMARK    4  A    between atoms: O_5  and  P_6
REMARK    5  A    between atoms: P_6  and  O_8
REMARK    6  A    between atoms: P_6  and  O_10
REMARK    7  A    between atoms: O_12  and  P_13
REMARK    8  A    between atoms: P_13  and  O_15
REMARK    9  A    between atoms: P_13  and  O_17
REMARK                            x       y       z     vdW  Elec       q    Type
REMARK                         _______ _______ _______ _____ _____    ______ ____
ROOT
ATOM      1  P   UNL     1      37.568 -25.099 -12.605  0.00  0.00    +0.492 P 
ATOM      2  O   UNL     1      37.095 -26.517 -12.490  0.00  0.00    -0.226 OA
ENDROOT
BRANCH   1   3
ATOM      3  O   UNL     1      37.703 -24.307 -11.202  0.00  0.00    -0.302 OA
ATOM      4  H   UNL     1      37.416 -23.388 -11.321  0.00  0.00    +0.222 HD
ENDBRANCH   1   3
BRANCH   1   5
ATOM      5  O   UNL     1      36.640 -24.130 -13.501  0.00  0.00    -0.186 OA
BRANCH   5   6
ATOM      6  P   UNL     1      35.523 -24.461 -14.620  0.00  0.00    +0.481 P 
ATOM      7  O   UNL     1      34.128 -24.032 -14.272  0.00  0.00    -0.227 OA
BRANCH   6   8
ATOM      8  O   UNL     1      36.123 -23.790 -15.963  0.00  0.00    -0.302 OA
ATOM      9  H   UNL     1      36.972 -24.206 -16.181  0.00  0.00    +0.222 HD
ENDBRANCH   6   8
BRANCH   6  10
ATOM     10  O   UNL     1      35.711 -26.045 -14.882  0.00  0.00    -0.302 OA
ATOM     11  H   UNL     1      34.941 -26.387 -15.363  0.00  0.00    +0.222 HD
ENDBRANCH   6  10
ENDBRANCH   5   6
ENDBRANCH   1   5
BRANCH   1  12
ATOM     12  O   UNL     1      39.033 -24.924 -13.264  0.00  0.00    -0.186 OA
BRANCH  12  13
ATOM     13  P   UNL     1      39.571 -25.255 -14.750  0.00  0.00    +0.481 P 
ATOM     14  O   UNL     1      41.037 -25.561 -14.844  0.00  0.00    -0.227 OA
BRANCH  13  15
ATOM     15  O   UNL     1      39.091 -23.976 -15.614  0.00  0.00    -0.302 OA
ATOM     16  H   UNL     1      38.393 -24.246 -16.232  0.00  0.00    +0.222 HD
ENDBRANCH  13  15
BRANCH  13  17
ATOM     17  O   UNL     1      38.587 -26.434 -15.253  0.00  0.00    -0.302 OA
ATOM     18  H   UNL     1      38.910 -27.287 -14.921  0.00  0.00    +0.222 HD
ENDBRANCH  13  17
ENDBRANCH  12  13
ENDBRANCH   1  12
TORSDOF 9
ENDMDL
MODEL 9
REMARK VINA RESULT:      -6.0      1.562      4.280
REMARK  Name = 983
REMARK  9 active torsions:
REMARK  status: ('A' for Active; 'I' for Inactive)
REMARK    1  A    between atoms: P_1  and  O_3
REMARK    2  A    between atoms: P_1  and  O_5
REMARK    3  A    between atoms: P_1  and  O_12
REMARK    4  A    between atoms: O_5  and  P_6
REMARK    5  A    between atoms: P_6  and  O_8
REMARK    6  A    between atoms: P_6  and  O_10
REMARK    7  A    between atoms: O_12  and  P_13
REMARK    8  A    between atoms: P_13  and  O_15
REMARK    9  A    between atoms: P_13  and  O_17
REMARK                            x       y       z     vdW  Elec       q    Type
REMARK                         _______ _______ _______ _____ _____    ______ ____
ROOT
ATOM      1  P   UNL     1      37.828 -25.377 -12.788  0.00  0.00    +0.492 P 
ATOM      2  O   UNL     1      37.017 -26.085 -11.744  0.00  0.00    -0.226 OA
ENDROOT
BRANCH   1   3
ATOM      3  O   UNL     1      38.409 -23.935 -12.341  0.00  0.00    -0.302 OA
ATOM      4  H   UNL     1      37.721 -23.443 -11.867  0.00  0.00    +0.222 HD
ENDBRANCH   1   3
BRANCH   1   5
ATOM      5  O   UNL     1      37.055 -25.064 -14.170  0.00  0.00    -0.186 OA
BRANCH   5   6
ATOM      6  P   UNL     1      36.648 -23.667 -14.871  0.00  0.00    +0.481 P 
ATOM      7  O   UNL     1      37.802 -22.835 -15.347  0.00  0.00    -0.227 OA
BRANCH   6   8
ATOM      8  O   UNL     1      35.611 -24.112 -16.028  0.00  0.00    -0.302 OA
ATOM      9  H   UNL     1      34.924 -23.434 -16.126  0.00  0.00    +0.222 HD
ENDBRANCH   6   8
BRANCH   6  10
ATOM     10  O   UNL     1      35.696 -22.959 -13.772  0.00  0.00    -0.302 OA
ATOM     11  H   UNL     1      35.825 -23.386 -12.911  0.00  0.00    +0.222 HD
ENDBRANCH   6  10
ENDBRANCH   5   6
ENDBRANCH   1   5
BRANCH   1  12
ATOM     12  O   UNL     1      39.150 -26.168 -13.273  0.00  0.00    -0.186 OA
BRANCH  12  13
ATOM     13  P   UNL     1      40.284 -25.772 -14.352  0.00  0.00    +0.481 P 
ATOM     14  O   UNL     1      40.924 -24.432 -14.142  0.00  0.00    -0.227 OA
BRANCH  13  15
ATOM     15  O   UNL     1      39.526 -25.945 -15.770  0.00  0.00    -0.302 OA
ATOM     16  H   UNL     1      38.668 -25.493 -15.735  0.00  0.00    +0.222 HD
ENDBRANCH  13  15
BRANCH  13  17
ATOM     17  O   UNL     1      41.294 -27.033 -14.316  0.00  0.00    -0.302 OA
ATOM     18  H   UNL     1      40.910 -27.770 -14.818  0.00  0.00    +0.222 HD
ENDBRANCH  13  17
ENDBRANCH  12  13
ENDBRANCH   1  12
TORSDOF 9
ENDMDL
