MODEL 1
REMARK VINA RESULT:     -11.0      0.000      0.000
REMARK  Name = 444695
REMARK  11 active torsions:
REMARK  status: ('A' for Active; 'I' for Inactive)
REMARK    1  A    between atoms: C_3  and  C_29
REMARK    2  A    between atoms: C_4  and  C_13
REMARK    3  A    between atoms: N_12  and  C_15
REMARK    4  A    between atoms: C_15  and  C_18
REMARK    5  A    between atoms: C_15  and  C_21
REMARK    6  A    between atoms: C_21  and  C_22
REMARK    7  A    between atoms: C_22  and  C_24
REMARK    8  A    between atoms: C_24  and  O_25
REMARK    9  A    between atoms: C_29  and  P_30
REMARK   10  A    between atoms: P_30  and  O_32
REMARK   11  A    between atoms: P_30  and  O_34
REMARK                            x       y       z     vdW  Elec       q    Type
REMARK                         _______ _______ _______ _____ _____    ______ ____
ROOT
ATOM      1  C   UNL     1      35.822 -21.362 -18.753  0.00  0.00    -0.000 C 
ATOM      2  C   UNL     1      34.636 -22.007 -18.324  0.00  0.00    +0.000 C 
ATOM      3  C   UNL     1      34.612 -20.426 -20.645  0.00  0.00    +0.049 C 
ATOM      4  C   UNL     1      35.845 -22.925 -16.458  0.00  0.00    +0.053 C 
ATOM      5  C   UNL     1      35.793 -20.575 -19.917  0.00  0.00    +0.002 C 
ATOM      6  C   UNL     1      34.666 -22.793 -17.160  0.00  0.00    +0.005 C 
ATOM      7  C   UNL     1      33.458 -21.844 -19.070  0.00  0.00    -0.000 C 
ATOM      8  C   UNL     1      37.000 -21.524 -18.008  0.00  0.00    +0.000 C 
ATOM      9  C   UNL     1      33.447 -21.059 -20.223  0.00  0.00    +0.002 C 
ATOM     10  C   UNL     1      37.010 -22.310 -16.855  0.00  0.00    +0.005 C 
ENDROOT
BRANCH   4  13
ATOM     11  O   UNL     1      34.904 -24.496 -14.994  0.00  0.00    -0.270 OA
ATOM     12  N   UNL     1      36.995 -23.660 -14.441  0.00  0.00    -0.295 N 
ATOM     13  C   UNL     1      35.859 -23.762 -15.231  0.00  0.00    +0.246 C 
ATOM     14  H   UNL     1      37.709 -23.041 -14.716  0.00  0.00    +0.150 HD
BRANCH  12  15
ATOM     15  C   UNL     1      37.168 -24.428 -13.231  0.00  0.00    +0.149 C 
BRANCH  15  18
ATOM     16  O   UNL     1      37.564 -22.889 -11.398  0.00  0.00    -0.274 OA
ATOM     17  N   UNL     1      35.397 -23.477 -11.882  0.00  0.00    -0.327 N 
ATOM     18  C   UNL     1      36.759 -23.511 -12.088  0.00  0.00    +0.237 C 
ATOM     19  H   UNL     1      35.021 -22.915 -11.166  0.00  0.00    +0.145 HD
ATOM     20  H   UNL     1      34.799 -24.015 -12.450  0.00  0.00    +0.145 HD
ENDBRANCH  15  18
BRANCH  15  21
ATOM     21  C   UNL     1      38.620 -24.894 -13.083  0.00  0.00    +0.041 C 
BRANCH  21  22
ATOM     22  C   UNL     1      39.053 -25.853 -14.194  0.00  0.00    +0.112 C 
BRANCH  22  24
ATOM     23  O   UNL     1      41.114 -24.582 -14.444  0.00  0.00    -0.250 OA
ATOM     24  C   UNL     1      40.300 -25.372 -14.901  0.00  0.00    +0.314 C 
BRANCH  24  25
ATOM     25  O   UNL     1      40.423 -25.937 -16.130  0.00  0.00    -0.480 OA
ATOM     26  H   UNL     1      40.790 -26.795 -16.217  0.00  0.00    +0.295 HD
ENDBRANCH  24  25
ENDBRANCH  22  24
ENDBRANCH  21  22
ENDBRANCH  15  21
ENDBRANCH  12  15
ENDBRANCH   4  13
BRANCH   3  29
ATOM     27  F   UNL     1      35.239 -20.139 -22.942  0.00  0.00    -0.187 F 
ATOM     28  F   UNL     1      33.363 -19.231 -22.314  0.00  0.00    -0.187 F 
ATOM     29  C   UNL     1      34.600 -19.587 -21.878  0.00  0.00    +0.372 C 
BRANCH  29  30
ATOM     30  P   UNL     1      35.395 -18.005 -21.835  0.00  0.00    +0.401 P 
ATOM     31  O   UNL     1      35.334 -17.309 -20.507  0.00  0.00    -0.252 OA
BRANCH  30  32
ATOM     32  O   UNL     1      34.713 -17.195 -23.057  0.00  0.00    -0.320 OA
ATOM     33  H   UNL     1      33.882 -17.628 -23.307  0.00  0.00    +0.220 HD
ENDBRANCH  30  32
BRANCH  30  34
ATOM     34  O   UNL     1      36.890 -18.297 -22.378  0.00  0.00    -0.320 OA
ATOM     35  H   UNL     1      36.988 -17.925 -23.268  0.00  0.00    +0.220 HD
ENDBRANCH  30  34
ENDBRANCH  29  30
ENDBRANCH   3  29
TORSDOF 11
ENDMDL
MODEL 2
REMARK VINA RESULT:     -10.9      0.954      1.694
REMARK  Name = 444695
REMARK  11 active torsions:
REMARK  status: ('A' for Active; 'I' for Inactive)
REMARK    1  A    between atoms: C_3  and  C_29
REMARK    2  A    between atoms: C_4  and  C_13
REMARK    3  A    between atoms: N_12  and  C_15
REMARK    4  A    between atoms: C_15  and  C_18
REMARK    5  A    between atoms: C_15  and  C_21
REMARK    6  A    between atoms: C_21  and  C_22
REMARK    7  A    between atoms: C_22  and  C_24
REMARK    8  A    between atoms: C_24  and  O_25
REMARK    9  A    between atoms: C_29  and  P_30
REMARK   10  A    between atoms: P_30  and  O_32
REMARK   11  A    between atoms: P_30  and  O_34
REMARK                            x       y       z     vdW  Elec       q    Type
REMARK                         _______ _______ _______ _____ _____    ______ ____
ROOT
ATOM      1  C   UNL     1      34.175 -21.876 -18.718  0.00  0.00    -0.000 C 
ATOM      2  C   UNL     1      35.486 -21.930 -18.185  0.00  0.00    +0.000 C 
ATOM      3  C   UNL     1      34.978 -20.442 -20.512  0.00  0.00    +0.049 C 
ATOM      4  C   UNL     1      34.677 -23.348 -16.417  0.00  0.00    +0.053 C 
ATOM      5  C   UNL     1      33.938 -21.127 -19.883  0.00  0.00    +0.002 C 
ATOM      6  C   UNL     1      35.722 -22.679 -17.020  0.00  0.00    +0.005 C 
ATOM      7  C   UNL     1      36.519 -21.234 -18.832  0.00  0.00    -0.000 C 
ATOM      8  C   UNL     1      33.142 -22.572 -18.072  0.00  0.00    +0.000 C 
ATOM      9  C   UNL     1      36.266 -20.495 -19.988  0.00  0.00    +0.002 C 
ATOM     10  C   UNL     1      33.395 -23.311 -16.916  0.00  0.00    +0.005 C 
ENDROOT
BRANCH   4  13
ATOM     11  O   UNL     1      34.006 -24.663 -14.596  0.00  0.00    -0.270 OA
ATOM     12  N   UNL     1      36.274 -24.228 -14.803  0.00  0.00    -0.295 N 
ATOM     13  C   UNL     1      34.944 -24.134 -15.185  0.00  0.00    +0.246 C 
ATOM     14  H   UNL     1      36.956 -23.766 -15.343  0.00  0.00    +0.150 HD
BRANCH  12  15
ATOM     15  C   UNL     1      36.696 -24.978 -13.643  0.00  0.00    +0.149 C 
BRANCH  15  18
ATOM     16  O   UNL     1      37.927 -22.962 -13.088  0.00  0.00    -0.274 OA
ATOM     17  N   UNL     1      37.225 -24.322 -11.374  0.00  0.00    -0.327 N 
ATOM     18  C   UNL     1      37.338 -23.971 -12.702  0.00  0.00    +0.237 C 
ATOM     19  H   UNL     1      37.607 -23.740 -10.677  0.00  0.00    +0.145 HD
ATOM     20  H   UNL     1      36.764 -25.154 -11.122  0.00  0.00    +0.145 HD
ENDBRANCH  15  18
BRANCH  15  21
ATOM     21  C   UNL     1      37.679 -26.085 -14.037  0.00  0.00    +0.041 C 
BRANCH  21  22
ATOM     22  C   UNL     1      39.141 -25.673 -13.857  0.00  0.00    +0.112 C 
BRANCH  22  24
ATOM     23  O   UNL     1      40.607 -25.950 -15.780  0.00  0.00    -0.250 OA
ATOM     24  C   UNL     1      39.784 -25.284 -15.168  0.00  0.00    +0.314 C 
BRANCH  24  25
ATOM     25  O   UNL     1      39.329 -24.081 -15.607  0.00  0.00    -0.480 OA
ATOM     26  H   UNL     1      39.932 -23.440 -15.926  0.00  0.00    +0.295 HD
ENDBRANCH  24  25
ENDBRANCH  22  24
ENDBRANCH  21  22
ENDBRANCH  15  21
ENDBRANCH  12  15
ENDBRANCH   4  13
BRANCH   3  29
ATOM     27  F   UNL     1      35.249 -20.173 -22.879  0.00  0.00    -0.187 F 
ATOM     28  F   UNL     1      33.391 -19.440 -22.012  0.00  0.00    -0.187 F 
ATOM     29  C   UNL     1      34.708 -19.652 -21.748  0.00  0.00    +0.372 C 
BRANCH  29  30
ATOM     30  P   UNL     1      35.329 -17.997 -21.848  0.00  0.00    +0.401 P 
ATOM     31  O   UNL     1      35.304 -17.239 -20.554  0.00  0.00    -0.252 OA
BRANCH  30  32
ATOM     32  O   UNL     1      34.464 -17.330 -23.041  0.00  0.00    -0.320 OA
ATOM     33  H   UNL     1      34.033 -16.523 -22.716  0.00  0.00    +0.220 HD
ENDBRANCH  30  32
BRANCH  30  34
ATOM     34  O   UNL     1      36.796 -18.163 -22.508  0.00  0.00    -0.320 OA
ATOM     35  H   UNL     1      36.746 -17.977 -23.458  0.00  0.00    +0.220 HD
ENDBRANCH  30  34
ENDBRANCH  29  30
ENDBRANCH   3  29
TORSDOF 11
ENDMDL
MODEL 3
REMARK VINA RESULT:     -10.6      4.887      6.630
REMARK  Name = 444695
REMARK  11 active torsions:
REMARK  status: ('A' for Active; 'I' for Inactive)
REMARK    1  A    between atoms: C_3  and  C_29
REMARK    2  A    between atoms: C_4  and  C_13
REMARK    3  A    between atoms: N_12  and  C_15
REMARK    4  A    between atoms: C_15  and  C_18
REMARK    5  A    between atoms: C_15  and  C_21
REMARK    6  A    between atoms: C_21  and  C_22
REMARK    7  A    between atoms: C_22  and  C_24
REMARK    8  A    between atoms: C_24  and  O_25
REMARK    9  A    between atoms: C_29  and  P_30
REMARK   10  A    between atoms: P_30  and  O_32
REMARK   11  A    between atoms: P_30  and  O_34
REMARK                            x       y       z     vdW  Elec       q    Type
REMARK                         _______ _______ _______ _____ _____    ______ ____
ROOT
ATOM      1  C   UNL     1      32.619 -23.550 -16.002  0.00  0.00    -0.000 C 
ATOM      2  C   UNL     1      33.073 -24.052 -14.759  0.00  0.00    +0.000 C 
ATOM      3  C   UNL     1      30.333 -24.094 -15.373  0.00  0.00    +0.049 C 
ATOM      4  C   UNL     1      35.329 -23.508 -15.395  0.00  0.00    +0.053 C 
ATOM      5  C   UNL     1      31.245 -23.578 -16.294  0.00  0.00    +0.002 C 
ATOM      6  C   UNL     1      34.447 -24.023 -14.468  0.00  0.00    +0.005 C 
ATOM      7  C   UNL     1      32.140 -24.568 -13.844  0.00  0.00    -0.000 C 
ATOM      8  C   UNL     1      33.551 -23.035 -16.917  0.00  0.00    +0.000 C 
ATOM      9  C   UNL     1      30.780 -24.588 -14.151  0.00  0.00    +0.002 C 
ATOM     10  C   UNL     1      34.912 -23.014 -16.610  0.00  0.00    +0.005 C 
ENDROOT
BRANCH   4  13
ATOM     11  O   UNL     1      37.426 -22.466 -15.289  0.00  0.00    -0.270 OA
ATOM     12  N   UNL     1      37.293 -24.647 -14.514  0.00  0.00    -0.295 N 
ATOM     13  C   UNL     1      36.779 -23.487 -15.072  0.00  0.00    +0.246 C 
ATOM     14  H   UNL     1      36.691 -25.415 -14.379  0.00  0.00    +0.150 HD
BRANCH  12  15
ATOM     15  C   UNL     1      38.677 -24.772 -14.123  0.00  0.00    +0.149 C 
BRANCH  15  18
ATOM     16  O   UNL     1      38.286 -27.061 -14.828  0.00  0.00    -0.274 OA
ATOM     17  N   UNL     1      40.432 -26.430 -14.300  0.00  0.00    -0.327 N 
ATOM     18  C   UNL     1      39.084 -26.197 -14.468  0.00  0.00    +0.237 C 
ATOM     19  H   UNL     1      40.805 -27.321 -14.494  0.00  0.00    +0.145 HD
ATOM     20  H   UNL     1      41.021 -25.708 -13.986  0.00  0.00    +0.145 HD
ENDBRANCH  15  18
BRANCH  15  21
ATOM     21  C   UNL     1      38.850 -24.485 -12.628  0.00  0.00    +0.041 C 
BRANCH  21  22
ATOM     22  C   UNL     1      37.599 -24.811 -11.811  0.00  0.00    +0.112 C 
BRANCH  22  24
ATOM     23  O   UNL     1      37.223 -22.432 -11.458  0.00  0.00    -0.250 OA
ATOM     24  C   UNL     1      37.050 -23.590 -11.107  0.00  0.00    +0.314 C 
BRANCH  24  25
ATOM     25  O   UNL     1      36.318 -23.934 -10.015  0.00  0.00    -0.480 OA
ATOM     26  H   UNL     1      35.647 -24.584 -10.087  0.00  0.00    +0.295 HD
ENDBRANCH  24  25
ENDBRANCH  22  24
ENDBRANCH  21  22
ENDBRANCH  15  21
ENDBRANCH  12  15
ENDBRANCH   4  13
BRANCH   3  29
ATOM     27  F   UNL     1      28.581 -24.653 -16.911  0.00  0.00    -0.187 F 
ATOM     28  F   UNL     1      28.100 -24.762 -14.791  0.00  0.00    -0.187 F 
ATOM     29  C   UNL     1      28.878 -24.117 -15.699  0.00  0.00    +0.372 C 
BRANCH  29  30
ATOM     30  P   UNL     1      28.014 -22.577 -15.829  0.00  0.00    +0.401 P 
ATOM     31  O   UNL     1      26.537 -22.664 -15.586  0.00  0.00    -0.252 OA
BRANCH  30  32
ATOM     32  O   UNL     1      28.430 -22.021 -17.290  0.00  0.00    -0.320 OA
ATOM     33  H   UNL     1      29.292 -22.387 -17.541  0.00  0.00    +0.220 HD
ENDBRANCH  30  32
BRANCH  30  34
ATOM     34  O   UNL     1      28.807 -21.591 -14.823  0.00  0.00    -0.320 OA
ATOM     35  H   UNL     1      29.001 -20.754 -15.275  0.00  0.00    +0.220 HD
ENDBRANCH  30  34
ENDBRANCH  29  30
ENDBRANCH   3  29
TORSDOF 11
ENDMDL
MODEL 4
REMARK VINA RESULT:     -10.4      1.366      1.564
REMARK  Name = 444695
REMARK  11 active torsions:
REMARK  status: ('A' for Active; 'I' for Inactive)
REMARK    1  A    between atoms: C_3  and  C_29
REMARK    2  A    between atoms: C_4  and  C_13
REMARK    3  A    between atoms: N_12  and  C_15
REMARK    4  A    between atoms: C_15  and  C_18
REMARK    5  A    between atoms: C_15  and  C_21
REMARK    6  A    between atoms: C_21  and  C_22
REMARK    7  A    between atoms: C_22  and  C_24
REMARK    8  A    between atoms: C_24  and  O_25
REMARK    9  A    between atoms: C_29  and  P_30
REMARK   10  A    between atoms: P_30  and  O_32
REMARK   11  A    between atoms: P_30  and  O_34
REMARK                            x       y       z     vdW  Elec       q    Type
REMARK                         _______ _______ _______ _____ _____    ______ ____
ROOT
ATOM      1  C   UNL     1      35.569 -20.752 -19.695  0.00  0.00    -0.000 C 
ATOM      2  C   UNL     1      34.250 -21.185 -19.416  0.00  0.00    +0.000 C 
ATOM      3  C   UNL     1      34.727 -19.432 -21.557  0.00  0.00    +0.049 C 
ATOM      4  C   UNL     1      35.097 -22.485 -17.577  0.00  0.00    +0.053 C 
ATOM      5  C   UNL     1      35.790 -19.875 -20.770  0.00  0.00    +0.002 C 
ATOM      6  C   UNL     1      34.029 -22.062 -18.340  0.00  0.00    +0.005 C 
ATOM      7  C   UNL     1      33.193 -20.728 -20.219  0.00  0.00    -0.000 C 
ATOM      8  C   UNL     1      36.626 -21.208 -18.892  0.00  0.00    +0.000 C 
ATOM      9  C   UNL     1      33.431 -19.858 -21.283  0.00  0.00    +0.002 C 
ATOM     10  C   UNL     1      36.388 -22.078 -17.828  0.00  0.00    +0.005 C 
ENDROOT
BRANCH   4  13
ATOM     11  O   UNL     1      33.705 -23.817 -16.241  0.00  0.00    -0.270 OA
ATOM     12  N   UNL     1      35.959 -23.778 -15.702  0.00  0.00    -0.295 N 
ATOM     13  C   UNL     1      34.846 -23.413 -16.445  0.00  0.00    +0.246 C 
ATOM     14  H   UNL     1      36.836 -23.399 -15.944  0.00  0.00    +0.150 HD
BRANCH  12  15
ATOM     15  C   UNL     1      35.882 -24.691 -14.587  0.00  0.00    +0.149 C 
BRANCH  15  18
ATOM     16  O   UNL     1      36.573 -23.291 -12.730  0.00  0.00    -0.274 OA
ATOM     17  N   UNL     1      34.336 -23.747 -12.981  0.00  0.00    -0.327 N 
ATOM     18  C   UNL     1      35.660 -23.830 -13.352  0.00  0.00    +0.237 C 
ATOM     19  H   UNL     1      34.077 -23.214 -12.194  0.00  0.00    +0.145 HD
ATOM     20  H   UNL     1      33.647 -24.219 -13.502  0.00  0.00    +0.145 HD
ENDBRANCH  15  18
BRANCH  15  21
ATOM     21  C   UNL     1      37.165 -25.520 -14.470  0.00  0.00    +0.041 C 
BRANCH  21  22
ATOM     22  C   UNL     1      38.403 -24.774 -14.970  0.00  0.00    +0.112 C 
BRANCH  22  24
ATOM     23  O   UNL     1      40.090 -26.016 -13.730  0.00  0.00    -0.250 OA
ATOM     24  C   UNL     1      39.663 -25.590 -14.795  0.00  0.00    +0.314 C 
BRANCH  24  25
ATOM     25  O   UNL     1      40.283 -25.809 -15.984  0.00  0.00    -0.480 OA
ATOM     26  H   UNL     1      40.360 -26.680 -16.318  0.00  0.00    +0.295 HD
ENDBRANCH  24  25
ENDBRANCH  22  24
ENDBRANCH  21  22
ENDBRANCH  15  21
ENDBRANCH  12  15
ENDBRANCH   4  13
BRANCH   3  29
ATOM     27  F   UNL     1      36.226 -18.592 -23.229  0.00  0.00    -0.187 F 
ATOM     28  F   UNL     1      34.108 -18.615 -23.730  0.00  0.00    -0.187 F 
ATOM     29  C   UNL     1      34.981 -18.501 -22.695  0.00  0.00    +0.372 C 
BRANCH  29  30
ATOM     30  P   UNL     1      34.904 -16.757 -22.397  0.00  0.00    +0.401 P 
ATOM     31  O   UNL     1      35.251 -16.345 -20.997  0.00  0.00    -0.252 OA
BRANCH  30  32
ATOM     32  O   UNL     1      33.415 -16.348 -22.875  0.00  0.00    -0.320 OA
ATOM     33  H   UNL     1      33.010 -17.093 -23.346  0.00  0.00    +0.220 HD
ENDBRANCH  30  32
BRANCH  30  34
ATOM     34  O   UNL     1      35.847 -16.117 -23.543  0.00  0.00    -0.320 OA
ATOM     35  H   UNL     1      36.701 -15.866 -23.157  0.00  0.00    +0.220 HD
ENDBRANCH  30  34
ENDBRANCH  29  30
ENDBRANCH   3  29
TORSDOF 11
ENDMDL
MODEL 5
REMARK VINA RESULT:     -10.3      4.618      9.725
REMARK  Name = 444695
REMARK  11 active torsions:
REMARK  status: ('A' for Active; 'I' for Inactive)
REMARK    1  A    between atoms: C_3  and  C_29
REMARK    2  A    between atoms: C_4  and  C_13
REMARK    3  A    between atoms: N_12  and  C_15
REMARK    4  A    between atoms: C_15  and  C_18
REMARK    5  A    between atoms: C_15  and  C_21
REMARK    6  A    between atoms: C_21  and  C_22
REMARK    7  A    between atoms: C_22  and  C_24
REMARK    8  A    between atoms: C_24  and  O_25
REMARK    9  A    between atoms: C_29  and  P_30
REMARK   10  A    between atoms: P_30  and  O_32
REMARK   11  A    between atoms: P_30  and  O_34
REMARK                            x       y       z     vdW  Elec       q    Type
REMARK                         _______ _______ _______ _____ _____    ______ ____
ROOT
ATOM      1  C   UNL     1      34.706 -22.950 -17.175  0.00  0.00    -0.000 C 
ATOM      2  C   UNL     1      35.678 -22.073 -17.714  0.00  0.00    +0.000 C 
ATOM      3  C   UNL     1      36.351 -23.776 -15.585  0.00  0.00    +0.049 C 
ATOM      4  C   UNL     1      34.040 -21.265 -19.281  0.00  0.00    +0.053 C 
ATOM      5  C   UNL     1      35.059 -23.796 -16.111  0.00  0.00    +0.002 C 
ATOM      6  C   UNL     1      35.324 -21.227 -18.778  0.00  0.00    +0.005 C 
ATOM      7  C   UNL     1      36.974 -22.067 -17.172  0.00  0.00    -0.000 C 
ATOM      8  C   UNL     1      33.411 -22.955 -17.717  0.00  0.00    +0.000 C 
ATOM      9  C   UNL     1      37.307 -22.914 -16.115  0.00  0.00    +0.002 C 
ATOM     10  C   UNL     1      33.078 -22.109 -18.774  0.00  0.00    +0.005 C 
ENDROOT
BRANCH   4  13
ATOM     11  O   UNL     1      32.618 -20.532 -20.994  0.00  0.00    -0.270 OA
ATOM     12  N   UNL     1      34.599 -19.365 -20.698  0.00  0.00    -0.295 N 
ATOM     13  C   UNL     1      33.683 -20.365 -20.407  0.00  0.00    +0.246 C 
ATOM     14  H   UNL     1      35.428 -19.313 -20.168  0.00  0.00    +0.150 HD
BRANCH  12  15
ATOM     15  C   UNL     1      34.383 -18.397 -21.747  0.00  0.00    +0.149 C 
BRANCH  15  18
ATOM     16  O   UNL     1      34.887 -19.556 -23.819  0.00  0.00    -0.274 OA
ATOM     17  N   UNL     1      36.559 -18.348 -22.807  0.00  0.00    -0.327 N 
ATOM     18  C   UNL     1      35.271 -18.827 -22.905  0.00  0.00    +0.237 C 
ATOM     19  H   UNL     1      37.220 -18.566 -23.503  0.00  0.00    +0.145 HD
ATOM     20  H   UNL     1      36.819 -17.788 -22.040  0.00  0.00    +0.145 HD
ENDBRANCH  15  18
BRANCH  15  21
ATOM     21  C   UNL     1      34.731 -16.985 -21.267  0.00  0.00    +0.041 C 
BRANCH  21  22
ATOM     22  C   UNL     1      33.779 -15.919 -21.813  0.00  0.00    +0.112 C 
BRANCH  22  24
ATOM     23  O   UNL     1      33.339 -15.135 -24.075  0.00  0.00    -0.250 OA
ATOM     24  C   UNL     1      34.133 -15.518 -23.227  0.00  0.00    +0.314 C 
BRANCH  24  25
ATOM     25  O   UNL     1      35.468 -15.625 -23.455  0.00  0.00    -0.480 OA
ATOM     26  H   UNL     1      36.070 -15.575 -22.740  0.00  0.00    +0.295 HD
ENDBRANCH  24  25
ENDBRANCH  22  24
ENDBRANCH  21  22
ENDBRANCH  15  21
ENDBRANCH  12  15
ENDBRANCH   4  13
BRANCH   3  29
ATOM     27  F   UNL     1      37.802 -24.295 -13.748  0.00  0.00    -0.187 F 
ATOM     28  F   UNL     1      35.715 -24.882 -13.549  0.00  0.00    -0.187 F 
ATOM     29  C   UNL     1      36.709 -24.681 -14.455  0.00  0.00    +0.372 C 
BRANCH  29  30
ATOM     30  P   UNL     1      37.157 -26.355 -14.819  0.00  0.00    +0.401 P 
ATOM     31  O   UNL     1      36.329 -27.008 -15.885  0.00  0.00    -0.252 OA
BRANCH  30  32
ATOM     32  O   UNL     1      37.112 -27.091 -13.379  0.00  0.00    -0.320 OA
ATOM     33  H   UNL     1      36.692 -26.504 -12.730  0.00  0.00    +0.220 HD
ENDBRANCH  30  32
BRANCH  30  34
ATOM     34  O   UNL     1      38.740 -26.281 -15.143  0.00  0.00    -0.320 OA
ATOM     35  H   UNL     1      39.013 -25.352 -15.206  0.00  0.00    +0.220 HD
ENDBRANCH  30  34
ENDBRANCH  29  30
ENDBRANCH   3  29
TORSDOF 11
ENDMDL
MODEL 6
REMARK VINA RESULT:     -10.3      2.539      3.697
REMARK  Name = 444695
REMARK  11 active torsions:
REMARK  status: ('A' for Active; 'I' for Inactive)
REMARK    1  A    between atoms: C_3  and  C_29
REMARK    2  A    between atoms: C_4  and  C_13
REMARK    3  A    between atoms: N_12  and  C_15
REMARK    4  A    between atoms: C_15  and  C_18
REMARK    5  A    between atoms: C_15  and  C_21
REMARK    6  A    between atoms: C_21  and  C_22
REMARK    7  A    between atoms: C_22  and  C_24
REMARK    8  A    between atoms: C_24  and  O_25
REMARK    9  A    between atoms: C_29  and  P_30
REMARK   10  A    between atoms: P_30  and  O_32
REMARK   11  A    between atoms: P_30  and  O_34
REMARK                            x       y       z     vdW  Elec       q    Type
REMARK                         _______ _______ _______ _____ _____    ______ ____
ROOT
ATOM      1  C   UNL     1      33.805 -19.828 -20.520  0.00  0.00    -0.000 C 
ATOM      2  C   UNL     1      35.062 -20.370 -20.158  0.00  0.00    +0.000 C 
ATOM      3  C   UNL     1      34.933 -18.136 -21.855  0.00  0.00    +0.049 C 
ATOM      4  C   UNL     1      33.932 -22.037 -18.842  0.00  0.00    +0.053 C 
ATOM      5  C   UNL     1      33.757 -18.710 -21.369  0.00  0.00    +0.002 C 
ATOM      6  C   UNL     1      35.108 -21.488 -19.308  0.00  0.00    +0.005 C 
ATOM      7  C   UNL     1      36.234 -19.778 -20.656  0.00  0.00    -0.000 C 
ATOM      8  C   UNL     1      32.633 -20.419 -20.022  0.00  0.00    +0.000 C 
ATOM      9  C   UNL     1      36.168 -18.669 -21.499  0.00  0.00    +0.002 C 
ATOM     10  C   UNL     1      32.698 -21.529 -19.179  0.00  0.00    +0.005 C 
ENDROOT
BRANCH   4  13
ATOM     11  O   UNL     1      33.677 -24.321 -18.376  0.00  0.00    -0.270 OA
ATOM     12  N   UNL     1      34.456 -22.976 -16.656  0.00  0.00    -0.295 N 
ATOM     13  C   UNL     1      33.999 -23.218 -17.943  0.00  0.00    +0.246 C 
ATOM     14  H   UNL     1      34.690 -22.053 -16.403  0.00  0.00    +0.150 HD
BRANCH  12  15
ATOM     15  C   UNL     1      34.600 -24.024 -15.675  0.00  0.00    +0.149 C 
BRANCH  15  18
ATOM     16  O   UNL     1      32.597 -22.986 -14.784  0.00  0.00    -0.274 OA
ATOM     17  N   UNL     1      33.213 -25.045 -13.974  0.00  0.00    -0.327 N 
ATOM     18  C   UNL     1      33.365 -23.947 -14.791  0.00  0.00    +0.237 C 
ATOM     19  H   UNL     1      32.446 -25.100 -13.359  0.00  0.00    +0.145 HD
ATOM     20  H   UNL     1      33.872 -25.776 -14.004  0.00  0.00    +0.145 HD
ENDBRANCH  15  18
BRANCH  15  21
ATOM     21  C   UNL     1      35.885 -23.837 -14.861  0.00  0.00    +0.041 C 
BRANCH  21  22
ATOM     22  C   UNL     1      36.895 -24.966 -15.075  0.00  0.00    +0.112 C 
BRANCH  22  24
ATOM     23  O   UNL     1      37.545 -26.984 -13.881  0.00  0.00    -0.250 OA
ATOM     24  C   UNL     1      36.883 -25.958 -13.935  0.00  0.00    +0.314 C 
BRANCH  24  25
ATOM     25  O   UNL     1      36.036 -25.568 -12.946  0.00  0.00    -0.480 OA
ATOM     26  H   UNL     1      36.347 -25.495 -12.065  0.00  0.00    +0.295 HD
ENDBRANCH  24  25
ENDBRANCH  22  24
ENDBRANCH  21  22
ENDBRANCH  15  21
ENDBRANCH  12  15
ENDBRANCH   4  13
BRANCH   3  29
ATOM     27  F   UNL     1      36.069 -16.512 -23.205  0.00  0.00    -0.187 F 
ATOM     28  F   UNL     1      34.079 -17.112 -23.854  0.00  0.00    -0.187 F 
ATOM     29  C   UNL     1      34.864 -16.949 -22.756  0.00  0.00    +0.372 C 
BRANCH  29  30
ATOM     30  P   UNL     1      34.212 -15.434 -22.113  0.00  0.00    +0.401 P 
ATOM     31  O   UNL     1      32.714 -15.375 -22.044  0.00  0.00    -0.252 OA
BRANCH  30  32
ATOM     32  O   UNL     1      34.893 -14.295 -23.037  0.00  0.00    -0.320 OA
ATOM     33  H   UNL     1      34.410 -14.229 -23.876  0.00  0.00    +0.220 HD
ENDBRANCH  30  32
BRANCH  30  34
ATOM     34  O   UNL     1      34.961 -15.250 -20.692  0.00  0.00    -0.320 OA
ATOM     35  H   UNL     1      35.048 -14.304 -20.493  0.00  0.00    +0.220 HD
ENDBRANCH  30  34
ENDBRANCH  29  30
ENDBRANCH   3  29
TORSDOF 11
ENDMDL
MODEL 7
REMARK VINA RESULT:     -10.1      3.318      4.479
REMARK  Name = 444695
REMARK  11 active torsions:
REMARK  status: ('A' for Active; 'I' for Inactive)
REMARK    1  A    between atoms: C_3  and  C_29
REMARK    2  A    between atoms: C_4  and  C_13
REMARK    3  A    between atoms: N_12  and  C_15
REMARK    4  A    between atoms: C_15  and  C_18
REMARK    5  A    between atoms: C_15  and  C_21
REMARK    6  A    between atoms: C_21  and  C_22
REMARK    7  A    between atoms: C_22  and  C_24
REMARK    8  A    between atoms: C_24  and  O_25
REMARK    9  A    between atoms: C_29  and  P_30
REMARK   10  A    between atoms: P_30  and  O_32
REMARK   11  A    between atoms: P_30  and  O_34
REMARK                            x       y       z     vdW  Elec       q    Type
REMARK                         _______ _______ _______ _____ _____    ______ ____
ROOT
ATOM      1  C   UNL     1      35.156 -20.732 -20.212  0.00  0.00    -0.000 C 
ATOM      2  C   UNL     1      33.758 -20.889 -20.051  0.00  0.00    +0.000 C 
ATOM      3  C   UNL     1      34.758 -19.234 -22.088  0.00  0.00    +0.049 C 
ATOM      4  C   UNL     1      34.167 -22.368 -18.198  0.00  0.00    +0.053 C 
ATOM      5  C   UNL     1      35.640 -19.901 -21.237  0.00  0.00    +0.002 C 
ATOM      6  C   UNL     1      33.275 -21.720 -19.027  0.00  0.00    +0.005 C 
ATOM      7  C   UNL     1      32.886 -20.210 -20.918  0.00  0.00    -0.000 C 
ATOM      8  C   UNL     1      36.027 -21.411 -19.347  0.00  0.00    +0.000 C 
ATOM      9  C   UNL     1      33.384 -19.389 -21.929  0.00  0.00    +0.002 C 
ATOM     10  C   UNL     1      35.529 -22.232 -18.335  0.00  0.00    +0.005 C 
ENDROOT
BRANCH   4  13
ATOM     11  O   UNL     1      34.398 -24.030 -16.561  0.00  0.00    -0.270 OA
ATOM     12  N   UNL     1      32.297 -23.083 -16.811  0.00  0.00    -0.295 N 
ATOM     13  C   UNL     1      33.639 -23.245 -17.121  0.00  0.00    +0.246 C 
ATOM     14  H   UNL     1      31.769 -22.425 -17.320  0.00  0.00    +0.150 HD
BRANCH  12  15
ATOM     15  C   UNL     1      31.645 -23.843 -15.772  0.00  0.00    +0.149 C 
BRANCH  15  18
ATOM     16  O   UNL     1      29.683 -22.821 -16.769  0.00  0.00    -0.274 OA
ATOM     17  N   UNL     1      29.379 -24.393 -15.121  0.00  0.00    -0.327 N 
ATOM     18  C   UNL     1      30.152 -23.625 -15.965  0.00  0.00    +0.237 C 
ATOM     19  H   UNL     1      28.396 -24.331 -15.160  0.00  0.00    +0.145 HD
ATOM     20  H   UNL     1      29.807 -25.003 -14.479  0.00  0.00    +0.145 HD
ENDBRANCH  15  18
BRANCH  15  21
ATOM     21  C   UNL     1      32.105 -23.380 -14.386  0.00  0.00    +0.041 C 
BRANCH  21  22
ATOM     22  C   UNL     1      32.578 -24.533 -13.500  0.00  0.00    +0.112 C 
BRANCH  22  24
ATOM     23  O   UNL     1      34.458 -23.824 -12.125  0.00  0.00    -0.250 OA
ATOM     24  C   UNL     1      34.036 -24.394 -13.122  0.00  0.00    +0.314 C 
BRANCH  24  25
ATOM     25  O   UNL     1      34.845 -24.994 -14.034  0.00  0.00    -0.480 OA
ATOM     26  H   UNL     1      34.518 -25.195 -14.888  0.00  0.00    +0.295 HD
ENDBRANCH  24  25
ENDBRANCH  22  24
ENDBRANCH  21  22
ENDBRANCH  15  21
ENDBRANCH  12  15
ENDBRANCH   4  13
BRANCH   3  29
ATOM     27  F   UNL     1      36.608 -18.052 -23.052  0.00  0.00    -0.187 F 
ATOM     28  F   UNL     1      35.116 -18.835 -24.430  0.00  0.00    -0.187 F 
ATOM     29  C   UNL     1      35.289 -18.356 -23.170  0.00  0.00    +0.372 C 
BRANCH  29  30
ATOM     30  P   UNL     1      34.617 -16.728 -23.347  0.00  0.00    +0.401 P 
ATOM     31  O   UNL     1      33.810 -16.252 -22.176  0.00  0.00    -0.252 OA
BRANCH  30  32
ATOM     32  O   UNL     1      33.808 -16.793 -24.746  0.00  0.00    -0.320 OA
ATOM     33  H   UNL     1      34.146 -17.528 -25.281  0.00  0.00    +0.220 HD
ENDBRANCH  30  32
BRANCH  30  34
ATOM     34  O   UNL     1      35.896 -15.807 -23.707  0.00  0.00    -0.320 OA
ATOM     35  H   UNL     1      36.189 -15.336 -22.910  0.00  0.00    +0.220 HD
ENDBRANCH  30  34
ENDBRANCH  29  30
ENDBRANCH   3  29
TORSDOF 11
ENDMDL
MODEL 8
REMARK VINA RESULT:     -10.1      1.419      3.293
REMARK  Name = 444695
REMARK  11 active torsions:
REMARK  status: ('A' for Active; 'I' for Inactive)
REMARK    1  A    between atoms: C_3  and  C_29
REMARK    2  A    between atoms: C_4  and  C_13
REMARK    3  A    between atoms: N_12  and  C_15
REMARK    4  A    between atoms: C_15  and  C_18
REMARK    5  A    between atoms: C_15  and  C_21
REMARK    6  A    between atoms: C_21  and  C_22
REMARK    7  A    between atoms: C_22  and  C_24
REMARK    8  A    between atoms: C_24  and  O_25
REMARK    9  A    between atoms: C_29  and  P_30
REMARK   10  A    between atoms: P_30  and  O_32
REMARK   11  A    between atoms: P_30  and  O_34
REMARK                            x       y       z     vdW  Elec       q    Type
REMARK                         _______ _______ _______ _____ _____    ______ ____
ROOT
ATOM      1  C   UNL     1      34.583 -21.747 -18.822  0.00  0.00    -0.000 C 
ATOM      2  C   UNL     1      35.941 -21.671 -18.432  0.00  0.00    +0.000 C 
ATOM      3  C   UNL     1      35.049 -20.255 -20.686  0.00  0.00    +0.049 C 
ATOM      4  C   UNL     1      35.466 -23.148 -16.593  0.00  0.00    +0.053 C 
ATOM      5  C   UNL     1      34.152 -21.032 -19.952  0.00  0.00    +0.002 C 
ATOM      6  C   UNL     1      36.371 -22.387 -17.302  0.00  0.00    +0.005 C 
ATOM      7  C   UNL     1      36.829 -20.884 -19.183  0.00  0.00    -0.000 C 
ATOM      8  C   UNL     1      33.695 -22.534 -18.072  0.00  0.00    +0.000 C 
ATOM      9  C   UNL     1      36.384 -20.181 -20.302  0.00  0.00    +0.002 C 
ATOM     10  C   UNL     1      34.140 -23.238 -16.953  0.00  0.00    +0.005 C 
ENDROOT
BRANCH   4  13
ATOM     11  O   UNL     1      35.118 -24.489 -14.702  0.00  0.00    -0.270 OA
ATOM     12  N   UNL     1      37.305 -23.886 -15.178  0.00  0.00    -0.295 N 
ATOM     13  C   UNL     1      35.936 -23.897 -15.400  0.00  0.00    +0.246 C 
ATOM     14  H   UNL     1      37.881 -23.380 -15.796  0.00  0.00    +0.150 HD
BRANCH  12  15
ATOM     15  C   UNL     1      37.917 -24.588 -14.075  0.00  0.00    +0.149 C 
BRANCH  15  18
ATOM     16  O   UNL     1      38.364 -26.931 -14.514  0.00  0.00    -0.274 OA
ATOM     17  N   UNL     1      39.770 -25.361 -15.427  0.00  0.00    -0.327 N 
ATOM     18  C   UNL     1      38.677 -25.755 -14.688  0.00  0.00    +0.237 C 
ATOM     19  H   UNL     1      40.335 -26.036 -15.870  0.00  0.00    +0.145 HD
ATOM     20  H   UNL     1      39.988 -24.405 -15.514  0.00  0.00    +0.145 HD
ENDBRANCH  15  18
BRANCH  15  21
ATOM     21  C   UNL     1      36.857 -25.069 -13.079  0.00  0.00    +0.041 C 
BRANCH  21  22
ATOM     22  C   UNL     1      36.990 -24.409 -11.705  0.00  0.00    +0.112 C 
BRANCH  22  24
ATOM     23  O   UNL     1      35.374 -24.526  -9.888  0.00  0.00    -0.250 OA
ATOM     24  C   UNL     1      35.646 -24.217 -11.039  0.00  0.00    +0.314 C 
BRANCH  24  25
ATOM     25  O   UNL     1      34.751 -23.641 -11.884  0.00  0.00    -0.480 OA
ATOM     26  H   UNL     1      34.630 -23.988 -12.746  0.00  0.00    +0.295 HD
ENDBRANCH  24  25
ENDBRANCH  22  24
ENDBRANCH  21  22
ENDBRANCH  15  21
ENDBRANCH  12  15
ENDBRANCH   4  13
BRANCH   3  29
ATOM     27  F   UNL     1      34.949 -20.041 -23.072  0.00  0.00    -0.187 F 
ATOM     28  F   UNL     1      33.228 -19.324 -21.948  0.00  0.00    -0.187 F 
ATOM     29  C   UNL     1      34.574 -19.502 -21.883  0.00  0.00    +0.372 C 
BRANCH  29  30
ATOM     30  P   UNL     1      35.132 -17.838 -22.114  0.00  0.00    +0.401 P 
ATOM     31  O   UNL     1      34.276 -17.010 -23.027  0.00  0.00    -0.252 OA
BRANCH  30  32
ATOM     32  O   UNL     1      36.667 -18.007 -22.594  0.00  0.00    -0.320 OA
ATOM     33  H   UNL     1      36.745 -17.749 -23.526  0.00  0.00    +0.220 HD
ENDBRANCH  30  32
BRANCH  30  34
ATOM     34  O   UNL     1      35.279 -17.256 -20.613  0.00  0.00    -0.320 OA
ATOM     35  H   UNL     1      34.569 -17.614 -20.057  0.00  0.00    +0.220 HD
ENDBRANCH  30  34
ENDBRANCH  29  30
ENDBRANCH   3  29
TORSDOF 11
ENDMDL
MODEL 9
REMARK VINA RESULT:      -9.9      1.846      3.044
REMARK  Name = 444695
REMARK  11 active torsions:
REMARK  status: ('A' for Active; 'I' for Inactive)
REMARK    1  A    between atoms: C_3  and  C_29
REMARK    2  A    between atoms: C_4  and  C_13
REMARK    3  A    between atoms: N_12  and  C_15
REMARK    4  A    between atoms: C_15  and  C_18
REMARK    5  A    between atoms: C_15  and  C_21
REMARK    6  A    between atoms: C_21  and  C_22
REMARK    7  A    between atoms: C_22  and  C_24
REMARK    8  A    between atoms: C_24  and  O_25
REMARK    9  A    between atoms: C_29  and  P_30
REMARK   10  A    between atoms: P_30  and  O_32
REMARK   11  A    between atoms: P_30  and  O_34
REMARK                            x       y       z     vdW  Elec       q    Type
REMARK                         _______ _______ _______ _____ _____    ______ ____
ROOT
ATOM      1  C   UNL     1      35.780 -20.684 -19.745  0.00  0.00    -0.000 C 
ATOM      2  C   UNL     1      34.509 -21.182 -19.370  0.00  0.00    +0.000 C 
ATOM      3  C   UNL     1      34.744 -19.446 -21.565  0.00  0.00    +0.049 C 
ATOM      4  C   UNL     1      35.547 -22.401 -17.574  0.00  0.00    +0.053 C 
ATOM      5  C   UNL     1      35.881 -19.817 -20.846  0.00  0.00    +0.002 C 
ATOM      6  C   UNL     1      34.409 -22.049 -18.269  0.00  0.00    +0.005 C 
ATOM      7  C   UNL     1      33.376 -20.797 -20.106  0.00  0.00    -0.000 C 
ATOM      8  C   UNL     1      36.912 -21.069 -19.010  0.00  0.00    +0.000 C 
ATOM      9  C   UNL     1      33.495 -19.935 -21.196  0.00  0.00    +0.002 C 
ATOM     10  C   UNL     1      36.794 -21.931 -17.919  0.00  0.00    +0.005 C 
ENDROOT
BRANCH   4  13
ATOM     11  O   UNL     1      34.404 -23.991 -16.286  0.00  0.00    -0.270 OA
ATOM     12  N   UNL     1      36.513 -23.363 -15.557  0.00  0.00    -0.295 N 
ATOM     13  C   UNL     1      35.424 -23.320 -16.414  0.00  0.00    +0.246 C 
ATOM     14  H   UNL     1      37.287 -22.784 -15.745  0.00  0.00    +0.150 HD
BRANCH  12  15
ATOM     15  C   UNL     1      36.555 -24.225 -14.399  0.00  0.00    +0.149 C 
BRANCH  15  18
ATOM     16  O   UNL     1      37.983 -25.944 -15.344  0.00  0.00    -0.274 OA
ATOM     17  N   UNL     1      35.787 -26.463 -14.911  0.00  0.00    -0.327 N 
ATOM     18  C   UNL     1      36.874 -25.617 -14.922  0.00  0.00    +0.237 C 
ATOM     19  H   UNL     1      35.881 -27.390 -15.229  0.00  0.00    +0.145 HD
ATOM     20  H   UNL     1      34.916 -26.141 -14.584  0.00  0.00    +0.145 HD
ENDBRANCH  15  18
BRANCH  15  21
ATOM     21  C   UNL     1      35.218 -24.199 -13.652  0.00  0.00    +0.041 C 
BRANCH  21  22
ATOM     22  C   UNL     1      35.343 -23.661 -12.226  0.00  0.00    +0.112 C 
BRANCH  22  24
ATOM     23  O   UNL     1      36.351 -25.790 -11.612  0.00  0.00    -0.250 OA
ATOM     24  C   UNL     1      35.960 -24.676 -11.291  0.00  0.00    +0.314 C 
BRANCH  24  25
ATOM     25  O   UNL     1      36.040 -24.198 -10.021  0.00  0.00    -0.480 OA
ATOM     26  H   UNL     1      35.784 -23.316  -9.836  0.00  0.00    +0.295 HD
ENDBRANCH  24  25
ENDBRANCH  22  24
ENDBRANCH  21  22
ENDBRANCH  15  21
ENDBRANCH  12  15
ENDBRANCH   4  13
BRANCH   3  29
ATOM     27  F   UNL     1      36.082 -18.553 -23.343  0.00  0.00    -0.187 F 
ATOM     28  F   UNL     1      33.941 -18.709 -23.706  0.00  0.00    -0.187 F 
ATOM     29  C   UNL     1      34.870 -18.525 -22.731  0.00  0.00    +0.372 C 
BRANCH  29  30
ATOM     30  P   UNL     1      34.709 -16.783 -22.456  0.00  0.00    +0.401 P 
ATOM     31  O   UNL     1      33.320 -16.246 -22.637  0.00  0.00    -0.252 OA
BRANCH  30  32
ATOM     32  O   UNL     1      35.820 -16.131 -23.434  0.00  0.00    -0.320 OA
ATOM     33  H   UNL     1      35.864 -15.175 -23.281  0.00  0.00    +0.220 HD
ENDBRANCH  30  32
BRANCH  30  34
ATOM     34  O   UNL     1      35.336 -16.553 -20.984  0.00  0.00    -0.320 OA
ATOM     35  H   UNL     1      36.247 -16.229 -21.068  0.00  0.00    +0.220 HD
ENDBRANCH  30  34
ENDBRANCH  29  30
ENDBRANCH   3  29
TORSDOF 11
ENDMDL
