MODEL 1
REMARK VINA RESULT:      -9.7      0.000      0.000
REMARK  Name = 449126
REMARK  2 active torsions:
REMARK  status: ('A' for Active; 'I' for Inactive)
REMARK    1  A    between atoms: C_3  and  C_8
REMARK    2  A    between atoms: C_5  and  C_16
REMARK                            x       y       z     vdW  Elec       q    Type
REMARK                         _______ _______ _______ _____ _____    ______ ____
ROOT
ATOM      1  N   UNL     1      36.333 -17.641 -22.845  0.00  0.00    -0.240 N 
ATOM      2  N   UNL     1      36.416 -18.701 -22.023  0.00  0.00    -0.182 NA
ATOM      3  C   UNL     1      35.068 -17.170 -22.991  0.00  0.00    +0.044 C 
ATOM      4  C   UNL     1      34.263 -17.964 -22.224  0.00  0.00    +0.032 C 
ATOM      5  C   UNL     1      35.149 -18.894 -21.648  0.00  0.00    +0.099 C 
ATOM      6  H   UNL     1      37.113 -17.243 -23.296  0.00  0.00    +0.174 HD
ENDROOT
BRANCH   3   8
ATOM      7  N   UNL     1      32.900 -14.116 -25.168  0.00  0.00    +0.384 N 
ATOM      8  C   UNL     1      34.756 -15.973 -23.875  0.00  0.00    +0.033 C 
ATOM      9  C   UNL     1      34.049 -14.849 -23.103  0.00  0.00    -0.018 C 
ATOM     10  C   UNL     1      33.933 -16.363 -25.113  0.00  0.00    -0.018 C 
ATOM     11  C   UNL     1      33.707 -13.680 -24.027  0.00  0.00    -0.081 C 
ATOM     12  C   UNL     1      33.595 -15.133 -25.957  0.00  0.00    -0.081 C 
ATOM     13  H   UNL     1      32.705 -13.311 -25.763  0.00  0.00    -0.085 HD
ATOM     14  H   UNL     1      32.035 -14.524 -24.811  0.00  0.00    -0.085 HD
ENDBRANCH   3   8
BRANCH   5  16
ATOM     15 CL   UNL     1      33.732 -23.304 -17.918  0.00  0.00    -0.082 Cl
ATOM     16  C   UNL     1      34.806 -19.962 -20.744  0.00  0.00    +0.019 C 
ATOM     17  C   UNL     1      35.814 -20.710 -20.142  0.00  0.00    +0.002 C 
ATOM     18  C   UNL     1      33.468 -20.242 -20.477  0.00  0.00    +0.002 C 
ATOM     19  C   UNL     1      35.482 -21.744 -19.267  0.00  0.00    +0.011 C 
ATOM     20  C   UNL     1      33.135 -21.276 -19.603  0.00  0.00    +0.011 C 
ATOM     21  C   UNL     1      34.143 -22.028 -18.998  0.00  0.00    +0.058 C 
ENDBRANCH   5  16
TORSDOF 2
ENDMDL
MODEL 2
REMARK VINA RESULT:      -9.4      3.476      7.602
REMARK  Name = 449126
REMARK  2 active torsions:
REMARK  status: ('A' for Active; 'I' for Inactive)
REMARK    1  A    between atoms: C_3  and  C_8
REMARK    2  A    between atoms: C_5  and  C_16
REMARK                            x       y       z     vdW  Elec       q    Type
REMARK                         _______ _______ _______ _____ _____    ______ ____
ROOT
ATOM      1  N   UNL     1      36.581 -20.259 -19.706  0.00  0.00    -0.240 N 
ATOM      2  N   UNL     1      36.629 -19.290 -20.636  0.00  0.00    -0.182 NA
ATOM      3  C   UNL     1      35.420 -20.963 -19.722  0.00  0.00    +0.044 C 
ATOM      4  C   UNL     1      34.653 -20.432 -20.719  0.00  0.00    +0.032 C 
ATOM      5  C   UNL     1      35.449 -19.400 -21.251  0.00  0.00    +0.099 C 
ATOM      6  H   UNL     1      37.314 -20.442 -19.075  0.00  0.00    +0.174 HD
ENDROOT
BRANCH   3   8
ATOM      7  N   UNL     1      34.151 -23.191 -16.230  0.00  0.00    +0.384 N 
ATOM      8  C   UNL     1      35.163 -22.107 -18.753  0.00  0.00    +0.033 C 
ATOM      9  C   UNL     1      33.664 -22.325 -18.496  0.00  0.00    -0.018 C 
ATOM     10  C   UNL     1      35.906 -21.917 -17.421  0.00  0.00    -0.018 C 
ATOM     11  C   UNL     1      33.439 -23.448 -17.483  0.00  0.00    -0.081 C 
ATOM     12  C   UNL     1      35.591 -23.056 -16.450  0.00  0.00    -0.081 C 
ATOM     13  H   UNL     1      33.984 -23.966 -15.589  0.00  0.00    -0.085 HD
ATOM     14  H   UNL     1      33.804 -22.314 -15.840  0.00  0.00    -0.085 HD
ENDBRANCH   3   8
BRANCH   5  16
ATOM     15 CL   UNL     1      34.021 -15.764 -25.735  0.00  0.00    -0.082 Cl
ATOM     16  C   UNL     1      35.104 -18.519 -22.337  0.00  0.00    +0.019 C 
ATOM     17  C   UNL     1      35.021 -17.147 -22.117  0.00  0.00    +0.002 C 
ATOM     18  C   UNL     1      34.853 -19.044 -23.603  0.00  0.00    +0.002 C 
ATOM     19  C   UNL     1      34.687 -16.294 -23.169  0.00  0.00    +0.011 C 
ATOM     20  C   UNL     1      34.518 -18.192 -24.654  0.00  0.00    +0.011 C 
ATOM     21  C   UNL     1      34.433 -16.817 -24.437  0.00  0.00    +0.058 C 
ENDBRANCH   5  16
TORSDOF 2
ENDMDL
MODEL 3
REMARK VINA RESULT:      -9.1      3.518      7.448
REMARK  Name = 449126
REMARK  2 active torsions:
REMARK  status: ('A' for Active; 'I' for Inactive)
REMARK    1  A    between atoms: C_3  and  C_8
REMARK    2  A    between atoms: C_5  and  C_16
REMARK                            x       y       z     vdW  Elec       q    Type
REMARK                         _______ _______ _______ _____ _____    ______ ____
ROOT
ATOM      1  N   UNL     1      35.318 -17.634 -20.781  0.00  0.00    -0.240 N 
ATOM      2  N   UNL     1      35.070 -16.508 -21.472  0.00  0.00    -0.182 NA
ATOM      3  C   UNL     1      34.993 -18.764 -21.460  0.00  0.00    +0.044 C 
ATOM      4  C   UNL     1      34.500 -18.367 -22.670  0.00  0.00    +0.032 C 
ATOM      5  C   UNL     1      34.570 -16.961 -22.624  0.00  0.00    +0.099 C 
ATOM      6  H   UNL     1      35.699 -17.639 -19.874  0.00  0.00    +0.174 HD
ENDROOT
BRANCH   3   8
ATOM      7  N   UNL     1      35.418 -21.981 -18.590  0.00  0.00    +0.384 N 
ATOM      8  C   UNL     1      35.199 -20.146 -20.859  0.00  0.00    +0.033 C 
ATOM      9  C   UNL     1      33.971 -20.624 -20.069  0.00  0.00    -0.018 C 
ATOM     10  C   UNL     1      36.455 -20.214 -19.976  0.00  0.00    -0.018 C 
ATOM     11  C   UNL     1      34.224 -21.994 -19.438  0.00  0.00    -0.081 C 
ATOM     12  C   UNL     1      36.609 -21.600 -19.348  0.00  0.00    -0.081 C 
ATOM     13  H   UNL     1      35.557 -22.913 -18.200  0.00  0.00    -0.085 HD
ATOM     14  H   UNL     1      35.276 -21.293 -17.850  0.00  0.00    -0.085 HD
ENDBRANCH   3   8
BRANCH   5  16
ATOM     15 CL   UNL     1      32.914 -13.182 -26.906  0.00  0.00    -0.082 Cl
ATOM     16  C   UNL     1      34.169 -16.046 -23.661  0.00  0.00    +0.019 C 
ATOM     17  C   UNL     1      33.949 -14.706 -23.355  0.00  0.00    +0.002 C 
ATOM     18  C   UNL     1      34.003 -16.505 -24.965  0.00  0.00    +0.002 C 
ATOM     19  C   UNL     1      33.560 -13.819 -24.359  0.00  0.00    +0.011 C 
ATOM     20  C   UNL     1      33.614 -15.619 -25.970  0.00  0.00    +0.011 C 
ATOM     21  C   UNL     1      33.392 -14.276 -25.667  0.00  0.00    +0.058 C 
ENDBRANCH   5  16
TORSDOF 2
ENDMDL
MODEL 4
REMARK VINA RESULT:      -9.1      3.673      7.358
REMARK  Name = 449126
REMARK  2 active torsions:
REMARK  status: ('A' for Active; 'I' for Inactive)
REMARK    1  A    between atoms: C_3  and  C_8
REMARK    2  A    between atoms: C_5  and  C_16
REMARK                            x       y       z     vdW  Elec       q    Type
REMARK                         _______ _______ _______ _____ _____    ______ ____
ROOT
ATOM      1  N   UNL     1      35.662 -17.283 -22.911  0.00  0.00    -0.240 N 
ATOM      2  N   UNL     1      35.310 -16.026 -23.234  0.00  0.00    -0.182 NA
ATOM      3  C   UNL     1      34.905 -17.816 -21.918  0.00  0.00    +0.044 C 
ATOM      4  C   UNL     1      33.999 -16.859 -21.559  0.00  0.00    +0.032 C 
ATOM      5  C   UNL     1      34.294 -15.773 -22.404  0.00  0.00    +0.099 C 
ATOM      6  H   UNL     1      36.396 -17.769 -23.352  0.00  0.00    +0.174 HD
ENDROOT
BRANCH   3   8
ATOM      7  N   UNL     1      35.473 -21.187 -19.257  0.00  0.00    +0.384 N 
ATOM      8  C   UNL     1      35.136 -19.229 -21.406  0.00  0.00    +0.033 C 
ATOM      9  C   UNL     1      33.952 -19.747 -20.575  0.00  0.00    -0.018 C 
ATOM     10  C   UNL     1      36.440 -19.350 -20.602  0.00  0.00    -0.018 C 
ATOM     11  C   UNL     1      34.233 -21.150 -20.035  0.00  0.00    -0.081 C 
ATOM     12  C   UNL     1      36.622 -20.768 -20.061  0.00  0.00    -0.081 C 
ATOM     13  H   UNL     1      35.629 -22.139 -18.927  0.00  0.00    -0.085 HD
ATOM     14  H   UNL     1      35.378 -20.540 -18.474  0.00  0.00    -0.085 HD
ENDBRANCH   3   8
BRANCH   5  16
ATOM     15 CL   UNL     1      31.522 -10.514 -22.527  0.00  0.00    -0.082 Cl
ATOM     16  C   UNL     1      33.623 -14.499 -22.434  0.00  0.00    +0.019 C 
ATOM     17  C   UNL     1      33.894 -13.597 -23.459  0.00  0.00    +0.002 C 
ATOM     18  C   UNL     1      32.705 -14.176 -21.438  0.00  0.00    +0.002 C 
ATOM     19  C   UNL     1      33.243 -12.364 -23.488  0.00  0.00    +0.011 C 
ATOM     20  C   UNL     1      32.055 -12.942 -21.466  0.00  0.00    +0.011 C 
ATOM     21  C   UNL     1      32.325 -12.035 -22.491  0.00  0.00    +0.058 C 
ENDBRANCH   5  16
TORSDOF 2
ENDMDL
MODEL 5
REMARK VINA RESULT:      -9.0      1.566      2.004
REMARK  Name = 449126
REMARK  2 active torsions:
REMARK  status: ('A' for Active; 'I' for Inactive)
REMARK    1  A    between atoms: C_3  and  C_8
REMARK    2  A    between atoms: C_5  and  C_16
REMARK                            x       y       z     vdW  Elec       q    Type
REMARK                         _______ _______ _______ _____ _____    ______ ____
ROOT
ATOM      1  N   UNL     1      34.637 -16.494 -23.161  0.00  0.00    -0.240 N 
ATOM      2  N   UNL     1      34.778 -17.799 -22.874  0.00  0.00    -0.182 NA
ATOM      3  C   UNL     1      34.076 -15.778 -22.153  0.00  0.00    +0.044 C 
ATOM      4  C   UNL     1      33.829 -16.658 -21.138  0.00  0.00    +0.032 C 
ATOM      5  C   UNL     1      34.283 -17.894 -21.637  0.00  0.00    +0.099 C 
ATOM      6  H   UNL     1      34.914 -16.095 -24.018  0.00  0.00    +0.174 HD
ENDROOT
BRANCH   3   8
ATOM      7  N   UNL     1      32.375 -11.967 -23.313  0.00  0.00    +0.384 N 
ATOM      8  C   UNL     1      33.832 -14.282 -22.273  0.00  0.00    +0.033 C 
ATOM      9  C   UNL     1      32.450 -13.874 -21.739  0.00  0.00    -0.018 C 
ATOM     10  C   UNL     1      34.013 -13.777 -23.713  0.00  0.00    -0.018 C 
ATOM     11  C   UNL     1      32.214 -12.374 -21.916  0.00  0.00    -0.081 C 
ATOM     12  C   UNL     1      33.715 -12.280 -23.811  0.00  0.00    -0.081 C 
ATOM     13  H   UNL     1      32.222 -10.961 -23.384  0.00  0.00    -0.085 HD
ATOM     14  H   UNL     1      31.696 -12.480 -23.876  0.00  0.00    -0.085 HD
ENDBRANCH   3   8
BRANCH   5  16
ATOM     15 CL   UNL     1      34.155 -23.127 -18.815  0.00  0.00    -0.082 Cl
ATOM     16  C   UNL     1      34.252 -19.161 -20.954  0.00  0.00    +0.019 C 
ATOM     17  C   UNL     1      35.444 -19.814 -20.652  0.00  0.00    +0.002 C 
ATOM     18  C   UNL     1      33.030 -19.727 -20.598  0.00  0.00    +0.002 C 
ATOM     19  C   UNL     1      35.414 -21.041 -19.990  0.00  0.00    +0.011 C 
ATOM     20  C   UNL     1      33.000 -20.955 -19.937  0.00  0.00    +0.011 C 
ATOM     21  C   UNL     1      34.192 -21.613 -19.633  0.00  0.00    +0.058 C 
ENDBRANCH   5  16
TORSDOF 2
ENDMDL
MODEL 6
REMARK VINA RESULT:      -9.0      1.831      3.134
REMARK  Name = 449126
REMARK  2 active torsions:
REMARK  status: ('A' for Active; 'I' for Inactive)
REMARK    1  A    between atoms: C_3  and  C_8
REMARK    2  A    between atoms: C_5  and  C_16
REMARK                            x       y       z     vdW  Elec       q    Type
REMARK                         _______ _______ _______ _____ _____    ______ ____
ROOT
ATOM      1  N   UNL     1      36.384 -19.520 -21.078  0.00  0.00    -0.240 N 
ATOM      2  N   UNL     1      36.605 -20.332 -20.031  0.00  0.00    -0.182 NA
ATOM      3  C   UNL     1      35.072 -19.424 -21.417  0.00  0.00    +0.044 C 
ATOM      4  C   UNL     1      34.383 -20.218 -20.545  0.00  0.00    +0.032 C 
ATOM      5  C   UNL     1      35.380 -20.756 -19.709  0.00  0.00    +0.099 C 
ATOM      6  H   UNL     1      37.101 -19.042 -21.553  0.00  0.00    +0.174 HD
ENDROOT
BRANCH   3   8
ATOM      7  N   UNL     1      35.090 -16.950 -24.973  0.00  0.00    +0.384 N 
ATOM      8  C   UNL     1      34.606 -18.553 -22.573  0.00  0.00    +0.033 C 
ATOM      9  C   UNL     1      34.907 -19.190 -23.938  0.00  0.00    -0.018 C 
ATOM     10  C   UNL     1      35.196 -17.136 -22.508  0.00  0.00    -0.018 C 
ATOM     11  C   UNL     1      34.470 -18.272 -25.080  0.00  0.00    -0.081 C 
ATOM     12  C   UNL     1      34.748 -16.300 -23.708  0.00  0.00    -0.081 C 
ATOM     13  H   UNL     1      34.764 -16.368 -25.744  0.00  0.00    -0.085 HD
ATOM     14  H   UNL     1      36.103 -17.069 -25.008  0.00  0.00    -0.085 HD
ENDBRANCH   3   8
BRANCH   5  16
ATOM     15 CL   UNL     1      34.565 -24.511 -15.171  0.00  0.00    -0.082 Cl
ATOM     16  C   UNL     1      35.183 -21.665 -18.610  0.00  0.00    +0.019 C 
ATOM     17  C   UNL     1      36.183 -21.824 -17.655  0.00  0.00    +0.002 C 
ATOM     18  C   UNL     1      33.993 -22.381 -18.508  0.00  0.00    +0.002 C 
ATOM     19  C   UNL     1      35.992 -22.705 -16.590  0.00  0.00    +0.011 C 
ATOM     20  C   UNL     1      33.802 -23.262 -17.444  0.00  0.00    +0.011 C 
ATOM     21  C   UNL     1      34.801 -23.425 -16.485  0.00  0.00    +0.058 C 
ENDBRANCH   5  16
TORSDOF 2
ENDMDL
MODEL 7
REMARK VINA RESULT:      -8.9      4.993      9.077
REMARK  Name = 449126
REMARK  2 active torsions:
REMARK  status: ('A' for Active; 'I' for Inactive)
REMARK    1  A    between atoms: C_3  and  C_8
REMARK    2  A    between atoms: C_5  and  C_16
REMARK                            x       y       z     vdW  Elec       q    Type
REMARK                         _______ _______ _______ _____ _____    ______ ____
ROOT
ATOM      1  N   UNL     1      34.275 -23.465 -16.857  0.00  0.00    -0.240 N 
ATOM      2  N   UNL     1      34.936 -22.756 -17.789  0.00  0.00    -0.182 NA
ATOM      3  C   UNL     1      32.929 -23.292 -16.904  0.00  0.00    +0.044 C 
ATOM      4  C   UNL     1      32.681 -22.418 -17.924  0.00  0.00    +0.032 C 
ATOM      5  C   UNL     1      33.958 -22.119 -18.436  0.00  0.00    +0.099 C 
ATOM      6  H   UNL     1      34.723 -24.052 -16.206  0.00  0.00    +0.174 HD
ENDROOT
BRANCH   3   8
ATOM      7  N   UNL     1      30.465 -24.167 -13.450  0.00  0.00    +0.384 N 
ATOM      8  C   UNL     1      31.997 -24.007 -15.939  0.00  0.00    +0.033 C 
ATOM      9  C   UNL     1      30.676 -23.248 -15.738  0.00  0.00    -0.018 C 
ATOM     10  C   UNL     1      32.662 -24.279 -14.581  0.00  0.00    -0.018 C 
ATOM     11  C   UNL     1      29.779 -23.966 -14.728  0.00  0.00    -0.081 C 
ATOM     12  C   UNL     1      31.686 -24.955 -13.617  0.00  0.00    -0.081 C 
ATOM     13  H   UNL     1      29.839 -24.657 -12.812  0.00  0.00    -0.085 HD
ATOM     14  H   UNL     1      30.722 -23.252 -13.078  0.00  0.00    -0.085 HD
ENDBRANCH   3   8
BRANCH   5  16
ATOM     15 CL   UNL     1      35.197 -18.474 -22.969  0.00  0.00    -0.082 Cl
ATOM     16  C   UNL     1      34.258 -21.236 -19.534  0.00  0.00    +0.019 C 
ATOM     17  C   UNL     1      35.580 -21.042 -19.925  0.00  0.00    +0.002 C 
ATOM     18  C   UNL     1      33.225 -20.582 -20.200  0.00  0.00    +0.002 C 
ATOM     19  C   UNL     1      35.871 -20.187 -20.988  0.00  0.00    +0.011 C 
ATOM     20  C   UNL     1      33.516 -19.726 -21.263  0.00  0.00    +0.011 C 
ATOM     21  C   UNL     1      34.839 -19.528 -21.656  0.00  0.00    +0.058 C 
ENDBRANCH   5  16
TORSDOF 2
ENDMDL
MODEL 8
REMARK VINA RESULT:      -8.8      1.002      1.647
REMARK  Name = 449126
REMARK  2 active torsions:
REMARK  status: ('A' for Active; 'I' for Inactive)
REMARK    1  A    between atoms: C_3  and  C_8
REMARK    2  A    between atoms: C_5  and  C_16
REMARK                            x       y       z     vdW  Elec       q    Type
REMARK                         _______ _______ _______ _____ _____    ______ ____
ROOT
ATOM      1  N   UNL     1      35.320 -16.837 -23.562  0.00  0.00    -0.240 N 
ATOM      2  N   UNL     1      35.676 -17.956 -22.910  0.00  0.00    -0.182 NA
ATOM      3  C   UNL     1      34.129 -16.330 -23.152  0.00  0.00    +0.044 C 
ATOM      4  C   UNL     1      33.666 -17.160 -22.172  0.00  0.00    +0.032 C 
ATOM      5  C   UNL     1      34.662 -18.150 -22.062  0.00  0.00    +0.099 C 
ATOM      6  H   UNL     1      35.869 -16.424 -24.268  0.00  0.00    +0.174 HD
ENDROOT
BRANCH   3   8
ATOM      7  N   UNL     1      33.753 -12.617 -25.352  0.00  0.00    +0.384 N 
ATOM      8  C   UNL     1      33.546 -15.064 -23.761  0.00  0.00    +0.033 C 
ATOM      9  C   UNL     1      33.588 -15.085 -25.297  0.00  0.00    -0.018 C 
ATOM     10  C   UNL     1      34.230 -13.795 -23.230  0.00  0.00    -0.018 C 
ATOM     11  C   UNL     1      33.039 -13.782 -25.878  0.00  0.00    -0.081 C 
ATOM     12  C   UNL     1      33.656 -12.543 -23.894  0.00  0.00    -0.081 C 
ATOM     13  H   UNL     1      33.349 -11.771 -25.755  0.00  0.00    -0.085 HD
ATOM     14  H   UNL     1      34.738 -12.706 -25.603  0.00  0.00    -0.085 HD
ENDBRANCH   3   8
BRANCH   5  16
ATOM     15 CL   UNL     1      34.662 -22.791 -18.345  0.00  0.00    -0.082 Cl
ATOM     16  C   UNL     1      34.662 -19.273 -21.162  0.00  0.00    +0.019 C 
ATOM     17  C   UNL     1      35.870 -19.817 -20.733  0.00  0.00    +0.002 C 
ATOM     18  C   UNL     1      33.454 -19.812 -20.724  0.00  0.00    +0.002 C 
ATOM     19  C   UNL     1      35.870 -20.906 -19.861  0.00  0.00    +0.011 C 
ATOM     20  C   UNL     1      33.454 -20.901 -19.853  0.00  0.00    +0.011 C 
ATOM     21  C   UNL     1      34.662 -21.448 -19.422  0.00  0.00    +0.058 C 
ENDBRANCH   5  16
TORSDOF 2
ENDMDL
MODEL 9
REMARK VINA RESULT:      -8.8      4.628      9.019
REMARK  Name = 449126
REMARK  2 active torsions:
REMARK  status: ('A' for Active; 'I' for Inactive)
REMARK    1  A    between atoms: C_3  and  C_8
REMARK    2  A    between atoms: C_5  and  C_16
REMARK                            x       y       z     vdW  Elec       q    Type
REMARK                         _______ _______ _______ _____ _____    ______ ____
ROOT
ATOM      1  N   UNL     1      33.033 -23.200 -17.992  0.00  0.00    -0.240 N 
ATOM      2  N   UNL     1      33.032 -22.438 -19.099  0.00  0.00    -0.182 NA
ATOM      3  C   UNL     1      34.130 -23.016 -17.213  0.00  0.00    +0.044 C 
ATOM      4  C   UNL     1      34.902 -22.080 -17.839  0.00  0.00    +0.032 C 
ATOM      5  C   UNL     1      34.176 -21.757 -19.001  0.00  0.00    +0.099 C 
ATOM      6  H   UNL     1      32.309 -23.828 -17.767  0.00  0.00    +0.174 HD
ENDROOT
BRANCH   3   8
ATOM      7  N   UNL     1      34.647 -23.911 -13.007  0.00  0.00    +0.384 N 
ATOM      8  C   UNL     1      34.325 -23.779 -15.912  0.00  0.00    +0.033 C 
ATOM      9  C   UNL     1      33.145 -23.589 -14.946  0.00  0.00    -0.018 C 
ATOM     10  C   UNL     1      35.644 -23.411 -15.215  0.00  0.00    -0.018 C 
ATOM     11  C   UNL     1      33.390 -24.329 -13.630  0.00  0.00    -0.081 C 
ATOM     12  C   UNL     1      35.789 -24.157 -13.888  0.00  0.00    -0.081 C 
ATOM     13  H   UNL     1      34.778 -24.435 -12.141  0.00  0.00    -0.085 HD
ATOM     14  H   UNL     1      34.596 -22.909 -12.822  0.00  0.00    -0.085 HD
ENDBRANCH   3   8
BRANCH   5  16
ATOM     15 CL   UNL     1      35.742 -17.842 -23.195  0.00  0.00    -0.082 Cl
ATOM     16  C   UNL     1      34.555 -20.809 -20.017  0.00  0.00    +0.019 C 
ATOM     17  C   UNL     1      33.577 -20.215 -20.810  0.00  0.00    +0.002 C 
ATOM     18  C   UNL     1      35.898 -20.490 -20.201  0.00  0.00    +0.002 C 
ATOM     19  C   UNL     1      33.944 -19.297 -21.793  0.00  0.00    +0.011 C 
ATOM     20  C   UNL     1      36.266 -19.572 -21.185  0.00  0.00    +0.011 C 
ATOM     21  C   UNL     1      35.288 -18.976 -21.982  0.00  0.00    +0.058 C 
ENDBRANCH   5  16
TORSDOF 2
ENDMDL
