MODEL 1
REMARK VINA RESULT:      -7.1      0.000      0.000
REMARK  Name = 89594
REMARK  1 active torsions:
REMARK  status: ('A' for Active; 'I' for Inactive)
REMARK    1  A    between atoms: C_2  and  C_9
REMARK                            x       y       z     vdW  Elec       q    Type
REMARK                         _______ _______ _______ _____ _____    ______ ____
ROOT
ATOM      1  N   UNL     1      34.488 -18.296 -22.989  0.00  0.00    +0.389 N 
ATOM      2  C   UNL     1      35.211 -18.504 -21.720  0.00  0.00    -0.033 C 
ATOM      3  C   UNL     1      35.136 -17.145 -20.999  0.00  0.00    -0.019 C 
ATOM      4  C   UNL     1      34.408 -16.222 -21.966  0.00  0.00    -0.025 C 
ATOM      5  C   UNL     1      34.625 -16.876 -23.315  0.00  0.00    -0.077 C 
ATOM      6  C   UNL     1      34.962 -19.153 -24.068  0.00  0.00    -0.100 C 
ATOM      7  H   UNL     1      33.508 -18.555 -22.879  0.00  0.00    -0.079 HD
ENDROOT
BRANCH   2   9
ATOM      8  N   UNL     1      32.680 -20.765 -20.034  0.00  0.00    -0.243 NA
ATOM      9  C   UNL     1      34.630 -19.635 -20.897  0.00  0.00    -0.022 C 
ATOM     10  C   UNL     1      35.458 -20.552 -20.264  0.00  0.00    -0.003 C 
ATOM     11  C   UNL     1      33.262 -19.780 -20.755  0.00  0.00    +0.093 C 
ATOM     12  C   UNL     1      34.895 -21.580 -19.514  0.00  0.00    +0.020 C 
ATOM     13  C   UNL     1      33.513 -21.641 -19.431  0.00  0.00    +0.099 C 
ENDBRANCH   2   9
TORSDOF 1
ENDMDL
MODEL 2
REMARK VINA RESULT:      -7.0      1.232      4.544
REMARK  Name = 89594
REMARK  1 active torsions:
REMARK  status: ('A' for Active; 'I' for Inactive)
REMARK    1  A    between atoms: C_2  and  C_9
REMARK                            x       y       z     vdW  Elec       q    Type
REMARK                         _______ _______ _______ _____ _____    ______ ____
ROOT
ATOM      1  N   UNL     1      34.161 -20.146 -20.892  0.00  0.00    +0.389 N 
ATOM      2  C   UNL     1      34.979 -18.929 -21.063  0.00  0.00    -0.033 C 
ATOM      3  C   UNL     1      36.410 -19.365 -20.696  0.00  0.00    -0.019 C 
ATOM      4  C   UNL     1      36.286 -20.822 -20.273  0.00  0.00    -0.025 C 
ATOM      5  C   UNL     1      34.831 -20.954 -19.873  0.00  0.00    -0.077 C 
ATOM      6  C   UNL     1      32.775 -19.861 -20.542  0.00  0.00    -0.100 C 
ATOM      7  H   UNL     1      34.096 -20.649 -21.777  0.00  0.00    -0.079 HD
ENDROOT
BRANCH   2   9
ATOM      8  N   UNL     1      34.893 -16.416 -23.897  0.00  0.00    -0.243 NA
ATOM      9  C   UNL     1      34.884 -18.355 -22.461  0.00  0.00    -0.022 C 
ATOM     10  C   UNL     1      34.704 -19.184 -23.560  0.00  0.00    -0.003 C 
ATOM     11  C   UNL     1      34.971 -16.992 -22.677  0.00  0.00    +0.093 C 
ATOM     12  C   UNL     1      34.619 -18.628 -24.832  0.00  0.00    +0.020 C 
ATOM     13  C   UNL     1      34.718 -17.250 -24.946  0.00  0.00    +0.099 C 
ENDBRANCH   2   9
TORSDOF 1
ENDMDL
MODEL 3
REMARK VINA RESULT:      -6.9      0.855      1.396
REMARK  Name = 89594
REMARK  1 active torsions:
REMARK  status: ('A' for Active; 'I' for Inactive)
REMARK    1  A    between atoms: C_2  and  C_9
REMARK                            x       y       z     vdW  Elec       q    Type
REMARK                         _______ _______ _______ _____ _____    ______ ____
ROOT
ATOM      1  N   UNL     1      34.523 -18.252 -22.990  0.00  0.00    +0.389 N 
ATOM      2  C   UNL     1      35.275 -18.437 -21.734  0.00  0.00    -0.033 C 
ATOM      3  C   UNL     1      35.156 -17.086 -21.005  0.00  0.00    -0.019 C 
ATOM      4  C   UNL     1      34.374 -16.188 -21.953  0.00  0.00    -0.025 C 
ATOM      5  C   UNL     1      34.595 -16.826 -23.310  0.00  0.00    -0.077 C 
ATOM      6  C   UNL     1      35.014 -19.083 -24.082  0.00  0.00    -0.100 C 
ATOM      7  H   UNL     1      33.556 -18.552 -22.865  0.00  0.00    -0.079 HD
ENDROOT
BRANCH   2   9
ATOM      8  N   UNL     1      35.224 -21.571 -19.606  0.00  0.00    -0.243 NA
ATOM      9  C   UNL     1      34.755 -19.595 -20.909  0.00  0.00    -0.022 C 
ATOM     10  C   UNL     1      33.393 -19.761 -20.694  0.00  0.00    -0.003 C 
ATOM     11  C   UNL     1      35.622 -20.516 -20.351  0.00  0.00    +0.093 C 
ATOM     12  C   UNL     1      32.945 -20.834 -19.932  0.00  0.00    +0.020 C 
ATOM     13  C   UNL     1      33.892 -21.704 -19.415  0.00  0.00    +0.099 C 
ENDBRANCH   2   9
TORSDOF 1
ENDMDL
MODEL 4
REMARK VINA RESULT:      -6.9      1.294      2.358
REMARK  Name = 89594
REMARK  1 active torsions:
REMARK  status: ('A' for Active; 'I' for Inactive)
REMARK    1  A    between atoms: C_2  and  C_9
REMARK                            x       y       z     vdW  Elec       q    Type
REMARK                         _______ _______ _______ _____ _____    ______ ____
ROOT
ATOM      1  N   UNL     1      35.196 -17.551 -21.740  0.00  0.00    +0.389 N 
ATOM      2  C   UNL     1      34.236 -18.660 -21.903  0.00  0.00    -0.033 C 
ATOM      3  C   UNL     1      34.405 -19.111 -23.366  0.00  0.00    -0.019 C 
ATOM      4  C   UNL     1      35.433 -18.159 -23.960  0.00  0.00    -0.025 C 
ATOM      5  C   UNL     1      35.353 -16.942 -23.061  0.00  0.00    -0.077 C 
ATOM      6  C   UNL     1      34.785 -16.580 -20.734  0.00  0.00    -0.100 C 
ATOM      7  H   UNL     1      36.086 -17.908 -21.392  0.00  0.00    -0.079 HD
ENDROOT
BRANCH   2   9
ATOM      8  N   UNL     1      36.030 -21.162 -19.694  0.00  0.00    -0.243 NA
ATOM      9  C   UNL     1      34.471 -19.783 -20.915  0.00  0.00    -0.022 C 
ATOM     10  C   UNL     1      33.403 -20.455 -20.336  0.00  0.00    -0.003 C 
ATOM     11  C   UNL     1      35.753 -20.168 -20.567  0.00  0.00    +0.093 C 
ATOM     12  C   UNL     1      33.649 -21.483 -19.432  0.00  0.00    +0.020 C 
ATOM     13  C   UNL     1      34.969 -21.796 -19.148  0.00  0.00    +0.099 C 
ENDBRANCH   2   9
TORSDOF 1
ENDMDL
MODEL 5
REMARK VINA RESULT:      -6.7      2.380      5.723
REMARK  Name = 89594
REMARK  1 active torsions:
REMARK  status: ('A' for Active; 'I' for Inactive)
REMARK    1  A    between atoms: C_2  and  C_9
REMARK                            x       y       z     vdW  Elec       q    Type
REMARK                         _______ _______ _______ _____ _____    ______ ____
ROOT
ATOM      1  N   UNL     1      34.421 -17.096 -21.762  0.00  0.00    +0.389 N 
ATOM      2  C   UNL     1      35.143 -16.945 -23.040  0.00  0.00    -0.033 C 
ATOM      3  C   UNL     1      35.376 -18.386 -23.530  0.00  0.00    -0.019 C 
ATOM      4  C   UNL     1      34.808 -19.276 -22.434  0.00  0.00    -0.025 C 
ATOM      5  C   UNL     1      34.827 -18.387 -21.207  0.00  0.00    -0.077 C 
ATOM      6  C   UNL     1      34.663 -16.000 -20.832  0.00  0.00    -0.100 C 
ATOM      7  H   UNL     1      33.414 -17.066 -21.924  0.00  0.00    -0.079 HD
ENDROOT
BRANCH   2   9
ATOM      8  N   UNL     1      33.474 -15.864 -26.266  0.00  0.00    -0.243 NA
ATOM      9  C   UNL     1      34.382 -16.103 -24.043  0.00  0.00    -0.022 C 
ATOM     10  C   UNL     1      33.907 -14.844 -23.700  0.00  0.00    -0.003 C 
ATOM     11  C   UNL     1      34.144 -16.566 -25.324  0.00  0.00    +0.093 C 
ATOM     12  C   UNL     1      33.213 -14.093 -24.642  0.00  0.00    +0.020 C 
ATOM     13  C   UNL     1      33.025 -14.643 -25.900  0.00  0.00    +0.099 C 
ENDBRANCH   2   9
TORSDOF 1
ENDMDL
MODEL 6
REMARK VINA RESULT:      -6.6      1.739      2.499
REMARK  Name = 89594
REMARK  1 active torsions:
REMARK  status: ('A' for Active; 'I' for Inactive)
REMARK    1  A    between atoms: C_2  and  C_9
REMARK                            x       y       z     vdW  Elec       q    Type
REMARK                         _______ _______ _______ _____ _____    ______ ____
ROOT
ATOM      1  N   UNL     1      34.008 -16.129 -22.845  0.00  0.00    +0.389 N 
ATOM      2  C   UNL     1      34.944 -16.408 -21.740  0.00  0.00    -0.033 C 
ATOM      3  C   UNL     1      34.534 -15.430 -20.623  0.00  0.00    -0.019 C 
ATOM      4  C   UNL     1      33.402 -14.603 -21.215  0.00  0.00    -0.025 C 
ATOM      5  C   UNL     1      33.614 -14.727 -22.710  0.00  0.00    -0.077 C 
ATOM      6  C   UNL     1      34.568 -16.416 -24.159  0.00  0.00    -0.100 C 
ATOM      7  H   UNL     1      33.198 -16.746 -22.781  0.00  0.00    -0.079 HD
ENDROOT
BRANCH   2   9
ATOM      8  N   UNL     1      36.102 -19.831 -20.598  0.00  0.00    -0.243 NA
ATOM      9  C   UNL     1      34.904 -17.855 -21.293  0.00  0.00    -0.022 C 
ATOM     10  C   UNL     1      33.696 -18.529 -21.170  0.00  0.00    -0.003 C 
ATOM     11  C   UNL     1      36.069 -18.541 -21.000  0.00  0.00    +0.093 C 
ATOM     12  C   UNL     1      33.691 -19.857 -20.759  0.00  0.00    +0.020 C 
ATOM     13  C   UNL     1      34.910 -20.458 -20.488  0.00  0.00    +0.099 C 
ENDBRANCH   2   9
TORSDOF 1
ENDMDL
MODEL 7
REMARK VINA RESULT:      -6.5      3.380      4.579
REMARK  Name = 89594
REMARK  1 active torsions:
REMARK  status: ('A' for Active; 'I' for Inactive)
REMARK    1  A    between atoms: C_2  and  C_9
REMARK                            x       y       z     vdW  Elec       q    Type
REMARK                         _______ _______ _______ _____ _____    ______ ____
ROOT
ATOM      1  N   UNL     1      33.013 -14.565 -22.803  0.00  0.00    +0.389 N 
ATOM      2  C   UNL     1      34.337 -15.186 -22.604  0.00  0.00    -0.033 C 
ATOM      3  C   UNL     1      34.451 -15.384 -21.081  0.00  0.00    -0.019 C 
ATOM      4  C   UNL     1      33.174 -14.789 -20.506  0.00  0.00    -0.025 C 
ATOM      5  C   UNL     1      32.716 -13.822 -21.578  0.00  0.00    -0.077 C 
ATOM      6  C   UNL     1      32.948 -13.718 -23.987  0.00  0.00    -0.100 C 
ATOM      7  H   UNL     1      32.312 -15.286 -22.975  0.00  0.00    -0.079 HD
ENDROOT
BRANCH   2   9
ATOM      8  N   UNL     1      34.531 -17.620 -25.502  0.00  0.00    -0.243 NA
ATOM      9  C   UNL     1      34.495 -16.480 -23.375  0.00  0.00    -0.022 C 
ATOM     10  C   UNL     1      34.738 -17.677 -22.715  0.00  0.00    -0.003 C 
ATOM     11  C   UNL     1      34.401 -16.501 -24.755  0.00  0.00    +0.093 C 
ATOM     12  C   UNL     1      34.878 -18.849 -23.449  0.00  0.00    +0.020 C 
ATOM     13  C   UNL     1      34.767 -18.768 -24.829  0.00  0.00    +0.099 C 
ENDBRANCH   2   9
TORSDOF 1
ENDMDL
MODEL 8
REMARK VINA RESULT:      -6.3      9.396     10.815
REMARK  Name = 89594
REMARK  1 active torsions:
REMARK  status: ('A' for Active; 'I' for Inactive)
REMARK    1  A    between atoms: C_2  and  C_9
REMARK                            x       y       z     vdW  Elec       q    Type
REMARK                         _______ _______ _______ _____ _____    ______ ____
ROOT
ATOM      1  N   UNL     1      32.301  -7.225 -23.003  0.00  0.00    +0.389 N 
ATOM      2  C   UNL     1      32.441  -8.694 -23.031  0.00  0.00    -0.033 C 
ATOM      3  C   UNL     1      33.911  -8.939 -23.420  0.00  0.00    -0.019 C 
ATOM      4  C   UNL     1      34.498  -7.554 -23.650  0.00  0.00    -0.025 C 
ATOM      5  C   UNL     1      33.284  -6.698 -23.949  0.00  0.00    -0.077 C 
ATOM      6  C   UNL     1      30.950  -6.772 -23.308  0.00  0.00    -0.100 C 
ATOM      7  H   UNL     1      32.473  -6.876 -22.060  0.00  0.00    -0.079 HD
ENDROOT
BRANCH   2   9
ATOM      8  N   UNL     1      32.079  -9.251 -19.300  0.00  0.00    -0.243 NA
ATOM      9  C   UNL     1      32.071  -9.339 -21.712  0.00  0.00    -0.022 C 
ATOM     10  C   UNL     1      31.413 -10.562 -21.678  0.00  0.00    -0.003 C 
ATOM     11  C   UNL     1      32.379  -8.728 -20.510  0.00  0.00    +0.093 C 
ATOM     12  C   UNL     1      31.087 -11.131 -20.452  0.00  0.00    +0.020 C 
ATOM     13  C   UNL     1      31.438 -10.442 -19.302  0.00  0.00    +0.099 C 
ENDBRANCH   2   9
TORSDOF 1
ENDMDL
MODEL 9
REMARK VINA RESULT:      -6.3      2.238      5.633
REMARK  Name = 89594
REMARK  1 active torsions:
REMARK  status: ('A' for Active; 'I' for Inactive)
REMARK    1  A    between atoms: C_2  and  C_9
REMARK                            x       y       z     vdW  Elec       q    Type
REMARK                         _______ _______ _______ _____ _____    ______ ____
ROOT
ATOM      1  N   UNL     1      35.435 -22.030 -17.384  0.00  0.00    +0.389 N 
ATOM      2  C   UNL     1      34.805 -22.486 -18.638  0.00  0.00    -0.033 C 
ATOM      3  C   UNL     1      33.550 -23.258 -18.187  0.00  0.00    -0.019 C 
ATOM      4  C   UNL     1      33.594 -23.235 -16.666  0.00  0.00    -0.025 C 
ATOM      5  C   UNL     1      35.058 -23.000 -16.355  0.00  0.00    -0.077 C 
ATOM      6  C   UNL     1      36.880 -21.878 -17.490  0.00  0.00    -0.100 C 
ATOM      7  H   UNL     1      35.103 -21.095 -17.147  0.00  0.00    -0.079 HD
ENDROOT
BRANCH   2   9
ATOM      8  N   UNL     1      35.261 -19.664 -21.124  0.00  0.00    -0.243 NA
ATOM      9  C   UNL     1      34.481 -21.343 -19.576  0.00  0.00    -0.022 C 
ATOM     10  C   UNL     1      33.171 -20.920 -19.758  0.00  0.00    -0.003 C 
ATOM     11  C   UNL     1      35.482 -20.691 -20.274  0.00  0.00    +0.093 C 
ATOM     12  C   UNL     1      32.905 -19.867 -20.626  0.00  0.00    +0.020 C 
ATOM     13  C   UNL     1      33.975 -19.277 -21.279  0.00  0.00    +0.099 C 
ENDBRANCH   2   9
TORSDOF 1
ENDMDL
