MODEL 1
REMARK VINA RESULT:      -7.7      0.000      0.000
REMARK  Name = 5460580
REMARK  5 active torsions:
REMARK  status: ('A' for Active; 'I' for Inactive)
REMARK    1  A    between atoms: C_1  and  O_12
REMARK    2  A    between atoms: C_2  and  O_10
REMARK    3  A    between atoms: C_3  and  C_9
REMARK    4  A    between atoms: O_12  and  C_13
REMARK    5  A    between atoms: C_13  and  C_17
REMARK                            x       y       z     vdW  Elec       q    Type
REMARK                         _______ _______ _______ _____ _____    ______ ____
ROOT
ATOM      1  C   UNL     1      34.681 -24.010 -15.016  0.00  0.00    +0.179 C 
ATOM      2  C   UNL     1      33.520 -24.346 -14.048  0.00  0.00    +0.175 C 
ATOM      3  C   UNL     1      32.157 -24.271 -14.676  0.00  0.00    +0.116 C 
ATOM      4  C   UNL     1      34.275 -23.199 -16.217  0.00  0.00    +0.041 C 
ATOM      5  C   UNL     1      31.924 -23.674 -15.853  0.00  0.00    +0.010 C 
ATOM      6  C   UNL     1      32.994 -23.041 -16.582  0.00  0.00    +0.004 C 
ENDROOT
BRANCH   3   9
ATOM      7  O   UNL     1      30.348 -25.767 -14.654  0.00  0.00    -0.240 OA
ATOM      8  O   UNL     1      30.759 -24.486 -12.803  0.00  0.00    -0.240 OA
ATOM      9  C   UNL     1      30.972 -24.903 -13.976  0.00  0.00    +0.391 C 
ENDBRANCH   3   9
BRANCH   2  10
ATOM     10  O   UNL     1      33.531 -23.417 -12.962  0.00  0.00    -0.503 OA
ATOM     11  H   UNL     1      33.247 -22.545 -13.281  0.00  0.00    +0.292 HD
ENDBRANCH   2  10
BRANCH   1  12
ATOM     12  O   UNL     1      35.246 -25.236 -15.483  0.00  0.00    -0.444 OA
BRANCH  12  13
ATOM     13  C   UNL     1      36.484 -25.436 -14.977  0.00  0.00    +0.225 C 
ATOM     14  C   UNL     1      37.071 -24.491 -14.236  0.00  0.00    +0.048 C 
BRANCH  13  17
ATOM     15  O   UNL     1      36.692 -27.403 -16.287  0.00  0.00    -0.237 OA
ATOM     16  O   UNL     1      38.121 -27.119 -14.532  0.00  0.00    -0.237 OA
ATOM     17  C   UNL     1      37.170 -26.781 -15.292  0.00  0.00    +0.422 C 
ENDBRANCH  13  17
ENDBRANCH  12  13
ENDBRANCH   1  12
TORSDOF 5
ENDMDL
MODEL 2
REMARK VINA RESULT:      -7.5      2.591      5.211
REMARK  Name = 5460580
REMARK  5 active torsions:
REMARK  status: ('A' for Active; 'I' for Inactive)
REMARK    1  A    between atoms: C_1  and  O_12
REMARK    2  A    between atoms: C_2  and  O_10
REMARK    3  A    between atoms: C_3  and  C_9
REMARK    4  A    between atoms: O_12  and  C_13
REMARK    5  A    between atoms: C_13  and  C_17
REMARK                            x       y       z     vdW  Elec       q    Type
REMARK                         _______ _______ _______ _____ _____    ______ ____
ROOT
ATOM      1  C   UNL     1      34.699 -24.419 -14.397  0.00  0.00    +0.179 C 
ATOM      2  C   UNL     1      35.148 -24.013 -12.972  0.00  0.00    +0.175 C 
ATOM      3  C   UNL     1      36.638 -24.027 -12.773  0.00  0.00    +0.116 C 
ATOM      4  C   UNL     1      35.713 -25.223 -15.165  0.00  0.00    +0.041 C 
ATOM      5  C   UNL     1      37.485 -24.625 -13.620  0.00  0.00    +0.010 C 
ATOM      6  C   UNL     1      36.995 -25.320 -14.784  0.00  0.00    +0.004 C 
ENDROOT
BRANCH   3   9
ATOM      7  O   UNL     1      38.083 -22.427 -11.844  0.00  0.00    -0.240 OA
ATOM      8  O   UNL     1      36.823 -23.734 -10.451  0.00  0.00    -0.240 OA
ATOM      9  C   UNL     1      37.240 -23.328 -11.572  0.00  0.00    +0.391 C 
ENDBRANCH   3   9
BRANCH   2  10
ATOM     10  O   UNL     1      34.592 -24.929 -12.026  0.00  0.00    -0.503 OA
ATOM     11  H   UNL     1      35.301 -25.476 -11.651  0.00  0.00    +0.292 HD
ENDBRANCH   2  10
BRANCH   1  12
ATOM     12  O   UNL     1      34.427 -23.229 -15.138  0.00  0.00    -0.444 OA
BRANCH  12  13
ATOM     13  C   UNL     1      33.227 -23.294 -15.759  0.00  0.00    +0.225 C 
ATOM     14  C   UNL     1      32.108 -23.468 -15.048  0.00  0.00    +0.048 C 
BRANCH  13  17
ATOM     15  O   UNL     1      32.139 -22.697 -17.781  0.00  0.00    -0.237 OA
ATOM     16  O   UNL     1      34.265 -23.516 -17.900  0.00  0.00    -0.237 OA
ATOM     17  C   UNL     1      33.215 -23.157 -17.295  0.00  0.00    +0.422 C 
ENDBRANCH  13  17
ENDBRANCH  12  13
ENDBRANCH   1  12
TORSDOF 5
ENDMDL
MODEL 3
REMARK VINA RESULT:      -7.4      2.594      3.492
REMARK  Name = 5460580
REMARK  5 active torsions:
REMARK  status: ('A' for Active; 'I' for Inactive)
REMARK    1  A    between atoms: C_1  and  O_12
REMARK    2  A    between atoms: C_2  and  O_10
REMARK    3  A    between atoms: C_3  and  C_9
REMARK    4  A    between atoms: O_12  and  C_13
REMARK    5  A    between atoms: C_13  and  C_17
REMARK                            x       y       z     vdW  Elec       q    Type
REMARK                         _______ _______ _______ _____ _____    ______ ____
ROOT
ATOM      1  C   UNL     1      36.508 -23.601 -15.168  0.00  0.00    +0.179 C 
ATOM      2  C   UNL     1      35.041 -23.566 -15.664  0.00  0.00    +0.175 C 
ATOM      3  C   UNL     1      34.868 -22.930 -17.015  0.00  0.00    +0.116 C 
ATOM      4  C   UNL     1      37.412 -22.591 -15.822  0.00  0.00    +0.041 C 
ATOM      5  C   UNL     1      35.814 -22.184 -17.602  0.00  0.00    +0.010 C 
ATOM      6  C   UNL     1      37.069 -21.934 -16.940  0.00  0.00    +0.004 C 
ENDROOT
BRANCH   3   9
ATOM      7  O   UNL     1      33.718 -23.476 -18.988  0.00  0.00    -0.240 OA
ATOM      8  O   UNL     1      32.522 -22.937 -17.113  0.00  0.00    -0.240 OA
ATOM      9  C   UNL     1      33.576 -23.134 -17.779  0.00  0.00    +0.391 C 
ENDBRANCH   3   9
BRANCH   2  10
ATOM     10  O   UNL     1      34.252 -22.811 -14.743  0.00  0.00    -0.503 OA
ATOM     11  H   UNL     1      33.377 -23.221 -14.655  0.00  0.00    +0.292 HD
ENDBRANCH   2  10
BRANCH   1  12
ATOM     12  O   UNL     1      37.039 -24.901 -15.427  0.00  0.00    -0.444 OA
BRANCH  12  13
ATOM     13  C   UNL     1      37.789 -25.346 -14.393  0.00  0.00    +0.225 C 
ATOM     14  C   UNL     1      37.241 -25.514 -13.186  0.00  0.00    +0.048 C 
BRANCH  13  17
ATOM     15  O   UNL     1      39.585 -26.873 -14.655  0.00  0.00    -0.237 OA
ATOM     16  O   UNL     1      40.020 -24.646 -14.887  0.00  0.00    -0.237 OA
ATOM     17  C   UNL     1      39.276 -25.645 -14.674  0.00  0.00    +0.422 C 
ENDBRANCH  13  17
ENDBRANCH  12  13
ENDBRANCH   1  12
TORSDOF 5
ENDMDL
MODEL 4
REMARK VINA RESULT:      -7.3      2.186      5.445
REMARK  Name = 5460580
REMARK  5 active torsions:
REMARK  status: ('A' for Active; 'I' for Inactive)
REMARK    1  A    between atoms: C_1  and  O_12
REMARK    2  A    between atoms: C_2  and  O_10
REMARK    3  A    between atoms: C_3  and  C_9
REMARK    4  A    between atoms: O_12  and  C_13
REMARK    5  A    between atoms: C_13  and  C_17
REMARK                            x       y       z     vdW  Elec       q    Type
REMARK                         _______ _______ _______ _____ _____    ______ ____
ROOT
ATOM      1  C   UNL     1      34.459 -24.420 -13.980  0.00  0.00    +0.179 C 
ATOM      2  C   UNL     1      35.139 -24.015 -12.649  0.00  0.00    +0.175 C 
ATOM      3  C   UNL     1      36.609 -23.726 -12.776  0.00  0.00    +0.116 C 
ATOM      4  C   UNL     1      35.403 -24.944 -15.029  0.00  0.00    +0.041 C 
ATOM      5  C   UNL     1      37.336 -24.080 -13.845  0.00  0.00    +0.010 C 
ATOM      6  C   UNL     1      36.732 -24.791 -14.944  0.00  0.00    +0.004 C 
ENDROOT
BRANCH   3   9
ATOM      7  O   UNL     1      38.285 -22.257 -12.041  0.00  0.00    -0.240 OA
ATOM      8  O   UNL     1      36.877 -23.202 -10.504  0.00  0.00    -0.240 OA
ATOM      9  C   UNL     1      37.327 -22.990 -11.665  0.00  0.00    +0.391 C 
ENDBRANCH   3   9
BRANCH   2  10
ATOM     10  O   UNL     1      35.004 -25.083 -11.709  0.00  0.00    -0.503 OA
ATOM     11  H   UNL     1      34.080 -25.144 -11.420  0.00  0.00    +0.292 HD
ENDBRANCH   2  10
BRANCH   1  12
ATOM     12  O   UNL     1      33.799 -23.271 -14.515  0.00  0.00    -0.444 OA
BRANCH  12  13
ATOM     13  C   UNL     1      32.557 -23.573 -14.956  0.00  0.00    +0.225 C 
ATOM     14  C   UNL     1      32.224 -23.358 -16.232  0.00  0.00    +0.048 C 
BRANCH  13  17
ATOM     15  O   UNL     1      31.383 -23.460 -12.898  0.00  0.00    -0.237 OA
ATOM     16  O   UNL     1      31.050 -25.281 -14.231  0.00  0.00    -0.237 OA
ATOM     17  C   UNL     1      31.566 -24.166 -13.933  0.00  0.00    +0.422 C 
ENDBRANCH  13  17
ENDBRANCH  12  13
ENDBRANCH   1  12
TORSDOF 5
ENDMDL
MODEL 5
REMARK VINA RESULT:      -7.3      8.649     10.198
REMARK  Name = 5460580
REMARK  5 active torsions:
REMARK  status: ('A' for Active; 'I' for Inactive)
REMARK    1  A    between atoms: C_1  and  O_12
REMARK    2  A    between atoms: C_2  and  O_10
REMARK    3  A    between atoms: C_3  and  C_9
REMARK    4  A    between atoms: O_12  and  C_13
REMARK    5  A    between atoms: C_13  and  C_17
REMARK                            x       y       z     vdW  Elec       q    Type
REMARK                         _______ _______ _______ _____ _____    ______ ____
ROOT
ATOM      1  C   UNL     1      35.042 -18.173 -21.842  0.00  0.00    +0.179 C 
ATOM      2  C   UNL     1      34.333 -17.031 -21.072  0.00  0.00    +0.175 C 
ATOM      3  C   UNL     1      33.739 -15.972 -21.959  0.00  0.00    +0.116 C 
ATOM      4  C   UNL     1      35.466 -17.813 -23.240  0.00  0.00    +0.041 C 
ATOM      5  C   UNL     1      34.050 -15.843 -23.256  0.00  0.00    +0.010 C 
ATOM      6  C   UNL     1      35.008 -16.724 -23.875  0.00  0.00    +0.004 C 
ENDROOT
BRANCH   3   9
ATOM      7  O   UNL     1      32.132 -14.286 -22.246  0.00  0.00    -0.240 OA
ATOM      8  O   UNL     1      32.610 -15.023 -20.133  0.00  0.00    -0.240 OA
ATOM      9  C   UNL     1      32.729 -14.999 -21.390  0.00  0.00    +0.391 C 
ENDBRANCH   3   9
BRANCH   2  10
ATOM     10  O   UNL     1      35.280 -16.380 -20.222  0.00  0.00    -0.503 OA
ATOM     11  H   UNL     1      36.164 -16.439 -20.618  0.00  0.00    +0.292 HD
ENDBRANCH   2  10
BRANCH   1  12
ATOM     12  O   UNL     1      34.146 -19.283 -21.924  0.00  0.00    -0.444 OA
BRANCH  12  13
ATOM     13  C   UNL     1      34.302 -20.125 -20.878  0.00  0.00    +0.225 C 
ATOM     14  C   UNL     1      35.525 -20.461 -20.459  0.00  0.00    +0.048 C 
BRANCH  13  17
ATOM     15  O   UNL     1      32.102 -19.809 -20.048  0.00  0.00    -0.237 OA
ATOM     16  O   UNL     1      33.028 -21.887 -19.885  0.00  0.00    -0.237 OA
ATOM     17  C   UNL     1      33.022 -20.665 -20.206  0.00  0.00    +0.422 C 
ENDBRANCH  13  17
ENDBRANCH  12  13
ENDBRANCH   1  12
TORSDOF 5
ENDMDL
MODEL 6
REMARK VINA RESULT:      -7.1      1.947      6.156
REMARK  Name = 5460580
REMARK  5 active torsions:
REMARK  status: ('A' for Active; 'I' for Inactive)
REMARK    1  A    between atoms: C_1  and  O_12
REMARK    2  A    between atoms: C_2  and  O_10
REMARK    3  A    between atoms: C_3  and  C_9
REMARK    4  A    between atoms: O_12  and  C_13
REMARK    5  A    between atoms: C_13  and  C_17
REMARK                            x       y       z     vdW  Elec       q    Type
REMARK                         _______ _______ _______ _____ _____    ______ ____
ROOT
ATOM      1  C   UNL     1      36.373 -23.741 -14.299  0.00  0.00    +0.179 C 
ATOM      2  C   UNL     1      37.666 -24.267 -14.970  0.00  0.00    +0.175 C 
ATOM      3  C   UNL     1      38.671 -24.831 -14.005  0.00  0.00    +0.116 C 
ATOM      4  C   UNL     1      36.521 -23.407 -12.838  0.00  0.00    +0.041 C 
ATOM      5  C   UNL     1      38.615 -24.622 -12.683  0.00  0.00    +0.010 C 
ATOM      6  C   UNL     1      37.571 -23.810 -12.109  0.00  0.00    +0.004 C 
ENDROOT
BRANCH   3   9
ATOM      7  O   UNL     1      39.533 -26.916 -14.650  0.00  0.00    -0.240 OA
ATOM      8  O   UNL     1      40.881 -25.071 -14.758  0.00  0.00    -0.240 OA
ATOM      9  C   UNL     1      39.806 -25.689 -14.521  0.00  0.00    +0.391 C 
ENDBRANCH   3   9
BRANCH   2  10
ATOM     10  O   UNL     1      38.306 -23.193 -15.660  0.00  0.00    -0.503 OA
ATOM     11  H   UNL     1      37.764 -22.927 -16.420  0.00  0.00    +0.292 HD
ENDBRANCH   2  10
BRANCH   1  12
ATOM     12  O   UNL     1      35.363 -24.744 -14.421  0.00  0.00    -0.444 OA
BRANCH  12  13
ATOM     13  C   UNL     1      34.178 -24.212 -14.799  0.00  0.00    +0.225 C 
ATOM     14  C   UNL     1      34.065 -23.584 -15.973  0.00  0.00    +0.048 C 
BRANCH  13  17
ATOM     15  O   UNL     1      33.060 -23.650 -12.783  0.00  0.00    -0.237 OA
ATOM     16  O   UNL     1      32.086 -25.179 -14.168  0.00  0.00    -0.237 OA
ATOM     17  C   UNL     1      32.991 -24.365 -13.827  0.00  0.00    +0.422 C 
ENDBRANCH  13  17
ENDBRANCH  12  13
ENDBRANCH   1  12
TORSDOF 5
ENDMDL
MODEL 7
REMARK VINA RESULT:      -7.1     12.095     13.764
REMARK  Name = 5460580
REMARK  5 active torsions:
REMARK  status: ('A' for Active; 'I' for Inactive)
REMARK    1  A    between atoms: C_1  and  O_12
REMARK    2  A    between atoms: C_2  and  O_10
REMARK    3  A    between atoms: C_3  and  C_9
REMARK    4  A    between atoms: O_12  and  C_13
REMARK    5  A    between atoms: C_13  and  C_17
REMARK                            x       y       z     vdW  Elec       q    Type
REMARK                         _______ _______ _______ _____ _____    ______ ____
ROOT
ATOM      1  C   UNL     1      33.552 -15.146 -23.268  0.00  0.00    +0.179 C 
ATOM      2  C   UNL     1      33.736 -14.087 -24.383  0.00  0.00    +0.175 C 
ATOM      3  C   UNL     1      33.423 -12.682 -23.951  0.00  0.00    +0.116 C 
ATOM      4  C   UNL     1      32.643 -14.719 -22.147  0.00  0.00    +0.041 C 
ATOM      5  C   UNL     1      32.754 -12.393 -22.827  0.00  0.00    +0.010 C 
ATOM      6  C   UNL     1      32.273 -13.443 -21.965  0.00  0.00    +0.004 C 
ENDROOT
BRANCH   3   9
ATOM      7  O   UNL     1      34.208 -10.479 -24.155  0.00  0.00    -0.240 OA
ATOM      8  O   UNL     1      33.888 -11.729 -26.045  0.00  0.00    -0.240 OA
ATOM      9  C   UNL     1      33.884 -11.517 -24.800  0.00  0.00    +0.391 C 
ENDBRANCH   3   9
BRANCH   2  10
ATOM     10  O   UNL     1      32.860 -14.394 -25.470  0.00  0.00    -0.503 OA
ATOM     11  H   UNL     1      33.172 -13.948 -26.273  0.00  0.00    +0.292 HD
ENDBRANCH   2  10
BRANCH   1  12
ATOM     12  O   UNL     1      34.834 -15.438 -22.710  0.00  0.00    -0.444 OA
BRANCH  12  13
ATOM     13  C   UNL     1      34.977 -16.759 -22.458  0.00  0.00    +0.225 C 
ATOM     14  C   UNL     1      34.938 -17.644 -23.458  0.00  0.00    +0.048 C 
BRANCH  13  17
ATOM     15  O   UNL     1      35.079 -16.244 -20.145  0.00  0.00    -0.237 OA
ATOM     16  O   UNL     1      35.437 -18.403 -20.786  0.00  0.00    -0.237 OA
ATOM     17  C   UNL     1      35.184 -17.182 -20.989  0.00  0.00    +0.422 C 
ENDBRANCH  13  17
ENDBRANCH  12  13
ENDBRANCH   1  12
TORSDOF 5
ENDMDL
MODEL 8
REMARK VINA RESULT:      -7.1     11.126     13.032
REMARK  Name = 5460580
REMARK  5 active torsions:
REMARK  status: ('A' for Active; 'I' for Inactive)
REMARK    1  A    between atoms: C_1  and  O_12
REMARK    2  A    between atoms: C_2  and  O_10
REMARK    3  A    between atoms: C_3  and  C_9
REMARK    4  A    between atoms: O_12  and  C_13
REMARK    5  A    between atoms: C_13  and  C_17
REMARK                            x       y       z     vdW  Elec       q    Type
REMARK                         _______ _______ _______ _____ _____    ______ ____
ROOT
ATOM      1  C   UNL     1      34.444 -15.080 -23.182  0.00  0.00    +0.179 C 
ATOM      2  C   UNL     1      34.731 -16.602 -23.189  0.00  0.00    +0.175 C 
ATOM      3  C   UNL     1      34.400 -17.293 -21.896  0.00  0.00    +0.116 C 
ATOM      4  C   UNL     1      34.380 -14.464 -21.810  0.00  0.00    +0.041 C 
ATOM      5  C   UNL     1      34.181 -16.636 -20.748  0.00  0.00    +0.010 C 
ATOM      6  C   UNL     1      34.273 -15.199 -20.694  0.00  0.00    +0.004 C 
ENDROOT
BRANCH   3   9
ATOM      7  O   UNL     1      34.671 -19.392 -22.910  0.00  0.00    -0.240 OA
ATOM      8  O   UNL     1      33.834 -19.281 -20.784  0.00  0.00    -0.240 OA
ATOM      9  C   UNL     1      34.291 -18.803 -21.859  0.00  0.00    +0.391 C 
ENDBRANCH   3   9
BRANCH   2  10
ATOM     10  O   UNL     1      36.123 -16.815 -23.431  0.00  0.00    -0.503 OA
ATOM     11  H   UNL     1      36.388 -16.338 -24.234  0.00  0.00    +0.292 HD
ENDBRANCH   2  10
BRANCH   1  12
ATOM     12  O   UNL     1      33.188 -14.857 -23.824  0.00  0.00    -0.444 OA
BRANCH  12  13
ATOM     13  C   UNL     1      33.326 -14.094 -24.932  0.00  0.00    +0.225 C 
ATOM     14  C   UNL     1      33.475 -12.770 -24.825  0.00  0.00    +0.048 C 
BRANCH  13  17
ATOM     15  O   UNL     1      33.577 -14.080 -27.291  0.00  0.00    -0.237 OA
ATOM     16  O   UNL     1      33.019 -16.045 -26.277  0.00  0.00    -0.237 OA
ATOM     17  C   UNL     1      33.305 -14.815 -26.296  0.00  0.00    +0.422 C 
ENDBRANCH  13  17
ENDBRANCH  12  13
ENDBRANCH   1  12
TORSDOF 5
ENDMDL
MODEL 9
REMARK VINA RESULT:      -7.0      1.632      2.100
REMARK  Name = 5460580
REMARK  5 active torsions:
REMARK  status: ('A' for Active; 'I' for Inactive)
REMARK    1  A    between atoms: C_1  and  O_12
REMARK    2  A    between atoms: C_2  and  O_10
REMARK    3  A    between atoms: C_3  and  C_9
REMARK    4  A    between atoms: O_12  and  C_13
REMARK    5  A    between atoms: C_13  and  C_17
REMARK                            x       y       z     vdW  Elec       q    Type
REMARK                         _______ _______ _______ _____ _____    ______ ____
ROOT
ATOM      1  C   UNL     1      35.624 -24.192 -14.134  0.00  0.00    +0.179 C 
ATOM      2  C   UNL     1      34.201 -24.374 -13.551  0.00  0.00    +0.175 C 
ATOM      3  C   UNL     1      33.097 -24.137 -14.544  0.00  0.00    +0.116 C 
ATOM      4  C   UNL     1      35.684 -23.347 -15.379  0.00  0.00    +0.041 C 
ATOM      5  C   UNL     1      33.289 -23.527 -15.721  0.00  0.00    +0.010 C 
ATOM      6  C   UNL     1      34.592 -23.037 -16.093  0.00  0.00    +0.004 C 
ENDROOT
BRANCH   3   9
ATOM      7  O   UNL     1      30.868 -24.500 -15.181  0.00  0.00    -0.240 OA
ATOM      8  O   UNL     1      31.527 -25.060 -13.063  0.00  0.00    -0.240 OA
ATOM      9  C   UNL     1      31.694 -24.612 -14.232  0.00  0.00    +0.391 C 
ENDBRANCH   3   9
BRANCH   2  10
ATOM     10  O   UNL     1      34.009 -23.443 -12.484  0.00  0.00    -0.503 OA
ATOM     11  H   UNL     1      33.079 -23.458 -12.206  0.00  0.00    +0.292 HD
ENDBRANCH   2  10
BRANCH   1  12
ATOM     12  O   UNL     1      36.148 -25.482 -14.451  0.00  0.00    -0.444 OA
BRANCH  12  13
ATOM     13  C   UNL     1      37.398 -25.645 -13.960  0.00  0.00    +0.225 C 
ATOM     14  C   UNL     1      38.428 -25.843 -14.788  0.00  0.00    +0.048 C 
BRANCH  13  17
ATOM     15  O   UNL     1      38.334 -24.669 -12.011  0.00  0.00    -0.237 OA
ATOM     16  O   UNL     1      36.939 -26.456 -11.759  0.00  0.00    -0.237 OA
ATOM     17  C   UNL     1      37.570 -25.588 -12.428  0.00  0.00    +0.422 C 
ENDBRANCH  13  17
ENDBRANCH  12  13
ENDBRANCH   1  12
TORSDOF 5
ENDMDL
