MODEL 1
REMARK VINA RESULT:      -3.4      0.000      0.000
REMARK  Name = 8071
REMARK  3 active torsions:
REMARK  status: ('A' for Active; 'I' for Inactive)
REMARK    1  A    between atoms: C_1  and  O_2
REMARK    2  A    between atoms: C_1  and  C_4
REMARK    3  A    between atoms: C_4  and  O_5
REMARK                            x       y       z     vdW  Elec       q    Type
REMARK                         _______ _______ _______ _____ _____    ______ ____
ROOT
ATOM      1  C   UNL     1      37.330 -26.661 -13.873  0.00  0.00    +0.174 C 
ENDROOT
BRANCH   1   2
ATOM      2  O   UNL     1      38.521 -26.901 -14.611  0.00  0.00    -0.348 OA
ATOM      3  C   UNL     1      39.416 -25.800 -14.526  0.00  0.00    +0.174 C 
ENDBRANCH   1   2
BRANCH   1   4
ATOM      4  C   UNL     1      37.665 -25.830 -12.648  0.00  0.00    +0.174 C 
BRANCH   4   5
ATOM      5  O   UNL     1      36.584 -25.904 -11.728  0.00  0.00    -0.348 OA
ATOM      6  C   UNL     1      35.878 -24.673 -11.655  0.00  0.00    +0.174 C 
ENDBRANCH   4   5
ENDBRANCH   1   4
TORSDOF 3
ENDMDL
MODEL 2
REMARK VINA RESULT:      -3.4      0.077      3.514
REMARK  Name = 8071
REMARK  3 active torsions:
REMARK  status: ('A' for Active; 'I' for Inactive)
REMARK    1  A    between atoms: C_1  and  O_2
REMARK    2  A    between atoms: C_1  and  C_4
REMARK    3  A    between atoms: C_4  and  O_5
REMARK                            x       y       z     vdW  Elec       q    Type
REMARK                         _______ _______ _______ _____ _____    ______ ____
ROOT
ATOM      1  C   UNL     1      37.686 -25.890 -12.634  0.00  0.00    +0.174 C 
ENDROOT
BRANCH   1   2
ATOM      2  O   UNL     1      36.581 -25.894 -11.739  0.00  0.00    -0.348 OA
ATOM      3  C   UNL     1      35.848 -24.679 -11.813  0.00  0.00    +0.174 C 
ENDBRANCH   1   2
BRANCH   1   4
ATOM      4  C   UNL     1      37.316 -26.673 -13.880  0.00  0.00    +0.174 C 
BRANCH   4   5
ATOM      5  O   UNL     1      38.486 -26.882 -14.661  0.00  0.00    -0.348 OA
ATOM      6  C   UNL     1      39.415 -25.819 -14.501  0.00  0.00    +0.174 C 
ENDBRANCH   4   5
ENDBRANCH   1   4
TORSDOF 3
ENDMDL
MODEL 3
REMARK VINA RESULT:      -3.3      2.309      2.479
REMARK  Name = 8071
REMARK  3 active torsions:
REMARK  status: ('A' for Active; 'I' for Inactive)
REMARK    1  A    between atoms: C_1  and  O_2
REMARK    2  A    between atoms: C_1  and  C_4
REMARK    3  A    between atoms: C_4  and  O_5
REMARK                            x       y       z     vdW  Elec       q    Type
REMARK                         _______ _______ _______ _____ _____    ______ ____
ROOT
ATOM      1  C   UNL     1      37.977 -26.138 -14.340  0.00  0.00    +0.174 C 
ENDROOT
BRANCH   1   2
ATOM      2  O   UNL     1      39.239 -26.701 -14.677  0.00  0.00    -0.348 OA
ATOM      3  C   UNL     1      40.246 -25.703 -14.769  0.00  0.00    +0.174 C 
ENDBRANCH   1   2
BRANCH   1   4
ATOM      4  C   UNL     1      36.901 -26.791 -15.186  0.00  0.00    +0.174 C 
BRANCH   4   5
ATOM      5  O   UNL     1      35.984 -25.795 -15.619  0.00  0.00    -0.348 OA
ATOM      6  C   UNL     1      36.226 -24.550 -14.979  0.00  0.00    +0.174 C 
ENDBRANCH   4   5
ENDBRANCH   1   4
TORSDOF 3
ENDMDL
MODEL 4
REMARK VINA RESULT:      -3.3      1.286      3.308
REMARK  Name = 8071
REMARK  3 active torsions:
REMARK  status: ('A' for Active; 'I' for Inactive)
REMARK    1  A    between atoms: C_1  and  O_2
REMARK    2  A    between atoms: C_1  and  C_4
REMARK    3  A    between atoms: C_4  and  O_5
REMARK                            x       y       z     vdW  Elec       q    Type
REMARK                         _______ _______ _______ _____ _____    ______ ____
ROOT
ATOM      1  C   UNL     1      37.745 -25.657 -12.465  0.00  0.00    +0.174 C 
ENDROOT
BRANCH   1   2
ATOM      2  O   UNL     1      37.958 -24.665 -11.468  0.00  0.00    -0.348 OA
ATOM      3  C   UNL     1      37.407 -23.413 -11.855  0.00  0.00    +0.174 C 
ENDBRANCH   1   2
BRANCH   1   4
ATOM      4  C   UNL     1      38.904 -25.631 -13.444  0.00  0.00    +0.174 C 
BRANCH   4   5
ATOM      5  O   UNL     1      38.682 -26.610 -14.451  0.00  0.00    -0.348 OA
ATOM      6  C   UNL     1      37.301 -26.734 -14.761  0.00  0.00    +0.174 C 
ENDBRANCH   4   5
ENDBRANCH   1   4
TORSDOF 3
ENDMDL
MODEL 5
REMARK VINA RESULT:      -3.3      9.883     10.085
REMARK  Name = 8071
REMARK  3 active torsions:
REMARK  status: ('A' for Active; 'I' for Inactive)
REMARK    1  A    between atoms: C_1  and  O_2
REMARK    2  A    between atoms: C_1  and  C_4
REMARK    3  A    between atoms: C_4  and  O_5
REMARK                            x       y       z     vdW  Elec       q    Type
REMARK                         _______ _______ _______ _____ _____    ______ ____
ROOT
ATOM      1  C   UNL     1      34.517 -20.081 -20.654  0.00  0.00    +0.174 C 
ENDROOT
BRANCH   1   2
ATOM      2  O   UNL     1      35.029 -18.755 -20.668  0.00  0.00    -0.348 OA
ATOM      3  C   UNL     1      36.248 -18.676 -21.396  0.00  0.00    +0.174 C 
ENDBRANCH   1   2
BRANCH   1   4
ATOM      4  C   UNL     1      33.004 -20.026 -20.553  0.00  0.00    +0.174 C 
BRANCH   4   5
ATOM      5  O   UNL     1      32.579 -20.874 -19.493  0.00  0.00    -0.348 OA
ATOM      6  C   UNL     1      33.546 -21.875 -19.208  0.00  0.00    +0.174 C 
ENDBRANCH   4   5
ENDBRANCH   1   4
TORSDOF 3
ENDMDL
MODEL 6
REMARK VINA RESULT:      -3.3      1.610      2.042
REMARK  Name = 8071
REMARK  3 active torsions:
REMARK  status: ('A' for Active; 'I' for Inactive)
REMARK    1  A    between atoms: C_1  and  O_2
REMARK    2  A    between atoms: C_1  and  C_4
REMARK    3  A    between atoms: C_4  and  O_5
REMARK                            x       y       z     vdW  Elec       q    Type
REMARK                         _______ _______ _______ _____ _____    ______ ____
ROOT
ATOM      1  C   UNL     1      39.292 -25.605 -13.852  0.00  0.00    +0.174 C 
ENDROOT
BRANCH   1   2
ATOM      2  O   UNL     1      38.749 -26.712 -14.561  0.00  0.00    -0.348 OA
ATOM      3  C   UNL     1      37.339 -26.789 -14.403  0.00  0.00    +0.174 C 
ENDBRANCH   1   2
BRANCH   1   4
ATOM      4  C   UNL     1      38.335 -25.211 -12.743  0.00  0.00    +0.174 C 
BRANCH   4   5
ATOM      5  O   UNL     1      38.692 -23.922 -12.259  0.00  0.00    -0.348 OA
ATOM      6  C   UNL     1      37.543 -23.150 -11.939  0.00  0.00    +0.174 C 
ENDBRANCH   4   5
ENDBRANCH   1   4
TORSDOF 3
ENDMDL
MODEL 7
REMARK VINA RESULT:      -3.3     11.415     12.249
REMARK  Name = 8071
REMARK  3 active torsions:
REMARK  status: ('A' for Active; 'I' for Inactive)
REMARK    1  A    between atoms: C_1  and  O_2
REMARK    2  A    between atoms: C_1  and  C_4
REMARK    3  A    between atoms: C_4  and  O_5
REMARK                            x       y       z     vdW  Elec       q    Type
REMARK                         _______ _______ _______ _____ _____    ______ ____
ROOT
ATOM      1  C   UNL     1      41.127 -14.978 -15.852  0.00  0.00    +0.174 C 
ENDROOT
BRANCH   1   2
ATOM      2  O   UNL     1      40.785 -14.857 -14.477  0.00  0.00    -0.348 OA
ATOM      3  C   UNL     1      40.645 -13.495 -14.094  0.00  0.00    +0.174 C 
ENDBRANCH   1   2
BRANCH   1   4
ATOM      4  C   UNL     1      41.625 -16.387 -16.115  0.00  0.00    +0.174 C 
BRANCH   4   5
ATOM      5  O   UNL     1      43.046 -16.377 -16.150  0.00  0.00    -0.348 OA
ATOM      6  C   UNL     1      43.536 -15.492 -17.147  0.00  0.00    +0.174 C 
ENDBRANCH   4   5
ENDBRANCH   1   4
TORSDOF 3
ENDMDL
MODEL 8
REMARK VINA RESULT:      -3.3     10.100     10.515
REMARK  Name = 8071
REMARK  3 active torsions:
REMARK  status: ('A' for Active; 'I' for Inactive)
REMARK    1  A    between atoms: C_1  and  O_2
REMARK    2  A    between atoms: C_1  and  C_4
REMARK    3  A    between atoms: C_4  and  O_5
REMARK                            x       y       z     vdW  Elec       q    Type
REMARK                         _______ _______ _______ _____ _____    ______ ____
ROOT
ATOM      1  C   UNL     1      33.470 -19.765 -20.848  0.00  0.00    +0.174 C 
ENDROOT
BRANCH   1   2
ATOM      2  O   UNL     1      32.714 -20.503 -19.897  0.00  0.00    -0.348 OA
ATOM      3  C   UNL     1      33.459 -21.595 -19.375  0.00  0.00    +0.174 C 
ENDBRANCH   1   2
BRANCH   1   4
ATOM      4  C   UNL     1      34.942 -20.083 -20.664  0.00  0.00    +0.174 C 
BRANCH   4   5
ATOM      5  O   UNL     1      35.676 -18.867 -20.607  0.00  0.00    -0.348 OA
ATOM      6  C   UNL     1      34.950 -17.793 -21.189  0.00  0.00    +0.174 C 
ENDBRANCH   4   5
ENDBRANCH   1   4
TORSDOF 3
ENDMDL
MODEL 9
REMARK VINA RESULT:      -3.2     14.902     15.447
REMARK  Name = 8071
REMARK  3 active torsions:
REMARK  status: ('A' for Active; 'I' for Inactive)
REMARK    1  A    between atoms: C_1  and  O_2
REMARK    2  A    between atoms: C_1  and  C_4
REMARK    3  A    between atoms: C_4  and  O_5
REMARK                            x       y       z     vdW  Elec       q    Type
REMARK                         _______ _______ _______ _____ _____    ______ ____
ROOT
ATOM      1  C   UNL     1      34.544 -17.717 -25.077  0.00  0.00    +0.174 C 
ENDROOT
BRANCH   1   2
ATOM      2  O   UNL     1      35.335 -18.023 -23.935  0.00  0.00    -0.348 OA
ATOM      3  C   UNL     1      34.844 -19.170 -23.255  0.00  0.00    +0.174 C 
ENDBRANCH   1   2
BRANCH   1   4
ATOM      4  C   UNL     1      34.149 -16.253 -25.027  0.00  0.00    +0.174 C 
BRANCH   4   5
ATOM      5  O   UNL     1      33.742 -15.839 -26.324  0.00  0.00    -0.348 OA
ATOM      6  C   UNL     1      32.885 -14.707 -26.264  0.00  0.00    +0.174 C 
ENDBRANCH   4   5
ENDBRANCH   1   4
TORSDOF 3
ENDMDL
