MODEL 1
REMARK VINA RESULT:      -7.9      0.000      0.000
REMARK  Name = 208952
REMARK  6 active torsions:
REMARK  status: ('A' for Active; 'I' for Inactive)
REMARK    1  A    between atoms: C_1  and  C_4
REMARK    2  A    between atoms: C_1  and  O_10
REMARK    3  A    between atoms: C_1  and  C_12
REMARK    4  A    between atoms: C_1  and  C_26
REMARK    5  A    between atoms: C_12  and  N_16
REMARK    6  A    between atoms: C_26  and  N_27
REMARK                            x       y       z     vdW  Elec       q    Type
REMARK                         _______ _______ _______ _____ _____    ______ ____
ROOT
ATOM      1  C   UNL     1      35.072 -23.959 -14.857  0.00  0.00    +0.146 C 
ENDROOT
BRANCH   1   4
ATOM      2  F   UNL     1      37.502 -23.011 -15.943  0.00  0.00    -0.204 F 
ATOM      3  F   UNL     1      40.073 -26.110 -13.461  0.00  0.00    -0.204 F 
ATOM      4  C   UNL     1      36.439 -24.546 -14.478  0.00  0.00    +0.033 C 
ATOM      5  C   UNL     1      37.565 -24.016 -15.061  0.00  0.00    +0.141 C 
ATOM      6  C   UNL     1      36.476 -25.575 -13.570  0.00  0.00    +0.003 C 
ATOM      7  C   UNL     1      38.806 -24.551 -14.714  0.00  0.00    +0.059 C 
ATOM      8  C   UNL     1      37.718 -26.110 -13.222  0.00  0.00    +0.030 C 
ATOM      9  C   UNL     1      38.882 -25.597 -13.795  0.00  0.00    +0.142 C 
ENDBRANCH   1   4
BRANCH   1  10
ATOM     10  O   UNL     1      35.170 -22.532 -14.979  0.00  0.00    -0.379 OA
ATOM     11  H   UNL     1      35.573 -22.165 -14.177  0.00  0.00    +0.211 HD
ENDBRANCH   1  10
BRANCH   1  12
ATOM     12  C   UNL     1      34.014 -24.243 -13.737  0.00  0.00    +0.107 C 
ATOM     13  C   UNL     1      34.389 -23.643 -12.377  0.00  0.00    +0.024 C 
BRANCH  12  16
ATOM     14 CL   UNL     1      26.474 -22.192 -15.987  0.00  0.00    -0.082 Cl
ATOM     15  O   UNL     1      31.890 -25.877 -14.601  0.00  0.00    -0.274 OA
ATOM     16  N   UNL     1      32.700 -23.745 -14.114  0.00  0.00    -0.257 N 
ATOM     17  N   UNL     1      31.313 -21.830 -14.367  0.00  0.00    -0.252 NA
ATOM     18  C   UNL     1      31.730 -24.662 -14.527  0.00  0.00    +0.236 C 
ATOM     19  C   UNL     1      32.437 -22.389 -14.059  0.00  0.00    +0.222 C 
ATOM     20  C   UNL     1      30.425 -24.061 -14.891  0.00  0.00    +0.138 C 
ATOM     21  C   UNL     1      30.272 -22.672 -14.795  0.00  0.00    +0.069 C 
ATOM     22  C   UNL     1      29.368 -24.871 -15.320  0.00  0.00    -0.011 C 
ATOM     23  C   UNL     1      29.040 -22.103 -15.139  0.00  0.00    +0.027 C 
ATOM     24  C   UNL     1      28.147 -24.289 -15.658  0.00  0.00    +0.008 C 
ATOM     25  C   UNL     1      27.984 -22.908 -15.568  0.00  0.00    +0.059 C 
ENDBRANCH  12  16
ENDBRANCH   1  12
BRANCH   1  26
ATOM     26  C   UNL     1      34.590 -24.523 -16.228  0.00  0.00    +0.151 C 
BRANCH  26  27
ATOM     27  N   UNL     1      34.172 -23.511 -17.203  0.00  0.00    -0.188 N 
ATOM     28  N   UNL     1      35.083 -22.761 -17.812  0.00  0.00    -0.154 NA
ATOM     29  N   UNL     1      32.953 -22.261 -18.477  0.00  0.00    -0.203 NA
ATOM     30  C   UNL     1      32.915 -23.226 -17.587  0.00  0.00    +0.186 C 
ATOM     31  C   UNL     1      34.291 -22.011 -18.581  0.00  0.00    +0.218 C 
ENDBRANCH  26  27
ENDBRANCH   1  26
TORSDOF 6
ENDMDL
MODEL 2
REMARK VINA RESULT:      -7.9      3.470      6.761
REMARK  Name = 208952
REMARK  6 active torsions:
REMARK  status: ('A' for Active; 'I' for Inactive)
REMARK    1  A    between atoms: C_1  and  C_4
REMARK    2  A    between atoms: C_1  and  O_10
REMARK    3  A    between atoms: C_1  and  C_12
REMARK    4  A    between atoms: C_1  and  C_26
REMARK    5  A    between atoms: C_12  and  N_16
REMARK    6  A    between atoms: C_26  and  N_27
REMARK                            x       y       z     vdW  Elec       q    Type
REMARK                         _______ _______ _______ _____ _____    ______ ____
ROOT
ATOM      1  C   UNL     1      34.086 -23.542 -14.161  0.00  0.00    +0.146 C 
ENDROOT
BRANCH   1   4
ATOM      2  F   UNL     1      32.547 -25.717 -13.220  0.00  0.00    -0.204 F 
ATOM      3  F   UNL     1      28.575 -24.025 -15.156  0.00  0.00    -0.204 F 
ATOM      4  C   UNL     1      32.581 -23.677 -14.432  0.00  0.00    +0.033 C 
ATOM      5  C   UNL     1      31.919 -24.772 -13.932  0.00  0.00    +0.141 C 
ATOM      6  C   UNL     1      31.961 -22.693 -15.164  0.00  0.00    +0.003 C 
ATOM      7  C   UNL     1      30.551 -24.891 -14.179  0.00  0.00    +0.059 C 
ATOM      8  C   UNL     1      30.593 -22.812 -15.411  0.00  0.00    +0.030 C 
ATOM      9  C   UNL     1      29.889 -23.911 -14.919  0.00  0.00    +0.142 C 
ENDBRANCH   1   4
BRANCH   1  10
ATOM     10  O   UNL     1      34.454 -22.154 -14.131  0.00  0.00    -0.379 OA
ATOM     11  H   UNL     1      34.777 -21.924 -13.246  0.00  0.00    +0.211 HD
ENDBRANCH   1  10
BRANCH   1  12
ATOM     12  C   UNL     1      34.921 -24.204 -15.310  0.00  0.00    +0.107 C 
ATOM     13  C   UNL     1      34.520 -25.655 -15.597  0.00  0.00    +0.024 C 
BRANCH  12  16
ATOM     14 CL   UNL     1      35.033 -19.679 -22.064  0.00  0.00    -0.082 Cl
ATOM     15  O   UNL     1      36.931 -22.495 -16.294  0.00  0.00    -0.274 OA
ATOM     16  N   UNL     1      34.816 -23.443 -16.545  0.00  0.00    -0.257 N 
ATOM     17  N   UNL     1      33.460 -22.913 -18.426  0.00  0.00    -0.252 NA
ATOM     18  C   UNL     1      35.886 -22.629 -16.924  0.00  0.00    +0.236 C 
ATOM     19  C   UNL     1      33.670 -23.538 -17.314  0.00  0.00    +0.222 C 
ATOM     20  C   UNL     1      35.685 -21.894 -18.195  0.00  0.00    +0.138 C 
ATOM     21  C   UNL     1      34.481 -22.067 -18.892  0.00  0.00    +0.069 C 
ATOM     22  C   UNL     1      36.682 -21.045 -18.686  0.00  0.00    -0.011 C 
ATOM     23  C   UNL     1      34.291 -21.374 -20.092  0.00  0.00    +0.027 C 
ATOM     24  C   UNL     1      36.477 -20.361 -19.883  0.00  0.00    +0.008 C 
ATOM     25  C   UNL     1      35.283 -20.525 -20.585  0.00  0.00    +0.059 C 
ENDBRANCH  12  16
ENDBRANCH   1  12
BRANCH   1  26
ATOM     26  C   UNL     1      34.455 -24.164 -12.780  0.00  0.00    +0.151 C 
BRANCH  26  27
ATOM     27  N   UNL     1      35.891 -24.223 -12.490  0.00  0.00    -0.188 N 
ATOM     28  N   UNL     1      36.593 -23.101 -12.379  0.00  0.00    -0.154 NA
ATOM     29  N   UNL     1      37.877 -24.968 -12.071  0.00  0.00    -0.203 NA
ATOM     30  C   UNL     1      36.637 -25.328 -12.311  0.00  0.00    +0.186 C 
ATOM     31  C   UNL     1      37.801 -23.605 -12.122  0.00  0.00    +0.218 C 
ENDBRANCH  26  27
ENDBRANCH   1  26
TORSDOF 6
ENDMDL
MODEL 3
REMARK VINA RESULT:      -7.8     12.805     16.184
REMARK  Name = 208952
REMARK  6 active torsions:
REMARK  status: ('A' for Active; 'I' for Inactive)
REMARK    1  A    between atoms: C_1  and  C_4
REMARK    2  A    between atoms: C_1  and  O_10
REMARK    3  A    between atoms: C_1  and  C_12
REMARK    4  A    between atoms: C_1  and  C_26
REMARK    5  A    between atoms: C_12  and  N_16
REMARK    6  A    between atoms: C_26  and  N_27
REMARK                            x       y       z     vdW  Elec       q    Type
REMARK                         _______ _______ _______ _____ _____    ______ ____
ROOT
ATOM      1  C   UNL     1      32.929 -10.357 -23.358  0.00  0.00    +0.146 C 
ENDROOT
BRANCH   1   4
ATOM      2  F   UNL     1      34.965  -8.402 -23.483  0.00  0.00    -0.204 F 
ATOM      3  F   UNL     1      31.921  -4.998 -24.719  0.00  0.00    -0.204 F 
ATOM      4  C   UNL     1      32.656  -8.893 -23.728  0.00  0.00    +0.033 C 
ATOM      5  C   UNL     1      33.713  -8.016 -23.762  0.00  0.00    +0.141 C 
ATOM      6  C   UNL     1      31.363  -8.523 -24.012  0.00  0.00    +0.003 C 
ATOM      7  C   UNL     1      33.462  -6.686 -24.101  0.00  0.00    +0.059 C 
ATOM      8  C   UNL     1      31.112  -7.192 -24.350  0.00  0.00    +0.030 C 
ATOM      9  C   UNL     1      32.162  -6.275 -24.394  0.00  0.00    +0.142 C 
ENDBRANCH   1   4
BRANCH   1  10
ATOM     10  O   UNL     1      34.055 -10.434 -22.470  0.00  0.00    -0.379 OA
ATOM     11  H   UNL     1      34.409 -11.337 -22.475  0.00  0.00    +0.211 HD
ENDBRANCH   1  10
BRANCH   1  12
ATOM     12  C   UNL     1      33.301 -11.194 -24.630  0.00  0.00    +0.107 C 
ATOM     13  C   UNL     1      34.477 -10.611 -25.421  0.00  0.00    +0.024 C 
BRANCH  12  16
ATOM     14 CL   UNL     1      34.882 -19.075 -23.410  0.00  0.00    -0.082 Cl
ATOM     15  O   UNL     1      33.136 -13.358 -26.424  0.00  0.00    -0.274 OA
ATOM     16  N   UNL     1      33.615 -12.571 -24.282  0.00  0.00    -0.257 N 
ATOM     17  N   UNL     1      34.331 -14.059 -22.571  0.00  0.00    -0.252 NA
ATOM     18  C   UNL     1      33.493 -13.555 -25.266  0.00  0.00    +0.236 C 
ATOM     19  C   UNL     1      34.024 -12.878 -22.997  0.00  0.00    +0.222 C 
ATOM     20  C   UNL     1      33.834 -14.925 -24.817  0.00  0.00    +0.138 C 
ATOM     21  C   UNL     1      34.238 -15.119 -23.489  0.00  0.00    +0.069 C 
ATOM     22  C   UNL     1      33.754 -16.002 -25.706  0.00  0.00    -0.011 C 
ATOM     23  C   UNL     1      34.561 -16.413 -23.065  0.00  0.00    +0.027 C 
ATOM     24  C   UNL     1      34.079 -17.284 -25.268  0.00  0.00    +0.008 C 
ATOM     25  C   UNL     1      34.482 -17.490 -23.949  0.00  0.00    +0.059 C 
ENDBRANCH  12  16
ENDBRANCH   1  12
BRANCH   1  26
ATOM     26  C   UNL     1      31.701 -10.979 -22.626  0.00  0.00    +0.151 C 
BRANCH  26  27
ATOM     27  N   UNL     1      31.678 -10.781 -21.174  0.00  0.00    -0.188 N 
ATOM     28  N   UNL     1      31.873  -9.569 -20.667  0.00  0.00    -0.154 NA
ATOM     29  N   UNL     1      31.524 -11.147 -19.049  0.00  0.00    -0.203 NA
ATOM     30  C   UNL     1      31.471 -11.717 -20.231  0.00  0.00    +0.186 C 
ATOM     31  C   UNL     1      31.770  -9.841 -19.365  0.00  0.00    +0.218 C 
ENDBRANCH  26  27
ENDBRANCH   1  26
TORSDOF 6
ENDMDL
MODEL 4
REMARK VINA RESULT:      -7.8      3.884      6.004
REMARK  Name = 208952
REMARK  6 active torsions:
REMARK  status: ('A' for Active; 'I' for Inactive)
REMARK    1  A    between atoms: C_1  and  C_4
REMARK    2  A    between atoms: C_1  and  O_10
REMARK    3  A    between atoms: C_1  and  C_12
REMARK    4  A    between atoms: C_1  and  C_26
REMARK    5  A    between atoms: C_12  and  N_16
REMARK    6  A    between atoms: C_26  and  N_27
REMARK                            x       y       z     vdW  Elec       q    Type
REMARK                         _______ _______ _______ _____ _____    ______ ____
ROOT
ATOM      1  C   UNL     1      36.611 -23.696 -15.049  0.00  0.00    +0.146 C 
ENDROOT
BRANCH   1   4
ATOM      2  F   UNL     1      34.933 -25.618 -13.833  0.00  0.00    -0.204 F 
ATOM      3  F   UNL     1      35.916 -24.041  -9.483  0.00  0.00    -0.204 F 
ATOM      4  C   UNL     1      36.418 -23.791 -13.529  0.00  0.00    +0.033 C 
ATOM      5  C   UNL     1      35.581 -24.761 -13.033  0.00  0.00    +0.141 C 
ATOM      6  C   UNL     1      37.095 -22.902 -12.730  0.00  0.00    +0.003 C 
ATOM      7  C   UNL     1      35.409 -24.846 -11.651  0.00  0.00    +0.059 C 
ATOM      8  C   UNL     1      36.923 -22.987 -11.348  0.00  0.00    +0.030 C 
ATOM      9  C   UNL     1      36.080 -23.959 -10.809  0.00  0.00    +0.142 C 
ENDBRANCH   1   4
BRANCH   1  10
ATOM     10  O   UNL     1      37.436 -22.565 -15.367  0.00  0.00    -0.379 OA
ATOM     11  H   UNL     1      37.732 -22.140 -14.547  0.00  0.00    +0.211 HD
ENDBRANCH   1  10
BRANCH   1  12
ATOM     12  C   UNL     1      35.239 -23.468 -15.772  0.00  0.00    +0.107 C 
ATOM     13  C   UNL     1      34.173 -22.834 -14.871  0.00  0.00    +0.024 C 
BRANCH  12  16
ATOM     14 CL   UNL     1      35.384 -18.954 -22.533  0.00  0.00    -0.082 Cl
ATOM     15  O   UNL     1      33.173 -22.905 -17.601  0.00  0.00    -0.274 OA
ATOM     16  N   UNL     1      35.397 -22.636 -16.955  0.00  0.00    -0.257 N 
ATOM     17  N   UNL     1      36.889 -21.313 -18.250  0.00  0.00    -0.252 NA
ATOM     18  C   UNL     1      34.291 -22.433 -17.784  0.00  0.00    +0.236 C 
ATOM     19  C   UNL     1      36.626 -22.067 -17.234  0.00  0.00    +0.222 C 
ATOM     20  C   UNL     1      34.551 -21.574 -18.963  0.00  0.00    +0.138 C 
ATOM     21  C   UNL     1      35.838 -21.050 -19.146  0.00  0.00    +0.069 C 
ATOM     22  C   UNL     1      33.526 -21.292 -19.873  0.00  0.00    -0.011 C 
ATOM     23  C   UNL     1      36.084 -20.238 -20.259  0.00  0.00    +0.027 C 
ATOM     24  C   UNL     1      33.787 -20.482 -20.976  0.00  0.00    +0.008 C 
ATOM     25  C   UNL     1      35.064 -19.955 -21.169  0.00  0.00    +0.059 C 
ENDBRANCH  12  16
ENDBRANCH   1  12
BRANCH   1  26
ATOM     26  C   UNL     1      37.318 -24.973 -15.597  0.00  0.00    +0.151 C 
BRANCH  26  27
ATOM     27  N   UNL     1      38.587 -25.307 -14.944  0.00  0.00    -0.188 N 
ATOM     28  N   UNL     1      39.646 -24.522 -15.111  0.00  0.00    -0.154 NA
ATOM     29  N   UNL     1      40.090 -26.313 -13.761  0.00  0.00    -0.203 NA
ATOM     30  C   UNL     1      38.838 -26.364 -14.151  0.00  0.00    +0.186 C 
ATOM     31  C   UNL     1      40.541 -25.177 -14.369  0.00  0.00    +0.218 C 
ENDBRANCH  26  27
ENDBRANCH   1  26
TORSDOF 6
ENDMDL
MODEL 5
REMARK VINA RESULT:      -7.7      8.250     10.935
REMARK  Name = 208952
REMARK  6 active torsions:
REMARK  status: ('A' for Active; 'I' for Inactive)
REMARK    1  A    between atoms: C_1  and  C_4
REMARK    2  A    between atoms: C_1  and  O_10
REMARK    3  A    between atoms: C_1  and  C_12
REMARK    4  A    between atoms: C_1  and  C_26
REMARK    5  A    between atoms: C_12  and  N_16
REMARK    6  A    between atoms: C_26  and  N_27
REMARK                            x       y       z     vdW  Elec       q    Type
REMARK                         _______ _______ _______ _____ _____    ______ ____
ROOT
ATOM      1  C   UNL     1      34.414 -16.988 -21.363  0.00  0.00    +0.146 C 
ENDROOT
BRANCH   1   4
ATOM      2  F   UNL     1      36.919 -18.263 -21.071  0.00  0.00    -0.204 F 
ATOM      3  F   UNL     1      34.929 -22.359 -19.789  0.00  0.00    -0.204 F 
ATOM      4  C   UNL     1      34.557 -18.455 -20.935  0.00  0.00    +0.033 C 
ATOM      5  C   UNL     1      35.819 -18.985 -20.820  0.00  0.00    +0.141 C 
ATOM      6  C   UNL     1      33.414 -19.174 -20.682  0.00  0.00    +0.003 C 
ATOM      7  C   UNL     1      35.946 -20.319 -20.429  0.00  0.00    +0.059 C 
ATOM      8  C   UNL     1      33.541 -20.508 -20.291  0.00  0.00    +0.030 C 
ATOM      9  C   UNL     1      34.807 -21.079 -20.165  0.00  0.00    +0.142 C 
ENDBRANCH   1   4
BRANCH   1  10
ATOM     10  O   UNL     1      34.833 -16.124 -20.295  0.00  0.00    -0.379 OA
ATOM     11  H   UNL     1      35.645 -16.474 -19.896  0.00  0.00    +0.211 HD
ENDBRANCH   1  10
BRANCH   1  12
ATOM     12  C   UNL     1      32.916 -16.638 -21.662  0.00  0.00    +0.107 C 
ATOM     13  C   UNL     1      31.949 -17.113 -20.572  0.00  0.00    +0.024 C 
BRANCH  12  16
ATOM     14 CL   UNL     1      31.756  -8.595 -21.949  0.00  0.00    -0.082 Cl
ATOM     15  O   UNL     1      32.253 -14.843 -19.596  0.00  0.00    -0.274 OA
ATOM     16  N   UNL     1      32.735 -15.206 -21.848  0.00  0.00    -0.257 N 
ATOM     17  N   UNL     1      32.756 -13.400 -23.394  0.00  0.00    -0.252 NA
ATOM     18  C   UNL     1      32.406 -14.423 -20.739  0.00  0.00    +0.236 C 
ATOM     19  C   UNL     1      32.890 -14.653 -23.106  0.00  0.00    +0.222 C 
ATOM     20  C   UNL     1      32.243 -12.979 -21.028  0.00  0.00    +0.138 C 
ATOM     21  C   UNL     1      32.424 -12.529 -22.342  0.00  0.00    +0.069 C 
ATOM     22  C   UNL     1      31.914 -12.086 -20.003  0.00  0.00    -0.011 C 
ATOM     23  C   UNL     1      32.271 -11.165 -22.615  0.00  0.00    +0.027 C 
ATOM     24  C   UNL     1      31.764 -10.730 -20.292  0.00  0.00    +0.008 C 
ATOM     25  C   UNL     1      31.942 -10.271 -21.596  0.00  0.00    +0.059 C 
ENDBRANCH  12  16
ENDBRANCH   1  12
BRANCH   1  26
ATOM     26  C   UNL     1      35.310 -16.685 -22.602  0.00  0.00    +0.151 C 
BRANCH  26  27
ATOM     27  N   UNL     1      34.862 -17.298 -23.857  0.00  0.00    -0.188 N 
ATOM     28  N   UNL     1      34.792 -18.620 -23.961  0.00  0.00    -0.154 NA
ATOM     29  N   UNL     1      34.156 -17.557 -25.883  0.00  0.00    -0.203 NA
ATOM     30  C   UNL     1      34.490 -16.662 -24.982  0.00  0.00    +0.186 C 
ATOM     31  C   UNL     1      34.355 -18.732 -25.217  0.00  0.00    +0.218 C 
ENDBRANCH  26  27
ENDBRANCH   1  26
TORSDOF 6
ENDMDL
MODEL 6
REMARK VINA RESULT:      -7.7     10.248     13.577
REMARK  Name = 208952
REMARK  6 active torsions:
REMARK  status: ('A' for Active; 'I' for Inactive)
REMARK    1  A    between atoms: C_1  and  C_4
REMARK    2  A    between atoms: C_1  and  O_10
REMARK    3  A    between atoms: C_1  and  C_12
REMARK    4  A    between atoms: C_1  and  C_26
REMARK    5  A    between atoms: C_12  and  N_16
REMARK    6  A    between atoms: C_26  and  N_27
REMARK                            x       y       z     vdW  Elec       q    Type
REMARK                         _______ _______ _______ _____ _____    ______ ____
ROOT
ATOM      1  C   UNL     1      32.877 -12.902 -22.896  0.00  0.00    +0.146 C 
ENDROOT
BRANCH   1   4
ATOM      2  F   UNL     1      30.573 -11.428 -22.191  0.00  0.00    -0.204 F 
ATOM      3  F   UNL     1      32.530  -7.326 -23.502  0.00  0.00    -0.204 F 
ATOM      4  C   UNL     1      32.780 -11.380 -23.062  0.00  0.00    +0.033 C 
ATOM      5  C   UNL     1      31.616 -10.752 -22.690  0.00  0.00    +0.141 C 
ATOM      6  C   UNL     1      33.864 -10.709 -23.575  0.00  0.00    +0.003 C 
ATOM      7  C   UNL     1      31.530  -9.367 -22.841  0.00  0.00    +0.059 C 
ATOM      8  C   UNL     1      33.779  -9.325 -23.726  0.00  0.00    +0.030 C 
ATOM      9  C   UNL     1      32.612  -8.655 -23.359  0.00  0.00    +0.142 C 
ENDBRANCH   1   4
BRANCH   1  10
ATOM     10  O   UNL     1      31.645 -13.518 -23.301  0.00  0.00    -0.379 OA
ATOM     11  H   UNL     1      31.830 -14.386 -23.691  0.00  0.00    +0.211 HD
ENDBRANCH   1  10
BRANCH   1  12
ATOM     12  C   UNL     1      33.099 -13.286 -21.393  0.00  0.00    +0.107 C 
ATOM     13  C   UNL     1      32.019 -12.733 -20.456  0.00  0.00    +0.024 C 
BRANCH  12  16
ATOM     14 CL   UNL     1      34.223 -21.293 -20.533  0.00  0.00    -0.082 Cl
ATOM     15  O   UNL     1      35.479 -14.788 -21.493  0.00  0.00    -0.274 OA
ATOM     16  N   UNL     1      33.164 -14.730 -21.221  0.00  0.00    -0.257 N 
ATOM     17  N   UNL     1      31.935 -16.726 -20.825  0.00  0.00    -0.252 NA
ATOM     18  C   UNL     1      34.410 -15.357 -21.293  0.00  0.00    +0.236 C 
ATOM     19  C   UNL     1      32.004 -15.447 -20.993  0.00  0.00    +0.222 C 
ATOM     20  C   UNL     1      34.375 -16.826 -21.106  0.00  0.00    +0.138 C 
ATOM     21  C   UNL     1      33.140 -17.449 -20.880  0.00  0.00    +0.069 C 
ATOM     22  C   UNL     1      35.556 -17.574 -21.155  0.00  0.00    -0.011 C 
ATOM     23  C   UNL     1      33.106 -18.837 -20.703  0.00  0.00    +0.027 C 
ATOM     24  C   UNL     1      35.505 -18.956 -20.977  0.00  0.00    +0.008 C 
ATOM     25  C   UNL     1      34.282 -19.586 -20.752  0.00  0.00    +0.059 C 
ENDBRANCH  12  16
ENDBRANCH   1  12
BRANCH   1  26
ATOM     26  C   UNL     1      34.016 -13.483 -23.789  0.00  0.00    +0.151 C 
BRANCH  26  27
ATOM     27  N   UNL     1      33.572 -14.395 -24.847  0.00  0.00    -0.188 N 
ATOM     28  N   UNL     1      32.830 -13.936 -25.849  0.00  0.00    -0.154 NA
ATOM     29  N   UNL     1      33.260 -16.174 -26.033  0.00  0.00    -0.203 NA
ATOM     30  C   UNL     1      33.831 -15.711 -24.945  0.00  0.00    +0.186 C 
ATOM     31  C   UNL     1      32.664 -15.060 -26.550  0.00  0.00    +0.218 C 
ENDBRANCH  26  27
ENDBRANCH   1  26
TORSDOF 6
ENDMDL
MODEL 7
REMARK VINA RESULT:      -7.6      7.119     10.686
REMARK  Name = 208952
REMARK  6 active torsions:
REMARK  status: ('A' for Active; 'I' for Inactive)
REMARK    1  A    between atoms: C_1  and  C_4
REMARK    2  A    between atoms: C_1  and  O_10
REMARK    3  A    between atoms: C_1  and  C_12
REMARK    4  A    between atoms: C_1  and  C_26
REMARK    5  A    between atoms: C_12  and  N_16
REMARK    6  A    between atoms: C_26  and  N_27
REMARK                            x       y       z     vdW  Elec       q    Type
REMARK                         _______ _______ _______ _____ _____    ______ ____
ROOT
ATOM      1  C   UNL     1      35.148 -17.192 -22.696  0.00  0.00    +0.146 C 
ENDROOT
BRANCH   1   4
ATOM      2  F   UNL     1      35.098 -14.388 -22.346  0.00  0.00    -0.204 F 
ATOM      3  F   UNL     1      32.710 -13.710 -26.373  0.00  0.00    -0.204 F 
ATOM      4  C   UNL     1      34.481 -16.239 -23.698  0.00  0.00    +0.033 C 
ATOM      5  C   UNL     1      34.510 -14.890 -23.440  0.00  0.00    +0.141 C 
ATOM      6  C   UNL     1      33.886 -16.779 -24.813  0.00  0.00    +0.003 C 
ATOM      7  C   UNL     1      33.904 -14.026 -24.354  0.00  0.00    +0.059 C 
ATOM      8  C   UNL     1      33.281 -15.915 -25.726  0.00  0.00    +0.030 C 
ATOM      9  C   UNL     1      33.290 -14.539 -25.496  0.00  0.00    +0.142 C 
ENDBRANCH   1   4
BRANCH   1  10
ATOM     10  O   UNL     1      36.546 -17.320 -22.999  0.00  0.00    -0.379 OA
ATOM     11  H   UNL     1      36.652 -17.632 -23.910  0.00  0.00    +0.211 HD
ENDBRANCH   1  10
BRANCH   1  12
ATOM     12  C   UNL     1      34.532 -18.629 -22.799  0.00  0.00    +0.107 C 
ATOM     13  C   UNL     1      34.954 -19.384 -24.064  0.00  0.00    +0.024 C 
BRANCH  12  16
ATOM     14 CL   UNL     1      35.752 -23.362 -16.301  0.00  0.00    -0.082 Cl
ATOM     15  O   UNL     1      32.705 -20.228 -21.372  0.00  0.00    -0.274 OA
ATOM     16  N   UNL     1      34.882 -19.438 -21.641  0.00  0.00    -0.257 N 
ATOM     17  N   UNL     1      36.617 -20.124 -20.166  0.00  0.00    -0.252 NA
ATOM     18  C   UNL     1      33.881 -20.188 -21.020  0.00  0.00    +0.236 C 
ATOM     19  C   UNL     1      36.186 -19.449 -21.180  0.00  0.00    +0.222 C 
ATOM     20  C   UNL     1      34.333 -20.977 -19.851  0.00  0.00    +0.138 C 
ATOM     21  C   UNL     1      35.681 -20.912 -19.473  0.00  0.00    +0.069 C 
ATOM     22  C   UNL     1      33.427 -21.772 -19.140  0.00  0.00    -0.011 C 
ATOM     23  C   UNL     1      36.109 -21.658 -18.369  0.00  0.00    +0.027 C 
ATOM     24  C   UNL     1      33.870 -22.509 -18.043  0.00  0.00    +0.008 C 
ATOM     25  C   UNL     1      35.209 -22.451 -17.658  0.00  0.00    +0.059 C 
ENDBRANCH  12  16
ENDBRANCH   1  12
BRANCH   1  26
ATOM     26  C   UNL     1      35.022 -16.640 -21.243  0.00  0.00    +0.151 C 
BRANCH  26  27
ATOM     27  N   UNL     1      33.681 -16.183 -20.867  0.00  0.00    -0.188 N 
ATOM     28  N   UNL     1      33.524 -15.000 -20.282  0.00  0.00    -0.154 NA
ATOM     29  N   UNL     1      31.541 -16.100 -20.578  0.00  0.00    -0.203 NA
ATOM     30  C   UNL     1      32.521 -16.838 -21.046  0.00  0.00    +0.186 C 
ATOM     31  C   UNL     1      32.199 -14.992 -20.124  0.00  0.00    +0.218 C 
ENDBRANCH  26  27
ENDBRANCH   1  26
TORSDOF 6
ENDMDL
MODEL 8
REMARK VINA RESULT:      -7.4     10.022     13.304
REMARK  Name = 208952
REMARK  6 active torsions:
REMARK  status: ('A' for Active; 'I' for Inactive)
REMARK    1  A    between atoms: C_1  and  C_4
REMARK    2  A    between atoms: C_1  and  O_10
REMARK    3  A    between atoms: C_1  and  C_12
REMARK    4  A    between atoms: C_1  and  C_26
REMARK    5  A    between atoms: C_12  and  N_16
REMARK    6  A    between atoms: C_26  and  N_27
REMARK                            x       y       z     vdW  Elec       q    Type
REMARK                         _______ _______ _______ _____ _____    ______ ____
ROOT
ATOM      1  C   UNL     1      32.946 -13.239 -22.857  0.00  0.00    +0.146 C 
ENDROOT
BRANCH   1   4
ATOM      2  F   UNL     1      30.768 -11.758 -21.834  0.00  0.00    -0.204 F 
ATOM      3  F   UNL     1      32.532  -7.662 -23.413  0.00  0.00    -0.204 F 
ATOM      4  C   UNL     1      32.830 -11.716 -23.009  0.00  0.00    +0.033 C 
ATOM      5  C   UNL     1      31.732 -11.085 -22.476  0.00  0.00    +0.141 C 
ATOM      6  C   UNL     1      33.833 -11.049 -23.670  0.00  0.00    +0.003 C 
ATOM      7  C   UNL     1      31.630  -9.700 -22.614  0.00  0.00    +0.059 C 
ATOM      8  C   UNL     1      33.731  -9.664 -23.809  0.00  0.00    +0.030 C 
ATOM      9  C   UNL     1      32.629  -8.991 -23.281  0.00  0.00    +0.142 C 
ENDBRANCH   1   4
BRANCH   1  10
ATOM     10  O   UNL     1      31.709 -13.863 -23.233  0.00  0.00    -0.379 OA
ATOM     11  H   UNL     1      30.966 -13.334 -22.902  0.00  0.00    +0.211 HD
ENDBRANCH   1  10
BRANCH   1  12
ATOM     12  C   UNL     1      33.212 -13.632 -21.363  0.00  0.00    +0.107 C 
ATOM     13  C   UNL     1      31.974 -13.500 -20.468  0.00  0.00    +0.024 C 
BRANCH  12  16
ATOM     14 CL   UNL     1      35.299 -21.460 -20.676  0.00  0.00    -0.082 Cl
ATOM     15  O   UNL     1      31.587 -15.896 -20.963  0.00  0.00    -0.274 OA
ATOM     16  N   UNL     1      33.716 -14.992 -21.257  0.00  0.00    -0.257 N 
ATOM     17  N   UNL     1      35.639 -16.391 -21.274  0.00  0.00    -0.252 NA
ATOM     18  C   UNL     1      32.803 -16.031 -21.058  0.00  0.00    +0.236 C 
ATOM     19  C   UNL     1      35.074 -15.231 -21.352  0.00  0.00    +0.222 C 
ATOM     20  C   UNL     1      33.410 -17.379 -20.962  0.00  0.00    +0.138 C 
ATOM     21  C   UNL     1      34.802 -17.502 -21.074  0.00  0.00    +0.069 C 
ATOM     22  C   UNL     1      32.605 -18.506 -20.764  0.00  0.00    -0.011 C 
ATOM     23  C   UNL     1      35.376 -18.775 -20.984  0.00  0.00    +0.027 C 
ATOM     24  C   UNL     1      33.193 -19.766 -20.676  0.00  0.00    +0.008 C 
ATOM     25  C   UNL     1      34.576 -19.901 -20.786  0.00  0.00    +0.059 C 
ENDBRANCH  12  16
ENDBRANCH   1  12
BRANCH   1  26
ATOM     26  C   UNL     1      34.066 -13.802 -23.784  0.00  0.00    +0.151 C 
BRANCH  26  27
ATOM     27  N   UNL     1      33.594 -14.655 -24.879  0.00  0.00    -0.188 N 
ATOM     28  N   UNL     1      32.840 -14.139 -25.843  0.00  0.00    -0.154 NA
ATOM     29  N   UNL     1      33.245 -16.369 -26.148  0.00  0.00    -0.203 NA
ATOM     30  C   UNL     1      33.839 -15.967 -25.049  0.00  0.00    +0.186 C 
ATOM     31  C   UNL     1      32.651 -15.224 -26.597  0.00  0.00    +0.218 C 
ENDBRANCH  26  27
ENDBRANCH   1  26
TORSDOF 6
ENDMDL
MODEL 9
REMARK VINA RESULT:      -7.4      3.632      6.493
REMARK  Name = 208952
REMARK  6 active torsions:
REMARK  status: ('A' for Active; 'I' for Inactive)
REMARK    1  A    between atoms: C_1  and  C_4
REMARK    2  A    between atoms: C_1  and  O_10
REMARK    3  A    between atoms: C_1  and  C_12
REMARK    4  A    between atoms: C_1  and  C_26
REMARK    5  A    between atoms: C_12  and  N_16
REMARK    6  A    between atoms: C_26  and  N_27
REMARK                            x       y       z     vdW  Elec       q    Type
REMARK                         _______ _______ _______ _____ _____    ______ ____
ROOT
ATOM      1  C   UNL     1      32.699 -23.280 -15.200  0.00  0.00    +0.146 C 
ENDROOT
BRANCH   1   4
ATOM      2  F   UNL     1      32.707 -23.393 -18.024  0.00  0.00    -0.204 F 
ATOM      3  F   UNL     1      37.121 -21.715 -18.296  0.00  0.00    -0.204 F 
ATOM      4  C   UNL     1      33.906 -22.855 -16.048  0.00  0.00    +0.033 C 
ATOM      5  C   UNL     1      33.813 -22.946 -17.415  0.00  0.00    +0.141 C 
ATOM      6  C   UNL     1      35.028 -22.398 -15.400  0.00  0.00    +0.003 C 
ATOM      7  C   UNL     1      34.911 -22.557 -18.183  0.00  0.00    +0.059 C 
ATOM      8  C   UNL     1      36.127 -22.009 -16.168  0.00  0.00    +0.030 C 
ATOM      9  C   UNL     1      36.068 -22.089 -17.559  0.00  0.00    +0.142 C 
ENDBRANCH   1   4
BRANCH   1  10
ATOM     10  O   UNL     1      32.016 -22.118 -14.705  0.00  0.00    -0.379 OA
ATOM     11  H   UNL     1      31.087 -22.148 -14.980  0.00  0.00    +0.211 HD
ENDBRANCH   1  10
BRANCH   1  12
ATOM     12  C   UNL     1      33.160 -24.100 -13.947  0.00  0.00    +0.107 C 
ATOM     13  C   UNL     1      32.240 -25.282 -13.619  0.00  0.00    +0.024 C 
BRANCH  12  16
ATOM     14 CL   UNL     1      40.913 -26.533 -14.236  0.00  0.00    -0.082 Cl
ATOM     15  O   UNL     1      35.285 -23.544 -12.184  0.00  0.00    -0.274 OA
ATOM     16  N   UNL     1      34.515 -24.603 -14.114  0.00  0.00    -0.257 N 
ATOM     17  N   UNL     1      35.982 -25.914 -15.449  0.00  0.00    -0.252 NA
ATOM     18  C   UNL     1      35.481 -24.253 -13.167  0.00  0.00    +0.236 C 
ATOM     19  C   UNL     1      34.820 -25.409 -15.195  0.00  0.00    +0.222 C 
ATOM     20  C   UNL     1      36.829 -24.812 -13.422  0.00  0.00    +0.138 C 
ATOM     21  C   UNL     1      37.022 -25.618 -14.552  0.00  0.00    +0.069 C 
ATOM     22  C   UNL     1      37.886 -24.538 -12.548  0.00  0.00    -0.011 C 
ATOM     23  C   UNL     1      38.296 -26.147 -14.794  0.00  0.00    +0.027 C 
ATOM     24  C   UNL     1      39.148 -25.072 -12.803  0.00  0.00    +0.008 C 
ATOM     25  C   UNL     1      39.352 -25.875 -13.924  0.00  0.00    +0.059 C 
ENDBRANCH  12  16
ENDBRANCH   1  12
BRANCH   1  26
ATOM     26  C   UNL     1      31.686 -24.101 -16.056  0.00  0.00    +0.151 C 
BRANCH  26  27
ATOM     27  N   UNL     1      30.314 -23.584 -16.058  0.00  0.00    -0.188 N 
ATOM     28  N   UNL     1      29.999 -22.542 -16.819  0.00  0.00    -0.154 NA
ATOM     29  N   UNL     1      28.213 -23.324 -15.625  0.00  0.00    -0.203 NA
ATOM     30  C   UNL     1      29.270 -24.052 -15.350  0.00  0.00    +0.186 C 
ATOM     31  C   UNL     1      28.704 -22.419 -16.522  0.00  0.00    +0.218 C 
ENDBRANCH  26  27
ENDBRANCH   1  26
TORSDOF 6
ENDMDL
