MODEL 1
REMARK VINA RESULT:      -9.6      0.000      0.000
REMARK  Name = 446185
REMARK  3 active torsions:
REMARK  status: ('A' for Active; 'I' for Inactive)
REMARK    1  A    between atoms: N_1  and  C_11
REMARK    2  A    between atoms: C_4  and  C_7
REMARK    3  A    between atoms: C_11  and  C_12
REMARK                            x       y       z     vdW  Elec       q    Type
REMARK                         _______ _______ _______ _____ _____    ______ ____
ROOT
ATOM      1  N   UNL     1      35.670 -18.253 -22.584  0.00  0.00    -0.243 NA
ATOM      2  N   UNL     1      34.595 -18.203 -24.501  0.00  0.00    -0.255 NA
ATOM      3  C   UNL     1      35.292 -16.963 -22.737  0.00  0.00    +0.121 C 
ATOM      4  C   UNL     1      34.623 -16.952 -23.938  0.00  0.00    +0.077 C 
ATOM      5  C   UNL     1      35.241 -18.968 -23.650  0.00  0.00    +0.201 C 
ENDROOT
BRANCH   4   7
ATOM      6  S   UNL     1      33.843 -14.260 -23.734  0.00  0.00    -0.085 S 
ATOM      7  C   UNL     1      34.014 -15.762 -24.546  0.00  0.00    +0.044 C 
ATOM      8  C   UNL     1      33.510 -15.706 -25.830  0.00  0.00    +0.008 C 
ATOM      9  C   UNL     1      32.979 -14.422 -26.148  0.00  0.00    +0.008 C 
ATOM     10  C   UNL     1      33.098 -13.539 -25.097  0.00  0.00    +0.035 C 
ENDBRANCH   4   7
BRANCH   1  11
ATOM     11  C   UNL     1      36.423 -18.791 -21.447  0.00  0.00    +0.101 C 
BRANCH  11  12
ATOM     12  C   UNL     1      35.634 -19.803 -20.687  0.00  0.00    -0.006 C 
ATOM     13  C   UNL     1      36.290 -20.796 -19.959  0.00  0.00    -0.003 C 
ATOM     14  C   UNL     1      34.241 -19.756 -20.703  0.00  0.00    -0.003 C 
ATOM     15  C   UNL     1      34.157 -21.695 -19.265  0.00  0.00    -0.022 C 
ATOM     16  C   UNL     1      35.550 -21.742 -19.247  0.00  0.00    -0.005 C 
ATOM     17  C   UNL     1      33.501 -20.701 -19.992  0.00  0.00    -0.005 C 
ATOM     18  C   UNL     1      33.367 -22.706 -18.504  0.00  0.00    +0.031 C 
ENDBRANCH  11  12
ENDBRANCH   1  11
TORSDOF 3
ENDMDL
MODEL 2
REMARK VINA RESULT:      -9.4      1.716      2.023
REMARK  Name = 446185
REMARK  3 active torsions:
REMARK  status: ('A' for Active; 'I' for Inactive)
REMARK    1  A    between atoms: N_1  and  C_11
REMARK    2  A    between atoms: C_4  and  C_7
REMARK    3  A    between atoms: C_11  and  C_12
REMARK                            x       y       z     vdW  Elec       q    Type
REMARK                         _______ _______ _______ _____ _____    ______ ____
ROOT
ATOM      1  N   UNL     1      35.443 -17.564 -22.368  0.00  0.00    -0.243 NA
ATOM      2  N   UNL     1      34.251 -16.522 -23.892  0.00  0.00    -0.255 NA
ATOM      3  C   UNL     1      34.932 -16.485 -21.732  0.00  0.00    +0.121 C 
ATOM      4  C   UNL     1      34.192 -15.848 -22.699  0.00  0.00    +0.077 C 
ATOM      5  C   UNL     1      35.021 -17.560 -23.654  0.00  0.00    +0.201 C 
ENDROOT
BRANCH   4   7
ATOM      6  S   UNL     1      33.377 -13.322 -23.625  0.00  0.00    -0.085 S 
ATOM      7  C   UNL     1      33.432 -14.608 -22.490  0.00  0.00    +0.044 C 
ATOM      8  C   UNL     1      32.677 -14.329 -21.368  0.00  0.00    +0.008 C 
ATOM      9  C   UNL     1      32.051 -13.050 -21.442  0.00  0.00    +0.008 C 
ATOM     10  C   UNL     1      32.348 -12.397 -22.618  0.00  0.00    +0.035 C 
ENDBRANCH   4   7
BRANCH   1  11
ATOM     11  C   UNL     1      36.315 -18.577 -21.764  0.00  0.00    +0.101 C 
BRANCH  11  12
ATOM     12  C   UNL     1      35.542 -19.569 -20.963  0.00  0.00    -0.006 C 
ATOM     13  C   UNL     1      36.213 -20.507 -20.177  0.00  0.00    -0.003 C 
ATOM     14  C   UNL     1      34.148 -19.558 -20.996  0.00  0.00    -0.003 C 
ATOM     15  C   UNL     1      34.095 -21.423 -19.462  0.00  0.00    -0.022 C 
ATOM     16  C   UNL     1      35.489 -21.434 -19.427  0.00  0.00    -0.005 C 
ATOM     17  C   UNL     1      33.424 -20.485 -20.246  0.00  0.00    -0.005 C 
ATOM     18  C   UNL     1      33.321 -22.414 -18.660  0.00  0.00    +0.031 C 
ENDBRANCH  11  12
ENDBRANCH   1  11
TORSDOF 3
ENDMDL
MODEL 3
REMARK VINA RESULT:      -9.3      2.432      3.193
REMARK  Name = 446185
REMARK  3 active torsions:
REMARK  status: ('A' for Active; 'I' for Inactive)
REMARK    1  A    between atoms: N_1  and  C_11
REMARK    2  A    between atoms: C_4  and  C_7
REMARK    3  A    between atoms: C_11  and  C_12
REMARK                            x       y       z     vdW  Elec       q    Type
REMARK                         _______ _______ _______ _____ _____    ______ ____
ROOT
ATOM      1  N   UNL     1      34.569 -17.042 -21.768  0.00  0.00    -0.243 NA
ATOM      2  N   UNL     1      34.635 -15.298 -20.432  0.00  0.00    -0.255 NA
ATOM      3  C   UNL     1      33.708 -16.153 -22.314  0.00  0.00    +0.121 C 
ATOM      4  C   UNL     1      33.763 -15.072 -21.466  0.00  0.00    +0.077 C 
ATOM      5  C   UNL     1      35.106 -16.506 -20.648  0.00  0.00    +0.201 C 
ENDROOT
BRANCH   4   7
ATOM      6  S   UNL     1      32.918 -12.956 -23.112  0.00  0.00    -0.085 S 
ATOM      7  C   UNL     1      32.994 -13.833 -21.639  0.00  0.00    +0.044 C 
ATOM      8  C   UNL     1      32.245 -13.229 -20.648  0.00  0.00    +0.008 C 
ATOM      9  C   UNL     1      31.607 -12.038 -21.103  0.00  0.00    +0.008 C 
ATOM     10  C   UNL     1      31.888 -11.774 -22.425  0.00  0.00    +0.035 C 
ENDBRANCH   4   7
BRANCH   1  11
ATOM     11  C   UNL     1      34.872 -18.374 -22.303  0.00  0.00    +0.101 C 
BRANCH  11  12
ATOM     12  C   UNL     1      34.556 -19.451 -21.321  0.00  0.00    -0.006 C 
ATOM     13  C   UNL     1      33.232 -19.698 -20.958  0.00  0.00    -0.003 C 
ATOM     14  C   UNL     1      35.584 -20.213 -20.767  0.00  0.00    -0.003 C 
ATOM     15  C   UNL     1      33.966 -21.467 -19.485  0.00  0.00    -0.022 C 
ATOM     16  C   UNL     1      32.937 -20.706 -20.040  0.00  0.00    -0.005 C 
ATOM     17  C   UNL     1      35.290 -21.222 -19.849  0.00  0.00    -0.005 C 
ATOM     18  C   UNL     1      33.650 -22.546 -18.505  0.00  0.00    +0.031 C 
ENDBRANCH  11  12
ENDBRANCH   1  11
TORSDOF 3
ENDMDL
MODEL 4
REMARK VINA RESULT:      -8.8      2.396      7.109
REMARK  Name = 446185
REMARK  3 active torsions:
REMARK  status: ('A' for Active; 'I' for Inactive)
REMARK    1  A    between atoms: N_1  and  C_11
REMARK    2  A    between atoms: C_4  and  C_7
REMARK    3  A    between atoms: C_11  and  C_12
REMARK                            x       y       z     vdW  Elec       q    Type
REMARK                         _______ _______ _______ _____ _____    ______ ____
ROOT
ATOM      1  N   UNL     1      35.241 -18.432 -23.014  0.00  0.00    -0.243 NA
ATOM      2  N   UNL     1      36.325 -18.955 -21.175  0.00  0.00    -0.255 NA
ATOM      3  C   UNL     1      34.464 -19.355 -22.404  0.00  0.00    +0.121 C 
ATOM      4  C   UNL     1      35.157 -19.669 -21.259  0.00  0.00    +0.077 C 
ATOM      5  C   UNL     1      36.343 -18.213 -22.260  0.00  0.00    +0.201 C 
ENDROOT
BRANCH   4   7
ATOM      6  S   UNL     1      35.783 -21.575 -19.290  0.00  0.00    -0.085 S 
ATOM      7  C   UNL     1      34.711 -20.640 -20.250  0.00  0.00    +0.044 C 
ATOM      8  C   UNL     1      33.391 -20.916 -19.955  0.00  0.00    +0.008 C 
ATOM      9  C   UNL     1      33.259 -21.902 -18.934  0.00  0.00    +0.008 C 
ATOM     10  C   UNL     1      34.483 -22.345 -18.483  0.00  0.00    +0.035 C 
ENDBRANCH   4   7
BRANCH   1  11
ATOM     11  C   UNL     1      34.940 -17.773 -24.289  0.00  0.00    +0.101 C 
BRANCH  11  12
ATOM     12  C   UNL     1      34.481 -16.367 -24.093  0.00  0.00    -0.006 C 
ATOM     13  C   UNL     1      34.776 -15.696 -22.905  0.00  0.00    -0.003 C 
ATOM     14  C   UNL     1      33.758 -15.724 -25.096  0.00  0.00    -0.003 C 
ATOM     15  C   UNL     1      33.622 -13.738 -23.726  0.00  0.00    -0.022 C 
ATOM     16  C   UNL     1      34.346 -14.381 -22.723  0.00  0.00    -0.005 C 
ATOM     17  C   UNL     1      33.328 -14.409 -24.914  0.00  0.00    -0.005 C 
ATOM     18  C   UNL     1      33.163 -12.333 -23.531  0.00  0.00    +0.031 C 
ENDBRANCH  11  12
ENDBRANCH   1  11
TORSDOF 3
ENDMDL
MODEL 5
REMARK VINA RESULT:      -8.6      3.306      8.587
REMARK  Name = 446185
REMARK  3 active torsions:
REMARK  status: ('A' for Active; 'I' for Inactive)
REMARK    1  A    between atoms: N_1  and  C_11
REMARK    2  A    between atoms: C_4  and  C_7
REMARK    3  A    between atoms: C_11  and  C_12
REMARK                            x       y       z     vdW  Elec       q    Type
REMARK                         _______ _______ _______ _____ _____    ______ ____
ROOT
ATOM      1  N   UNL     1      33.769 -13.853 -24.194  0.00  0.00    -0.243 NA
ATOM      2  N   UNL     1      34.426 -14.739 -22.293  0.00  0.00    -0.255 NA
ATOM      3  C   UNL     1      33.891 -15.175 -24.451  0.00  0.00    +0.121 C 
ATOM      4  C   UNL     1      34.302 -15.711 -23.253  0.00  0.00    +0.077 C 
ATOM      5  C   UNL     1      34.095 -13.622 -22.901  0.00  0.00    +0.201 C 
ENDROOT
BRANCH   4   7
ATOM      6  S   UNL     1      34.689 -17.843 -21.463  0.00  0.00    -0.085 S 
ATOM      7  C   UNL     1      34.573 -17.136 -23.023  0.00  0.00    +0.044 C 
ATOM      8  C   UNL     1      34.765 -18.071 -24.021  0.00  0.00    +0.008 C 
ATOM      9  C   UNL     1      35.010 -19.375 -23.500  0.00  0.00    +0.008 C 
ATOM     10  C   UNL     1      34.995 -19.393 -22.123  0.00  0.00    +0.035 C 
ENDBRANCH   4   7
BRANCH   1  11
ATOM     11  C   UNL     1      33.352 -12.832 -25.161  0.00  0.00    +0.101 C 
BRANCH  11  12
ATOM     12  C   UNL     1      33.740 -11.460 -24.721  0.00  0.00    -0.006 C 
ATOM     13  C   UNL     1      34.861 -10.841 -25.276  0.00  0.00    -0.003 C 
ATOM     14  C   UNL     1      32.982 -10.796 -23.758  0.00  0.00    -0.003 C 
ATOM     15  C   UNL     1      34.466  -8.894 -23.900  0.00  0.00    -0.022 C 
ATOM     16  C   UNL     1      35.223  -9.558 -24.865  0.00  0.00    -0.005 C 
ATOM     17  C   UNL     1      33.344  -9.513 -23.347  0.00  0.00    -0.005 C 
ATOM     18  C   UNL     1      34.853  -7.523 -23.462  0.00  0.00    +0.031 C 
ENDBRANCH  11  12
ENDBRANCH   1  11
TORSDOF 3
ENDMDL
MODEL 6
REMARK VINA RESULT:      -8.6      5.440      9.705
REMARK  Name = 446185
REMARK  3 active torsions:
REMARK  status: ('A' for Active; 'I' for Inactive)
REMARK    1  A    between atoms: N_1  and  C_11
REMARK    2  A    between atoms: C_4  and  C_7
REMARK    3  A    between atoms: C_11  and  C_12
REMARK                            x       y       z     vdW  Elec       q    Type
REMARK                         _______ _______ _______ _____ _____    ______ ____
ROOT
ATOM      1  N   UNL     1      34.874 -22.813 -17.360  0.00  0.00    -0.243 NA
ATOM      2  N   UNL     1      36.596 -22.291 -16.097  0.00  0.00    -0.255 NA
ATOM      3  C   UNL     1      34.598 -23.359 -16.153  0.00  0.00    +0.121 C 
ATOM      4  C   UNL     1      35.684 -23.022 -15.380  0.00  0.00    +0.077 C 
ATOM      5  C   UNL     1      36.070 -22.183 -17.297  0.00  0.00    +0.201 C 
ENDROOT
BRANCH   4   7
ATOM      6  S   UNL     1      34.634 -24.156 -13.032  0.00  0.00    -0.085 S 
ATOM      7  C   UNL     1      35.852 -23.392 -13.968  0.00  0.00    +0.044 C 
ATOM      8  C   UNL     1      36.999 -23.174 -13.230  0.00  0.00    +0.008 C 
ATOM      9  C   UNL     1      36.874 -23.636 -11.888  0.00  0.00    +0.008 C 
ATOM     10  C   UNL     1      35.638 -24.193 -11.646  0.00  0.00    +0.035 C 
ENDBRANCH   4   7
BRANCH   1  11
ATOM     11  C   UNL     1      34.016 -22.890 -18.547  0.00  0.00    +0.101 C 
BRANCH  11  12
ATOM     12  C   UNL     1      34.157 -21.684 -19.413  0.00  0.00    -0.006 C 
ATOM     13  C   UNL     1      35.413 -21.314 -19.896  0.00  0.00    -0.003 C 
ATOM     14  C   UNL     1      33.033 -20.927 -19.742  0.00  0.00    -0.003 C 
ATOM     15  C   UNL     1      34.420 -19.429 -21.035  0.00  0.00    -0.022 C 
ATOM     16  C   UNL     1      35.544 -20.186 -20.707  0.00  0.00    -0.005 C 
ATOM     17  C   UNL     1      33.164 -19.799 -20.553  0.00  0.00    -0.005 C 
ATOM     18  C   UNL     1      34.560 -18.224 -21.902  0.00  0.00    +0.031 C 
ENDBRANCH  11  12
ENDBRANCH   1  11
TORSDOF 3
ENDMDL
MODEL 7
REMARK VINA RESULT:      -8.6      4.807      8.917
REMARK  Name = 446185
REMARK  3 active torsions:
REMARK  status: ('A' for Active; 'I' for Inactive)
REMARK    1  A    between atoms: N_1  and  C_11
REMARK    2  A    between atoms: C_4  and  C_7
REMARK    3  A    between atoms: C_11  and  C_12
REMARK                            x       y       z     vdW  Elec       q    Type
REMARK                         _______ _______ _______ _____ _____    ______ ____
ROOT
ATOM      1  N   UNL     1      34.468 -22.817 -18.190  0.00  0.00    -0.243 NA
ATOM      2  N   UNL     1      34.673 -22.816 -16.002  0.00  0.00    -0.255 NA
ATOM      3  C   UNL     1      33.238 -23.137 -17.726  0.00  0.00    +0.121 C 
ATOM      4  C   UNL     1      33.387 -23.131 -16.359  0.00  0.00    +0.077 C 
ATOM      5  C   UNL     1      35.302 -22.632 -17.141  0.00  0.00    +0.201 C 
ENDROOT
BRANCH   4   7
ATOM      6  S   UNL     1      32.559 -24.250 -13.917  0.00  0.00    -0.085 S 
ATOM      7  C   UNL     1      32.313 -23.421 -15.400  0.00  0.00    +0.044 C 
ATOM      8  C   UNL     1      30.990 -23.065 -15.570  0.00  0.00    +0.008 C 
ATOM      9  C   UNL     1      30.174 -23.478 -14.477  0.00  0.00    +0.008 C 
ATOM     10  C   UNL     1      30.901 -24.133 -13.508  0.00  0.00    +0.035 C 
ENDBRANCH   4   7
BRANCH   1  11
ATOM     11  C   UNL     1      34.840 -22.692 -19.604  0.00  0.00    +0.101 C 
BRANCH  11  12
ATOM     12  C   UNL     1      34.680 -21.294 -20.098  0.00  0.00    -0.006 C 
ATOM     13  C   UNL     1      35.806 -20.524 -20.389  0.00  0.00    -0.003 C 
ATOM     14  C   UNL     1      33.404 -20.758 -20.272  0.00  0.00    -0.003 C 
ATOM     15  C   UNL     1      34.379 -18.680 -21.025  0.00  0.00    -0.022 C 
ATOM     16  C   UNL     1      35.655 -19.216 -20.853  0.00  0.00    -0.005 C 
ATOM     17  C   UNL     1      33.253 -19.451 -20.735  0.00  0.00    -0.005 C 
ATOM     18  C   UNL     1      34.219 -17.283 -21.521  0.00  0.00    +0.031 C 
ENDBRANCH  11  12
ENDBRANCH   1  11
TORSDOF 3
ENDMDL
MODEL 8
REMARK VINA RESULT:      -8.5      2.121      3.286
REMARK  Name = 446185
REMARK  3 active torsions:
REMARK  status: ('A' for Active; 'I' for Inactive)
REMARK    1  A    between atoms: N_1  and  C_11
REMARK    2  A    between atoms: C_4  and  C_7
REMARK    3  A    between atoms: C_11  and  C_12
REMARK                            x       y       z     vdW  Elec       q    Type
REMARK                         _______ _______ _______ _____ _____    ______ ____
ROOT
ATOM      1  N   UNL     1      35.470 -20.031 -20.511  0.00  0.00    -0.243 NA
ATOM      2  N   UNL     1      33.595 -18.984 -20.981  0.00  0.00    -0.255 NA
ATOM      3  C   UNL     1      35.853 -18.799 -20.920  0.00  0.00    +0.121 C 
ATOM      4  C   UNL     1      34.669 -18.162 -21.209  0.00  0.00    +0.077 C 
ATOM      5  C   UNL     1      34.120 -20.112 -20.558  0.00  0.00    +0.201 C 
ENDROOT
BRANCH   4   7
ATOM      6  S   UNL     1      34.813 -16.325 -23.331  0.00  0.00    -0.085 S 
ATOM      7  C   UNL     1      34.560 -16.781 -21.696  0.00  0.00    +0.044 C 
ATOM      8  C   UNL     1      34.244 -15.692 -20.908  0.00  0.00    +0.008 C 
ATOM      9  C   UNL     1      34.210 -14.477 -21.652  0.00  0.00    +0.008 C 
ATOM     10  C   UNL     1      34.501 -14.678 -22.983  0.00  0.00    +0.035 C 
ENDBRANCH   4   7
BRANCH   1  11
ATOM     11  C   UNL     1      36.372 -21.106 -20.086  0.00  0.00    +0.101 C 
BRANCH  11  12
ATOM     12  C   UNL     1      35.930 -21.727 -18.804  0.00  0.00    -0.006 C 
ATOM     13  C   UNL     1      36.780 -21.724 -17.697  0.00  0.00    -0.003 C 
ATOM     14  C   UNL     1      34.666 -22.309 -18.711  0.00  0.00    -0.003 C 
ATOM     15  C   UNL     1      35.101 -22.887 -16.406  0.00  0.00    -0.022 C 
ATOM     16  C   UNL     1      36.364 -22.305 -16.498  0.00  0.00    -0.005 C 
ATOM     17  C   UNL     1      34.251 -22.889 -17.512  0.00  0.00    -0.005 C 
ATOM     18  C   UNL     1      34.658 -23.507 -15.124  0.00  0.00    +0.031 C 
ENDBRANCH  11  12
ENDBRANCH   1  11
TORSDOF 3
ENDMDL
MODEL 9
REMARK VINA RESULT:      -8.5      2.842      6.955
REMARK  Name = 446185
REMARK  3 active torsions:
REMARK  status: ('A' for Active; 'I' for Inactive)
REMARK    1  A    between atoms: N_1  and  C_11
REMARK    2  A    between atoms: C_4  and  C_7
REMARK    3  A    between atoms: C_11  and  C_12
REMARK                            x       y       z     vdW  Elec       q    Type
REMARK                         _______ _______ _______ _____ _____    ______ ____
ROOT
ATOM      1  N   UNL     1      35.066 -17.393 -22.699  0.00  0.00    -0.243 NA
ATOM      2  N   UNL     1      34.327 -19.463 -22.769  0.00  0.00    -0.255 NA
ATOM      3  C   UNL     1      35.462 -17.944 -21.528  0.00  0.00    +0.121 C 
ATOM      4  C   UNL     1      34.992 -19.234 -21.591  0.00  0.00    +0.077 C 
ATOM      5  C   UNL     1      34.391 -18.321 -23.417  0.00  0.00    +0.201 C 
ENDROOT
BRANCH   4   7
ATOM      6  S   UNL     1      33.884 -21.115 -19.821  0.00  0.00    -0.085 S 
ATOM      7  C   UNL     1      35.176 -20.244 -20.540  0.00  0.00    +0.044 C 
ATOM      8  C   UNL     1      36.396 -20.611 -20.007  0.00  0.00    +0.008 C 
ATOM      9  C   UNL     1      36.267 -21.614 -19.002  0.00  0.00    +0.008 C 
ATOM     10  C   UNL     1      34.955 -21.980 -18.802  0.00  0.00    +0.035 C 
ENDBRANCH   4   7
BRANCH   1  11
ATOM     11  C   UNL     1      35.322 -16.013 -23.122  0.00  0.00    +0.101 C 
BRANCH  11  12
ATOM     12  C   UNL     1      34.310 -15.066 -22.573  0.00  0.00    -0.006 C 
ATOM     13  C   UNL     1      33.670 -14.159 -23.419  0.00  0.00    -0.003 C 
ATOM     14  C   UNL     1      34.000 -15.088 -21.214  0.00  0.00    -0.003 C 
ATOM     15  C   UNL     1      32.414 -13.296 -21.545  0.00  0.00    -0.022 C 
ATOM     16  C   UNL     1      32.722 -13.275 -22.904  0.00  0.00    -0.005 C 
ATOM     17  C   UNL     1      33.052 -14.204 -20.699  0.00  0.00    -0.005 C 
ATOM     18  C   UNL     1      31.400 -12.351 -20.995  0.00  0.00    +0.031 C 
ENDBRANCH  11  12
ENDBRANCH   1  11
TORSDOF 3
ENDMDL
