MODEL 1
REMARK VINA RESULT:     -10.4      0.000      0.000
REMARK  Name = 44129630
REMARK  3 active torsions:
REMARK  status: ('A' for Active; 'I' for Inactive)
REMARK    1  A    between atoms: C_5  and  C_14
REMARK    2  A    between atoms: C_11  and  S_19
REMARK    3  A    between atoms: S_19  and  N_22
REMARK                            x       y       z     vdW  Elec       q    Type
REMARK                         _______ _______ _______ _____ _____    ______ ____
ROOT
ATOM      1  S   UNL     1      36.187 -21.399 -19.135  0.00  0.00    +0.060 S 
ATOM      2  O   UNL     1      37.037 -20.387 -18.539  0.00  0.00    -0.153 OA
ATOM      3  O   UNL     1      36.729 -22.444 -19.982  0.00  0.00    -0.153 OA
ATOM      4  N   UNL     1      35.244 -22.107 -17.900  0.00  0.00    -0.180 NA
ATOM      5  C   UNL     1      34.014 -22.793 -18.353  0.00  0.00    +0.080 C 
ATOM      6  C   UNL     1      33.038 -21.721 -18.841  0.00  0.00    +0.045 C 
ATOM      7  C   UNL     1      33.597 -20.803 -19.903  0.00  0.00    -0.002 C 
ATOM      8  C   UNL     1      34.965 -20.567 -20.098  0.00  0.00    +0.119 C 
ATOM      9  C   UNL     1      35.424 -19.669 -21.065  0.00  0.00    +0.039 C 
ATOM     10  C   UNL     1      32.691 -20.089 -20.704  0.00  0.00    -0.002 C 
ATOM     11  C   UNL     1      34.506 -18.982 -21.856  0.00  0.00    +0.124 C 
ATOM     12  C   UNL     1      33.141 -19.191 -21.675  0.00  0.00    +0.020 C 
ATOM     13  H   UNL     1      34.972 -21.369 -17.251  0.00  0.00    +0.149 HD
ENDROOT
BRANCH   5  14
ATOM     14  C   UNL     1      33.440 -23.590 -17.195  0.00  0.00    +0.016 C 
ATOM     15  C   UNL     1      34.241 -23.437 -15.904  0.00  0.00    +0.001 C 
ATOM     16  C   UNL     1      32.051 -23.122 -16.773  0.00  0.00    +0.001 C 
ATOM     17  C   UNL     1      33.280 -23.904 -14.815  0.00  0.00    +0.000 C 
ATOM     18  C   UNL     1      31.871 -23.714 -15.379  0.00  0.00    +0.000 C 
ENDBRANCH   5  14
BRANCH  11  19
ATOM     19  S   UNL     1      35.065 -17.859 -23.069  0.00  0.00    +0.063 S 
ATOM     20  O   UNL     1      36.462 -17.547 -22.798  0.00  0.00    -0.153 OA
ATOM     21  O   UNL     1      34.679 -18.364 -24.379  0.00  0.00    -0.153 OA
BRANCH  19  22
ATOM     22  N   UNL     1      34.111 -16.484 -22.706  0.00  0.00    -0.160 NA
ATOM     23  N   UNL     1      33.207 -13.815 -22.135  0.00  0.00    +0.387 N 
ATOM     24  C   UNL     1      34.366 -15.859 -21.378  0.00  0.00    +0.073 C 
ATOM     25  C   UNL     1      34.027 -15.458 -23.784  0.00  0.00    +0.073 C 
ATOM     26  C   UNL     1      33.273 -14.834 -21.078  0.00  0.00    -0.058 C 
ATOM     27  C   UNL     1      32.941 -14.441 -23.438  0.00  0.00    -0.058 C 
ATOM     28  C   UNL     1      32.182 -12.818 -21.826  0.00  0.00    -0.101 C 
ATOM     29  H   UNL     1      34.110 -13.343 -22.184  0.00  0.00    -0.080 HD
ENDBRANCH  19  22
ENDBRANCH  11  19
TORSDOF 3
ENDMDL
MODEL 2
REMARK VINA RESULT:     -10.0      4.086      9.746
REMARK  Name = 44129630
REMARK  3 active torsions:
REMARK  status: ('A' for Active; 'I' for Inactive)
REMARK    1  A    between atoms: C_5  and  C_14
REMARK    2  A    between atoms: C_11  and  S_19
REMARK    3  A    between atoms: S_19  and  N_22
REMARK                            x       y       z     vdW  Elec       q    Type
REMARK                         _______ _______ _______ _____ _____    ______ ____
ROOT
ATOM      1  S   UNL     1      33.680 -22.385 -19.103  0.00  0.00    +0.060 S 
ATOM      2  O   UNL     1      32.462 -22.085 -18.377  0.00  0.00    -0.153 OA
ATOM      3  O   UNL     1      33.846 -23.629 -19.828  0.00  0.00    -0.153 OA
ATOM      4  N   UNL     1      34.025 -21.076 -20.144  0.00  0.00    -0.180 NA
ATOM      5  C   UNL     1      35.430 -20.974 -20.595  0.00  0.00    +0.080 C 
ATOM      6  C   UNL     1      36.278 -20.573 -19.387  0.00  0.00    +0.045 C 
ATOM      7  C   UNL     1      36.132 -21.484 -18.190  0.00  0.00    -0.002 C 
ATOM      8  C   UNL     1      35.017 -22.301 -17.954  0.00  0.00    +0.119 C 
ATOM      9  C   UNL     1      34.915 -23.089 -16.805  0.00  0.00    +0.039 C 
ATOM     10  C   UNL     1      37.145 -21.467 -17.219  0.00  0.00    -0.002 C 
ATOM     11  C   UNL     1      35.939 -23.064 -15.861  0.00  0.00    +0.124 C 
ATOM     12  C   UNL     1      37.053 -22.253 -16.067  0.00  0.00    +0.020 C 
ATOM     13  H   UNL     1      33.789 -20.214 -19.653  0.00  0.00    +0.149 HD
ENDROOT
BRANCH   5  14
ATOM     14  C   UNL     1      35.516 -19.945 -21.708  0.00  0.00    +0.016 C 
ATOM     15  C   UNL     1      34.158 -19.370 -22.103  0.00  0.00    +0.001 C 
ATOM     16  C   UNL     1      36.296 -18.695 -21.312  0.00  0.00    +0.001 C 
ATOM     17  C   UNL     1      34.502 -18.087 -22.853  0.00  0.00    +0.000 C 
ATOM     18  C   UNL     1      35.884 -17.659 -22.354  0.00  0.00    +0.000 C 
ENDBRANCH   5  14
BRANCH  11  19
ATOM     19  S   UNL     1      35.826 -24.043 -14.421  0.00  0.00    +0.063 S 
ATOM     20  O   UNL     1      35.645 -23.160 -13.277  0.00  0.00    -0.153 OA
ATOM     21  O   UNL     1      34.869 -25.114 -14.665  0.00  0.00    -0.153 OA
BRANCH  19  22
ATOM     22  N   UNL     1      37.399 -24.715 -14.358  0.00  0.00    -0.160 NA
ATOM     23  N   UNL     1      39.696 -26.330 -13.738  0.00  0.00    +0.387 N 
ATOM     24  C   UNL     1      38.106 -24.569 -13.054  0.00  0.00    +0.073 C 
ATOM     25  C   UNL     1      37.528 -26.099 -14.896  0.00  0.00    +0.073 C 
ATOM     26  C   UNL     1      39.574 -24.959 -13.224  0.00  0.00    -0.058 C 
ATOM     27  C   UNL     1      39.007 -26.459 -15.030  0.00  0.00    -0.058 C 
ATOM     28  C   UNL     1      41.103 -26.709 -13.866  0.00  0.00    -0.101 C 
ATOM     29  H   UNL     1      39.253 -26.964 -13.073  0.00  0.00    -0.080 HD
ENDBRANCH  19  22
ENDBRANCH  11  19
TORSDOF 3
ENDMDL
MODEL 3
REMARK VINA RESULT:      -9.4      2.487      9.012
REMARK  Name = 44129630
REMARK  3 active torsions:
REMARK  status: ('A' for Active; 'I' for Inactive)
REMARK    1  A    between atoms: C_5  and  C_14
REMARK    2  A    between atoms: C_11  and  S_19
REMARK    3  A    between atoms: S_19  and  N_22
REMARK                            x       y       z     vdW  Elec       q    Type
REMARK                         _______ _______ _______ _____ _____    ______ ____
ROOT
ATOM      1  S   UNL     1      33.034 -13.672 -23.865  0.00  0.00    +0.060 S 
ATOM      2  O   UNL     1      32.199 -14.389 -24.808  0.00  0.00    -0.153 OA
ATOM      3  O   UNL     1      34.260 -13.020 -24.280  0.00  0.00    -0.153 OA
ATOM      4  N   UNL     1      32.058 -12.554 -23.021  0.00  0.00    -0.180 NA
ATOM      5  C   UNL     1      32.600 -12.086 -21.727  0.00  0.00    +0.080 C 
ATOM      6  C   UNL     1      32.550 -13.261 -20.749  0.00  0.00    +0.045 C 
ATOM      7  C   UNL     1      33.247 -14.510 -21.237  0.00  0.00    -0.002 C 
ATOM      8  C   UNL     1      33.485 -14.803 -22.587  0.00  0.00    +0.119 C 
ATOM      9  C   UNL     1      34.092 -15.997 -22.984  0.00  0.00    +0.039 C 
ATOM     10  C   UNL     1      33.626 -15.471 -20.285  0.00  0.00    -0.002 C 
ATOM     11  C   UNL     1      34.469 -16.929 -22.020  0.00  0.00    +0.124 C 
ATOM     12  C   UNL     1      34.236 -16.667 -20.672  0.00  0.00    +0.020 C 
ATOM     13  H   UNL     1      31.157 -12.996 -22.843  0.00  0.00    +0.149 HD
ENDROOT
BRANCH   5  14
ATOM     14  C   UNL     1      31.767 -10.914 -21.238  0.00  0.00    +0.016 C 
ATOM     15  C   UNL     1      31.729 -10.796 -19.717  0.00  0.00    +0.001 C 
ATOM     16  C   UNL     1      32.332  -9.559 -21.656  0.00  0.00    +0.001 C 
ATOM     17  C   UNL     1      31.266  -9.364 -19.468  0.00  0.00    +0.000 C 
ATOM     18  C   UNL     1      31.643  -8.571 -20.721  0.00  0.00    +0.000 C 
ENDBRANCH   5  14
BRANCH  11  19
ATOM     19  S   UNL     1      35.230 -18.424 -22.500  0.00  0.00    +0.063 S 
ATOM     20  O   UNL     1      34.600 -18.888 -23.728  0.00  0.00    -0.153 OA
ATOM     21  O   UNL     1      36.674 -18.243 -22.454  0.00  0.00    -0.153 OA
BRANCH  19  22
ATOM     22  N   UNL     1      34.764 -19.456 -21.215  0.00  0.00    -0.160 NA
ATOM     23  N   UNL     1      33.951 -21.719 -19.639  0.00  0.00    +0.387 N 
ATOM     24  C   UNL     1      33.367 -19.971 -21.282  0.00  0.00    +0.073 C 
ATOM     25  C   UNL     1      35.730 -20.541 -20.881  0.00  0.00    +0.073 C 
ATOM     26  C   UNL     1      33.006 -20.639 -19.956  0.00  0.00    -0.058 C 
ATOM     27  C   UNL     1      35.323 -21.198 -19.563  0.00  0.00    -0.058 C 
ATOM     28  C   UNL     1      33.581 -22.377 -18.386  0.00  0.00    -0.101 C 
ATOM     29  H   UNL     1      33.912 -22.411 -20.388  0.00  0.00    -0.080 HD
ENDBRANCH  19  22
ENDBRANCH  11  19
TORSDOF 3
ENDMDL
MODEL 4
REMARK VINA RESULT:      -9.4      3.556      8.778
REMARK  Name = 44129630
REMARK  3 active torsions:
REMARK  status: ('A' for Active; 'I' for Inactive)
REMARK    1  A    between atoms: C_5  and  C_14
REMARK    2  A    between atoms: C_11  and  S_19
REMARK    3  A    between atoms: S_19  and  N_22
REMARK                            x       y       z     vdW  Elec       q    Type
REMARK                         _______ _______ _______ _____ _____    ______ ____
ROOT
ATOM      1  S   UNL     1      33.595 -21.891 -19.379  0.00  0.00    +0.060 S 
ATOM      2  O   UNL     1      32.409 -21.492 -18.647  0.00  0.00    -0.153 OA
ATOM      3  O   UNL     1      33.613 -23.081 -20.206  0.00  0.00    -0.153 OA
ATOM      4  N   UNL     1      34.137 -20.557 -20.298  0.00  0.00    -0.180 NA
ATOM      5  C   UNL     1      35.553 -20.608 -20.720  0.00  0.00    +0.080 C 
ATOM      6  C   UNL     1      36.416 -20.426 -19.470  0.00  0.00    +0.045 C 
ATOM      7  C   UNL     1      36.121 -21.407 -18.358  0.00  0.00    -0.002 C 
ATOM      8  C   UNL     1      34.902 -22.083 -18.209  0.00  0.00    +0.119 C 
ATOM      9  C   UNL     1      34.667 -22.943 -17.133  0.00  0.00    +0.039 C 
ATOM     10  C   UNL     1      37.103 -21.607 -17.375  0.00  0.00    -0.002 C 
ATOM     11  C   UNL     1      35.661 -23.135 -16.177  0.00  0.00    +0.124 C 
ATOM     12  C   UNL     1      36.878 -22.467 -16.297  0.00  0.00    +0.020 C 
ATOM     13  H   UNL     1      34.005 -19.716 -19.738  0.00  0.00    +0.149 HD
ENDROOT
BRANCH   5  14
ATOM     14  C   UNL     1      35.804 -19.510 -21.739  0.00  0.00    +0.016 C 
ATOM     15  C   UNL     1      34.807 -19.524 -22.894  0.00  0.00    +0.001 C 
ATOM     16  C   UNL     1      35.621 -18.107 -21.168  0.00  0.00    +0.001 C 
ATOM     17  C   UNL     1      34.935 -18.134 -23.511  0.00  0.00    +0.000 C 
ATOM     18  C   UNL     1      35.471 -17.225 -22.403  0.00  0.00    +0.000 C 
ENDBRANCH   5  14
BRANCH  11  19
ATOM     19  S   UNL     1      35.383 -24.207 -14.828  0.00  0.00    +0.063 S 
ATOM     20  O   UNL     1      35.894 -25.526 -15.176  0.00  0.00    -0.153 OA
ATOM     21  O   UNL     1      35.845 -23.552 -13.613  0.00  0.00    -0.153 OA
BRANCH  19  22
ATOM     22  N   UNL     1      33.672 -24.266 -14.805  0.00  0.00    -0.160 NA
ATOM     23  N   UNL     1      30.899 -23.904 -14.136  0.00  0.00    +0.387 N 
ATOM     24  C   UNL     1      33.070 -24.968 -13.636  0.00  0.00    +0.073 C 
ATOM     25  C   UNL     1      32.981 -22.973 -15.079  0.00  0.00    +0.073 C 
ATOM     26  C   UNL     1      31.578 -25.183 -13.883  0.00  0.00    -0.058 C 
ATOM     27  C   UNL     1      31.491 -23.227 -15.298  0.00  0.00    -0.058 C 
ATOM     28  C   UNL     1      29.466 -24.113 -14.337  0.00  0.00    -0.101 C 
ATOM     29  H   UNL     1      31.024 -23.306 -13.318  0.00  0.00    -0.080 HD
ENDBRANCH  19  22
ENDBRANCH  11  19
TORSDOF 3
ENDMDL
MODEL 5
REMARK VINA RESULT:      -9.2      3.319      4.985
REMARK  Name = 44129630
REMARK  3 active torsions:
REMARK  status: ('A' for Active; 'I' for Inactive)
REMARK    1  A    between atoms: C_5  and  C_14
REMARK    2  A    between atoms: C_11  and  S_19
REMARK    3  A    between atoms: S_19  and  N_22
REMARK                            x       y       z     vdW  Elec       q    Type
REMARK                         _______ _______ _______ _____ _____    ______ ____
ROOT
ATOM      1  S   UNL     1      34.084 -16.680 -21.222  0.00  0.00    +0.060 S 
ATOM      2  O   UNL     1      32.730 -16.290 -20.881  0.00  0.00    -0.153 OA
ATOM      3  O   UNL     1      35.230 -15.904 -20.791  0.00  0.00    -0.153 OA
ATOM      4  N   UNL     1      34.305 -18.312 -20.769  0.00  0.00    -0.180 NA
ATOM      5  C   UNL     1      35.415 -19.016 -21.447  0.00  0.00    +0.080 C 
ATOM      6  C   UNL     1      35.018 -19.207 -22.912  0.00  0.00    +0.045 C 
ATOM      7  C   UNL     1      34.635 -17.932 -23.627  0.00  0.00    -0.002 C 
ATOM      8  C   UNL     1      34.183 -16.772 -22.981  0.00  0.00    +0.119 C 
ATOM      9  C   UNL     1      33.796 -15.636 -23.698  0.00  0.00    +0.039 C 
ATOM     10  C   UNL     1      34.671 -17.924 -25.031  0.00  0.00    -0.002 C 
ATOM     11  C   UNL     1      33.852 -15.649 -25.089  0.00  0.00    +0.124 C 
ATOM     12  C   UNL     1      34.289 -16.792 -25.756  0.00  0.00    +0.020 C 
ATOM     13  H   UNL     1      33.442 -18.814 -20.974  0.00  0.00    +0.149 HD
ENDROOT
BRANCH   5  14
ATOM     14  C   UNL     1      35.653 -20.345 -20.753  0.00  0.00    +0.016 C 
ATOM     15  C   UNL     1      36.729 -20.274 -19.673  0.00  0.00    +0.001 C 
ATOM     16  C   UNL     1      34.441 -20.841 -19.972  0.00  0.00    +0.001 C 
ATOM     17  C   UNL     1      36.486 -21.519 -18.825  0.00  0.00    +0.000 C 
ATOM     18  C   UNL     1      35.016 -21.892 -19.028  0.00  0.00    +0.000 C 
ENDBRANCH   5  14
BRANCH  11  19
ATOM     19  S   UNL     1      33.374 -14.238 -25.997  0.00  0.00    +0.063 S 
ATOM     20  O   UNL     1      34.455 -13.889 -26.909  0.00  0.00    -0.153 OA
ATOM     21  O   UNL     1      32.032 -14.457 -26.518  0.00  0.00    -0.153 OA
BRANCH  19  22
ATOM     22  N   UNL     1      33.297 -13.061 -24.755  0.00  0.00    -0.160 NA
ATOM     23  N   UNL     1      32.556 -10.832 -23.097  0.00  0.00    +0.387 N 
ATOM     24  C   UNL     1      33.594 -11.663 -25.178  0.00  0.00    +0.073 C 
ATOM     25  C   UNL     1      32.087 -13.123 -23.887  0.00  0.00    +0.073 C 
ATOM     26  C   UNL     1      33.759 -10.781 -23.941  0.00  0.00    -0.058 C 
ATOM     27  C   UNL     1      32.281 -12.212 -22.676  0.00  0.00    -0.058 C 
ATOM     28  C   UNL     1      32.707  -9.959 -21.933  0.00  0.00    -0.101 C 
ATOM     29  H   UNL     1      31.764 -10.499 -23.647  0.00  0.00    -0.080 HD
ENDBRANCH  19  22
ENDBRANCH  11  19
TORSDOF 3
ENDMDL
MODEL 6
REMARK VINA RESULT:      -9.0      5.357      8.178
REMARK  Name = 44129630
REMARK  3 active torsions:
REMARK  status: ('A' for Active; 'I' for Inactive)
REMARK    1  A    between atoms: C_5  and  C_14
REMARK    2  A    between atoms: C_11  and  S_19
REMARK    3  A    between atoms: S_19  and  N_22
REMARK                            x       y       z     vdW  Elec       q    Type
REMARK                         _______ _______ _______ _____ _____    ______ ____
ROOT
ATOM      1  S   UNL     1      33.420 -15.645 -20.833  0.00  0.00    +0.060 S 
ATOM      2  O   UNL     1      32.154 -16.020 -20.234  0.00  0.00    -0.153 OA
ATOM      3  O   UNL     1      34.598 -15.396 -20.025  0.00  0.00    -0.153 OA
ATOM      4  N   UNL     1      33.800 -16.782 -22.049  0.00  0.00    -0.180 NA
ATOM      5  C   UNL     1      34.770 -16.324 -23.068  0.00  0.00    +0.080 C 
ATOM      6  C   UNL     1      34.079 -15.257 -23.919  0.00  0.00    +0.045 C 
ATOM      7  C   UNL     1      33.501 -14.105 -23.130  0.00  0.00    -0.002 C 
ATOM      8  C   UNL     1      33.148 -14.178 -21.775  0.00  0.00    +0.119 C 
ATOM      9  C   UNL     1      32.572 -13.094 -21.108  0.00  0.00    +0.039 C 
ATOM     10  C   UNL     1      33.239 -12.904 -23.808  0.00  0.00    -0.002 C 
ATOM     11  C   UNL     1      32.332 -11.909 -21.799  0.00  0.00    +0.124 C 
ATOM     12  C   UNL     1      32.665 -11.814 -23.149  0.00  0.00    +0.020 C 
ATOM     13  H   UNL     1      32.935 -17.031 -22.528  0.00  0.00    +0.149 HD
ENDROOT
BRANCH   5  14
ATOM     14  C   UNL     1      35.205 -17.514 -23.904  0.00  0.00    +0.016 C 
ATOM     15  C   UNL     1      35.170 -18.833 -23.137  0.00  0.00    +0.001 C 
ATOM     16  C   UNL     1      34.273 -17.797 -25.079  0.00  0.00    +0.001 C 
ATOM     17  C   UNL     1      35.180 -19.898 -24.229  0.00  0.00    +0.000 C 
ATOM     18  C   UNL     1      34.614 -19.227 -25.482  0.00  0.00    +0.000 C 
ENDBRANCH   5  14
BRANCH  11  19
ATOM     19  S   UNL     1      31.614 -10.547 -20.978  0.00  0.00    +0.063 S 
ATOM     20  O   UNL     1      30.170 -10.735 -20.952  0.00  0.00    -0.153 OA
ATOM     21  O   UNL     1      32.336 -10.325 -19.734  0.00  0.00    -0.153 OA
BRANCH  19  22
ATOM     22  N   UNL     1      31.987  -9.277 -22.065  0.00  0.00    -0.160 NA
ATOM     23  N   UNL     1      32.121  -6.745 -23.420  0.00  0.00    +0.387 N 
ATOM     24  C   UNL     1      30.853  -8.800 -22.906  0.00  0.00    +0.073 C 
ATOM     25  C   UNL     1      32.750  -8.137 -21.481  0.00  0.00    +0.073 C 
ATOM     26  C   UNL     1      31.384  -7.876 -24.001  0.00  0.00    -0.058 C 
ATOM     27  C   UNL     1      33.244  -7.227 -22.604  0.00  0.00    -0.058 C 
ATOM     28  C   UNL     1      32.597  -5.847 -24.471  0.00  0.00    -0.101 C 
ATOM     29  H   UNL     1      31.486  -6.223 -22.816  0.00  0.00    -0.080 HD
ENDBRANCH  19  22
ENDBRANCH  11  19
TORSDOF 3
ENDMDL
MODEL 7
REMARK VINA RESULT:      -9.0      6.158      8.338
REMARK  Name = 44129630
REMARK  3 active torsions:
REMARK  status: ('A' for Active; 'I' for Inactive)
REMARK    1  A    between atoms: C_5  and  C_14
REMARK    2  A    between atoms: C_11  and  S_19
REMARK    3  A    between atoms: S_19  and  N_22
REMARK                            x       y       z     vdW  Elec       q    Type
REMARK                         _______ _______ _______ _____ _____    ______ ____
ROOT
ATOM      1  S   UNL     1      33.484 -13.760 -24.426  0.00  0.00    +0.060 S 
ATOM      2  O   UNL     1      34.298 -12.602 -24.735  0.00  0.00    -0.153 OA
ATOM      3  O   UNL     1      32.251 -14.034 -25.137  0.00  0.00    -0.153 OA
ATOM      4  N   UNL     1      34.480 -15.147 -24.469  0.00  0.00    -0.180 NA
ATOM      5  C   UNL     1      33.965 -16.323 -23.735  0.00  0.00    +0.080 C 
ATOM      6  C   UNL     1      34.034 -16.004 -22.240  0.00  0.00    +0.045 C 
ATOM      7  C   UNL     1      33.323 -14.731 -21.840  0.00  0.00    -0.002 C 
ATOM      8  C   UNL     1      33.057 -13.670 -22.716  0.00  0.00    +0.119 C 
ATOM      9  C   UNL     1      32.439 -12.495 -22.279  0.00  0.00    +0.039 C 
ATOM     10  C   UNL     1      32.962 -14.571 -20.493  0.00  0.00    -0.002 C 
ATOM     11  C   UNL     1      32.080 -12.365 -20.940  0.00  0.00    +0.124 C 
ATOM     12  C   UNL     1      32.342 -13.401 -20.047  0.00  0.00    +0.020 C 
ATOM     13  H   UNL     1      35.384 -14.897 -24.069  0.00  0.00    +0.149 HD
ENDROOT
BRANCH   5  14
ATOM     14  C   UNL     1      34.811 -17.534 -24.089  0.00  0.00    +0.016 C 
ATOM     15  C   UNL     1      35.077 -18.450 -22.898  0.00  0.00    +0.001 C 
ATOM     16  C   UNL     1      34.131 -18.474 -25.078  0.00  0.00    +0.001 C 
ATOM     17  C   UNL     1      35.509 -19.768 -23.533  0.00  0.00    +0.000 C 
ATOM     18  C   UNL     1      34.910 -19.778 -24.941  0.00  0.00    +0.000 C 
ENDBRANCH   5  14
BRANCH  11  19
ATOM     19  S   UNL     1      31.306 -10.904 -20.380  0.00  0.00    +0.063 S 
ATOM     20  O   UNL     1      29.873 -11.024 -20.614  0.00  0.00    -0.153 OA
ATOM     21  O   UNL     1      31.796 -10.605 -19.043  0.00  0.00    -0.153 OA
BRANCH  19  22
ATOM     22  N   UNL     1      31.950  -9.753 -21.473  0.00  0.00    -0.160 NA
ATOM     23  N   UNL     1      32.405  -7.407 -23.071  0.00  0.00    +0.387 N 
ATOM     24  C   UNL     1      31.117  -9.476 -22.677  0.00  0.00    +0.073 C 
ATOM     25  C   UNL     1      32.451  -8.493 -20.855  0.00  0.00    +0.073 C 
ATOM     26  C   UNL     1      31.927  -8.657 -23.680  0.00  0.00    -0.058 C 
ATOM     27  C   UNL     1      33.235  -7.693 -21.893  0.00  0.00    -0.058 C 
ATOM     28  C   UNL     1      33.150  -6.611 -24.046  0.00  0.00    -0.101 C 
ATOM     29  H   UNL     1      31.594  -6.866 -22.769  0.00  0.00    -0.080 HD
ENDBRANCH  19  22
ENDBRANCH  11  19
TORSDOF 3
ENDMDL
MODEL 8
REMARK VINA RESULT:      -8.8      3.985      5.926
REMARK  Name = 44129630
REMARK  3 active torsions:
REMARK  status: ('A' for Active; 'I' for Inactive)
REMARK    1  A    between atoms: C_5  and  C_14
REMARK    2  A    between atoms: C_11  and  S_19
REMARK    3  A    between atoms: S_19  and  N_22
REMARK                            x       y       z     vdW  Elec       q    Type
REMARK                         _______ _______ _______ _____ _____    ______ ____
ROOT
ATOM      1  S   UNL     1      33.847 -15.568 -21.355  0.00  0.00    +0.060 S 
ATOM      2  O   UNL     1      32.469 -15.181 -21.128  0.00  0.00    -0.153 OA
ATOM      3  O   UNL     1      34.950 -14.707 -20.977  0.00  0.00    -0.153 OA
ATOM      4  N   UNL     1      34.089 -17.120 -20.685  0.00  0.00    -0.180 NA
ATOM      5  C   UNL     1      35.249 -17.869 -21.215  0.00  0.00    +0.080 C 
ATOM      6  C   UNL     1      34.929 -18.259 -22.660  0.00  0.00    +0.045 C 
ATOM      7  C   UNL     1      34.548 -17.099 -23.551  0.00  0.00    -0.002 C 
ATOM      8  C   UNL     1      34.035 -15.882 -23.081  0.00  0.00    +0.119 C 
ATOM      9  C   UNL     1      33.654 -14.860 -23.955  0.00  0.00    +0.039 C 
ATOM     10  C   UNL     1      34.652 -17.270 -24.940  0.00  0.00    -0.002 C 
ATOM     11  C   UNL     1      33.778 -15.050 -25.329  0.00  0.00    +0.124 C 
ATOM     12  C   UNL     1      34.276 -16.254 -25.822  0.00  0.00    +0.020 C 
ATOM     13  H   UNL     1      33.251 -17.673 -20.861  0.00  0.00    +0.149 HD
ENDROOT
BRANCH   5  14
ATOM     14  C   UNL     1      35.488 -19.090 -20.345  0.00  0.00    +0.016 C 
ATOM     15  C   UNL     1      34.485 -20.212 -20.595  0.00  0.00    +0.001 C 
ATOM     16  C   UNL     1      36.821 -19.776 -20.624  0.00  0.00    +0.001 C 
ATOM     17  C   UNL     1      35.155 -21.448 -20.001  0.00  0.00    +0.000 C 
ATOM     18  C   UNL     1      36.658 -21.162 -20.007  0.00  0.00    +0.000 C 
ENDBRANCH   5  14
BRANCH  11  19
ATOM     19  S   UNL     1      33.307 -13.782 -26.433  0.00  0.00    +0.063 S 
ATOM     20  O   UNL     1      34.076 -13.932 -27.661  0.00  0.00    -0.153 OA
ATOM     21  O   UNL     1      31.853 -13.738 -26.493  0.00  0.00    -0.153 OA
BRANCH  19  22
ATOM     22  N   UNL     1      33.866 -12.396 -25.597  0.00  0.00    -0.160 NA
ATOM     23  N   UNL     1      34.289  -9.709 -24.666  0.00  0.00    +0.387 N 
ATOM     24  C   UNL     1      34.624 -11.413 -26.421  0.00  0.00    +0.073 C 
ATOM     25  C   UNL     1      32.859 -11.720 -24.730  0.00  0.00    +0.073 C 
ATOM     26  C   UNL     1      35.288 -10.385 -25.505  0.00  0.00    -0.058 C 
ATOM     27  C   UNL     1      33.557 -10.687 -23.848  0.00  0.00    -0.058 C 
ATOM     28  C   UNL     1      34.926  -8.703 -23.817  0.00  0.00    -0.101 C 
ATOM     29  H   UNL     1      33.621  -9.237 -25.277  0.00  0.00    -0.080 HD
ENDBRANCH  19  22
ENDBRANCH  11  19
TORSDOF 3
ENDMDL
MODEL 9
REMARK VINA RESULT:      -8.8      2.161      3.063
REMARK  Name = 44129630
REMARK  3 active torsions:
REMARK  status: ('A' for Active; 'I' for Inactive)
REMARK    1  A    between atoms: C_5  and  C_14
REMARK    2  A    between atoms: C_11  and  S_19
REMARK    3  A    between atoms: S_19  and  N_22
REMARK                            x       y       z     vdW  Elec       q    Type
REMARK                         _______ _______ _______ _____ _____    ______ ____
ROOT
ATOM      1  S   UNL     1      33.950 -22.593 -18.831  0.00  0.00    +0.060 S 
ATOM      2  O   UNL     1      33.751 -23.553 -19.899  0.00  0.00    -0.153 OA
ATOM      3  O   UNL     1      32.840 -21.869 -18.245  0.00  0.00    -0.153 OA
ATOM      4  N   UNL     1      34.851 -23.345 -17.590  0.00  0.00    -0.180 NA
ATOM      5  C   UNL     1      35.548 -22.427 -16.664  0.00  0.00    +0.080 C 
ATOM      6  C   UNL     1      36.685 -21.760 -17.440  0.00  0.00    +0.045 C 
ATOM      7  C   UNL     1      36.252 -21.064 -18.709  0.00  0.00    -0.002 C 
ATOM      8  C   UNL     1      35.082 -21.373 -19.417  0.00  0.00    +0.119 C 
ATOM      9  C   UNL     1      34.755 -20.728 -20.612  0.00  0.00    +0.039 C 
ATOM     10  C   UNL     1      37.104 -20.089 -19.253  0.00  0.00    -0.002 C 
ATOM     11  C   UNL     1      35.610 -19.755 -21.125  0.00  0.00    +0.124 C 
ATOM     12  C   UNL     1      36.784 -19.436 -20.446  0.00  0.00    +0.020 C 
ATOM     13  H   UNL     1      35.551 -23.942 -18.028  0.00  0.00    +0.149 HD
ENDROOT
BRANCH   5  14
ATOM     14  C   UNL     1      36.068 -23.222 -15.480  0.00  0.00    +0.016 C 
ATOM     15  C   UNL     1      35.468 -24.623 -15.387  0.00  0.00    +0.001 C 
ATOM     16  C   UNL     1      37.563 -23.513 -15.560  0.00  0.00    +0.001 C 
ATOM     17  C   UNL     1      36.425 -25.375 -14.466  0.00  0.00    +0.000 C 
ATOM     18  C   UNL     1      37.770 -24.653 -14.568  0.00  0.00    +0.000 C 
ENDBRANCH   5  14
BRANCH  11  19
ATOM     19  S   UNL     1      35.214 -18.941 -22.616  0.00  0.00    +0.063 S 
ATOM     20  O   UNL     1      36.448 -18.701 -23.352  0.00  0.00    -0.153 OA
ATOM     21  O   UNL     1      34.120 -19.656 -23.257  0.00  0.00    -0.153 OA
BRANCH  19  22
ATOM     22  N   UNL     1      34.623 -17.446 -22.026  0.00  0.00    -0.160 NA
ATOM     23  N   UNL     1      33.075 -15.065 -21.576  0.00  0.00    +0.387 N 
ATOM     24  C   UNL     1      34.668 -16.312 -22.991  0.00  0.00    +0.073 C 
ATOM     25  C   UNL     1      33.312 -17.509 -21.319  0.00  0.00    +0.073 C 
ATOM     26  C   UNL     1      34.376 -15.004 -22.256  0.00  0.00    -0.058 C 
ATOM     27  C   UNL     1      33.047 -16.178 -20.617  0.00  0.00    -0.058 C 
ATOM     28  C   UNL     1      32.786 -13.799 -20.904  0.00  0.00    -0.101 C 
ATOM     29  H   UNL     1      32.352 -15.227 -22.278  0.00  0.00    -0.080 HD
ENDBRANCH  19  22
ENDBRANCH  11  19
TORSDOF 3
ENDMDL
