MODEL 1
REMARK VINA RESULT:      -9.9      0.000      0.000
REMARK  Name = 60648
REMARK  7 active torsions:
REMARK  status: ('A' for Active; 'I' for Inactive)
REMARK    1  A    between atoms: C_1  and  C_15
REMARK    2  A    between atoms: C_2  and  C_4
REMARK    3  A    between atoms: C_2  and  C_10
REMARK    4  A    between atoms: C_15  and  C_16
REMARK    5  A    between atoms: C_16  and  N_17
REMARK    6  A    between atoms: C_18  and  C_25
REMARK    7  A    between atoms: C_25  and  O_26
REMARK                            x       y       z     vdW  Elec       q    Type
REMARK                         _______ _______ _______ _____ _____    ______ ____
ROOT
ATOM      1  C   UNL     1      32.855 -10.648 -23.540  0.00  0.00    -0.027 C 
ATOM      2  C   UNL     1      32.383  -9.584 -22.851  0.00  0.00    +0.007 C 
ENDROOT
BRANCH   2   4
ATOM      3  S   UNL     1      30.840  -7.612 -23.850  0.00  0.00    -0.087 S 
ATOM      4  C   UNL     1      32.354  -8.284 -23.463  0.00  0.00    +0.026 C 
ATOM      5  C   UNL     1      33.406  -7.482 -23.791  0.00  0.00    -0.015 C 
ATOM      6  C   UNL     1      32.962  -6.265 -24.384  0.00  0.00    +0.003 C 
ATOM      7  C   UNL     1      34.838  -7.804 -23.573  0.00  0.00    +0.032 C 
ATOM      8  C   UNL     1      31.589  -6.205 -24.476  0.00  0.00    +0.035 C 
ENDBRANCH   2   4
BRANCH   2  10
ATOM      9  S   UNL     1      30.981 -11.193 -21.207  0.00  0.00    -0.087 S 
ATOM     10  C   UNL     1      31.921  -9.811 -21.504  0.00  0.00    +0.026 C 
ATOM     11  C   UNL     1      32.140  -9.047 -20.401  0.00  0.00    -0.015 C 
ATOM     12  C   UNL     1      31.514  -9.612 -19.253  0.00  0.00    +0.003 C 
ATOM     13  C   UNL     1      32.923  -7.787 -20.361  0.00  0.00    +0.032 C 
ATOM     14  C   UNL     1      30.848 -10.781 -19.549  0.00  0.00    +0.035 C 
ENDBRANCH   2  10
BRANCH   1  15
ATOM     15  C   UNL     1      32.969 -12.080 -23.082  0.00  0.00    +0.003 C 
BRANCH  15  16
ATOM     16  C   UNL     1      33.813 -12.901 -24.056  0.00  0.00    -0.073 C 
BRANCH  16  17
ATOM     17  N   UNL     1      34.416 -14.041 -23.366  0.00  0.00    +0.388 N 
ATOM     18  C   UNL     1      34.950 -16.455 -23.486  0.00  0.00    +0.078 C 
ATOM     19  C   UNL     1      34.275 -15.262 -24.172  0.00  0.00    -0.066 C 
ATOM     20  C   UNL     1      34.402 -16.665 -22.075  0.00  0.00    +0.007 C 
ATOM     21  C   UNL     1      34.476 -15.367 -21.279  0.00  0.00    -0.022 C 
ATOM     22  C   UNL     1      33.819 -14.212 -22.035  0.00  0.00    -0.077 C 
ATOM     23  H   UNL     1      35.411 -13.859 -23.243  0.00  0.00    -0.080 HD
BRANCH  18  25
ATOM     24  O   UNL     1      34.630 -18.821 -23.857  0.00  0.00    -0.250 OA
ATOM     25  C   UNL     1      34.731 -17.689 -24.306  0.00  0.00    +0.311 C 
BRANCH  25  26
ATOM     26  O   UNL     1      34.660 -17.382 -25.624  0.00  0.00    -0.480 OA
ATOM     27  H   UNL     1      35.209 -16.712 -25.980  0.00  0.00    +0.295 HD
ENDBRANCH  25  26
ENDBRANCH  18  25
ENDBRANCH  16  17
ENDBRANCH  15  16
ENDBRANCH   1  15
TORSDOF 7
ENDMDL
MODEL 2
REMARK VINA RESULT:      -9.8      1.425      2.021
REMARK  Name = 60648
REMARK  7 active torsions:
REMARK  status: ('A' for Active; 'I' for Inactive)
REMARK    1  A    between atoms: C_1  and  C_15
REMARK    2  A    between atoms: C_2  and  C_4
REMARK    3  A    between atoms: C_2  and  C_10
REMARK    4  A    between atoms: C_15  and  C_16
REMARK    5  A    between atoms: C_16  and  N_17
REMARK    6  A    between atoms: C_18  and  C_25
REMARK    7  A    between atoms: C_25  and  O_26
REMARK                            x       y       z     vdW  Elec       q    Type
REMARK                         _______ _______ _______ _____ _____    ______ ____
ROOT
ATOM      1  C   UNL     1      33.273 -10.421 -23.738  0.00  0.00    -0.027 C 
ATOM      2  C   UNL     1      32.583  -9.486 -23.044  0.00  0.00    +0.007 C 
ENDROOT
BRANCH   2   4
ATOM      3  S   UNL     1      30.835  -7.631 -23.920  0.00  0.00    -0.087 S 
ATOM      4  C   UNL     1      32.415  -8.165 -23.586  0.00  0.00    +0.026 C 
ATOM      5  C   UNL     1      33.376  -7.246 -23.880  0.00  0.00    -0.015 C 
ATOM      6  C   UNL     1      32.802  -6.050 -24.402  0.00  0.00    +0.003 C 
ATOM      7  C   UNL     1      34.835  -7.432 -23.695  0.00  0.00    +0.032 C 
ATOM      8  C   UNL     1      31.428  -6.125 -24.476  0.00  0.00    +0.035 C 
ENDBRANCH   2   4
BRANCH   2  10
ATOM      9  S   UNL     1      31.146 -11.311 -21.679  0.00  0.00    -0.087 S 
ATOM     10  C   UNL     1      32.040  -9.870 -21.765  0.00  0.00    +0.026 C 
ATOM     11  C   UNL     1      32.145  -9.216 -20.578  0.00  0.00    -0.015 C 
ATOM     12  C   UNL     1      31.467  -9.920 -19.542  0.00  0.00    +0.003 C 
ATOM     13  C   UNL     1      32.864  -7.937 -20.353  0.00  0.00    +0.032 C 
ATOM     14  C   UNL     1      30.879 -11.078 -20.003  0.00  0.00    +0.035 C 
ENDBRANCH   2  10
BRANCH   1  15
ATOM     15  C   UNL     1      33.559 -11.849 -23.349  0.00  0.00    +0.003 C 
BRANCH  15  16
ATOM     16  C   UNL     1      33.434 -12.780 -24.554  0.00  0.00    -0.073 C 
BRANCH  16  17
ATOM     17  N   UNL     1      33.450 -14.176 -24.118  0.00  0.00    +0.388 N 
ATOM     18  C   UNL     1      34.043 -15.745 -22.297  0.00  0.00    +0.078 C 
ATOM     19  C   UNL     1      34.069 -14.294 -22.791  0.00  0.00    -0.066 C 
ATOM     20  C   UNL     1      34.717 -16.681 -23.299  0.00  0.00    +0.007 C 
ATOM     21  C   UNL     1      34.122 -16.487 -24.690  0.00  0.00    -0.022 C 
ATOM     22  C   UNL     1      34.145 -15.015 -25.104  0.00  0.00    -0.077 C 
ATOM     23  H   UNL     1      32.488 -14.507 -24.047  0.00  0.00    -0.080 HD
BRANCH  18  25
ATOM     24  O   UNL     1      34.916 -14.892 -20.212  0.00  0.00    -0.250 OA
ATOM     25  C   UNL     1      34.737 -15.832 -20.973  0.00  0.00    +0.311 C 
BRANCH  25  26
ATOM     26  O   UNL     1      35.146 -17.100 -20.728  0.00  0.00    -0.480 OA
ATOM     27  H   UNL     1      35.917 -17.433 -21.145  0.00  0.00    +0.295 HD
ENDBRANCH  25  26
ENDBRANCH  18  25
ENDBRANCH  16  17
ENDBRANCH  15  16
ENDBRANCH   1  15
TORSDOF 7
ENDMDL
MODEL 3
REMARK VINA RESULT:      -9.5     12.651     15.316
REMARK  Name = 60648
REMARK  7 active torsions:
REMARK  status: ('A' for Active; 'I' for Inactive)
REMARK    1  A    between atoms: C_1  and  C_15
REMARK    2  A    between atoms: C_2  and  C_4
REMARK    3  A    between atoms: C_2  and  C_10
REMARK    4  A    between atoms: C_15  and  C_16
REMARK    5  A    between atoms: C_16  and  N_17
REMARK    6  A    between atoms: C_18  and  C_25
REMARK    7  A    between atoms: C_25  and  O_26
REMARK                            x       y       z     vdW  Elec       q    Type
REMARK                         _______ _______ _______ _____ _____    ______ ____
ROOT
ATOM      1  C   UNL     1      33.799 -23.262 -14.778  0.00  0.00    -0.027 C 
ATOM      2  C   UNL     1      35.099 -23.338 -15.144  0.00  0.00    +0.007 C 
ENDROOT
BRANCH   2   4
ATOM      3  S   UNL     1      37.084 -22.023 -16.409  0.00  0.00    -0.087 S 
ATOM      4  C   UNL     1      35.538 -22.732 -16.372  0.00  0.00    +0.026 C 
ATOM      5  C   UNL     1      34.868 -22.640 -17.554  0.00  0.00    -0.015 C 
ATOM      6  C   UNL     1      35.646 -21.962 -18.537  0.00  0.00    +0.003 C 
ATOM      7  C   UNL     1      33.505 -23.165 -17.818  0.00  0.00    +0.032 C 
ATOM      8  C   UNL     1      36.874 -21.574 -18.047  0.00  0.00    +0.035 C 
ENDBRANCH   2   4
BRANCH   2  10
ATOM      9  S   UNL     1      36.568 -23.226 -12.888  0.00  0.00    -0.087 S 
ATOM     10  C   UNL     1      36.002 -24.041 -14.267  0.00  0.00    +0.026 C 
ATOM     11  C   UNL     1      36.480 -25.307 -14.393  0.00  0.00    -0.015 C 
ATOM     12  C   UNL     1      37.351 -25.637 -13.315  0.00  0.00    +0.003 C 
ATOM     13  C   UNL     1      36.158 -26.249 -15.494  0.00  0.00    +0.032 C 
ATOM     14  C   UNL     1      37.488 -24.595 -12.423  0.00  0.00    +0.035 C 
ENDBRANCH   2  10
BRANCH   1  15
ATOM     15  C   UNL     1      33.144 -23.826 -13.542  0.00  0.00    +0.003 C 
BRANCH  15  16
ATOM     16  C   UNL     1      31.703 -23.334 -13.414  0.00  0.00    -0.073 C 
BRANCH  16  17
ATOM     17  N   UNL     1      30.935 -23.703 -14.602  0.00  0.00    +0.388 N 
ATOM     18  C   UNL     1      28.952 -23.195 -15.995  0.00  0.00    +0.078 C 
ATOM     19  C   UNL     1      29.739 -22.857 -14.724  0.00  0.00    -0.066 C 
ATOM     20  C   UNL     1      28.581 -24.677 -16.037  0.00  0.00    +0.007 C 
ATOM     21  C   UNL     1      29.818 -25.541 -15.824  0.00  0.00    -0.022 C 
ATOM     22  C   UNL     1      30.576 -25.127 -14.562  0.00  0.00    -0.077 C 
ATOM     23  H   UNL     1      31.515 -23.548 -15.427  0.00  0.00    -0.080 HD
BRANCH  18  25
ATOM     24  O   UNL     1      26.834 -22.348 -15.199  0.00  0.00    -0.250 OA
ATOM     25  C   UNL     1      27.712 -22.358 -16.049  0.00  0.00    +0.311 C 
BRANCH  25  26
ATOM     26  O   UNL     1      27.691 -21.606 -17.176  0.00  0.00    -0.480 OA
ATOM     27  H   UNL     1      28.326 -21.752 -17.849  0.00  0.00    +0.295 HD
ENDBRANCH  25  26
ENDBRANCH  18  25
ENDBRANCH  16  17
ENDBRANCH  15  16
ENDBRANCH   1  15
TORSDOF 7
ENDMDL
MODEL 4
REMARK VINA RESULT:      -9.4      1.346      3.925
REMARK  Name = 60648
REMARK  7 active torsions:
REMARK  status: ('A' for Active; 'I' for Inactive)
REMARK    1  A    between atoms: C_1  and  C_15
REMARK    2  A    between atoms: C_2  and  C_4
REMARK    3  A    between atoms: C_2  and  C_10
REMARK    4  A    between atoms: C_15  and  C_16
REMARK    5  A    between atoms: C_16  and  N_17
REMARK    6  A    between atoms: C_18  and  C_25
REMARK    7  A    between atoms: C_25  and  O_26
REMARK                            x       y       z     vdW  Elec       q    Type
REMARK                         _______ _______ _______ _____ _____    ______ ____
ROOT
ATOM      1  C   UNL     1      32.777 -10.514 -23.487  0.00  0.00    -0.027 C 
ATOM      2  C   UNL     1      32.358  -9.479 -22.724  0.00  0.00    +0.007 C 
ENDROOT
BRANCH   2   4
ATOM      3  S   UNL     1      31.197 -11.162 -20.968  0.00  0.00    -0.087 S 
ATOM      4  C   UNL     1      31.976  -9.701 -21.356  0.00  0.00    +0.026 C 
ATOM      5  C   UNL     1      32.154  -8.877 -20.286  0.00  0.00    -0.015 C 
ATOM      6  C   UNL     1      31.634  -9.460 -19.094  0.00  0.00    +0.003 C 
ATOM      7  C   UNL     1      32.800  -7.542 -20.322  0.00  0.00    +0.032 C 
ATOM      8  C   UNL     1      31.086 -10.703 -19.323  0.00  0.00    +0.035 C 
ENDBRANCH   2   4
BRANCH   2  10
ATOM      9  S   UNL     1      30.792  -7.542 -23.752  0.00  0.00    -0.087 S 
ATOM     10  C   UNL     1      32.312  -8.173 -23.335  0.00  0.00    +0.026 C 
ATOM     11  C   UNL     1      33.351  -7.350 -23.634  0.00  0.00    -0.015 C 
ATOM     12  C   UNL     1      32.892  -6.141 -24.233  0.00  0.00    +0.003 C 
ATOM     13  C   UNL     1      34.785  -7.638 -23.385  0.00  0.00    +0.032 C 
ATOM     14  C   UNL     1      31.519  -6.114 -24.357  0.00  0.00    +0.035 C 
ENDBRANCH   2  10
BRANCH   1  15
ATOM     15  C   UNL     1      33.217 -10.492 -24.930  0.00  0.00    +0.003 C 
BRANCH  15  16
ATOM     16  C   UNL     1      34.231 -11.599 -25.210  0.00  0.00    -0.073 C 
BRANCH  16  17
ATOM     17  N   UNL     1      33.590 -12.910 -25.112  0.00  0.00    +0.388 N 
ATOM     18  C   UNL     1      33.607 -15.117 -23.991  0.00  0.00    +0.078 C 
ATOM     19  C   UNL     1      34.299 -13.758 -24.145  0.00  0.00    -0.066 C 
ATOM     20  C   UNL     1      33.469 -15.823 -25.340  0.00  0.00    +0.007 C 
ATOM     21  C   UNL     1      32.808 -14.899 -26.357  0.00  0.00    -0.022 C 
ATOM     22  C   UNL     1      33.525 -13.550 -26.432  0.00  0.00    -0.077 C 
ATOM     23  H   UNL     1      32.635 -12.782 -24.777  0.00  0.00    -0.080 HD
BRANCH  18  25
ATOM     24  O   UNL     1      33.970 -16.430 -21.996  0.00  0.00    -0.250 OA
ATOM     25  C   UNL     1      34.394 -15.972 -23.047  0.00  0.00    +0.311 C 
BRANCH  25  26
ATOM     26  O   UNL     1      35.649 -16.173 -23.515  0.00  0.00    -0.480 OA
ATOM     27  H   UNL     1      35.783 -16.421 -24.409  0.00  0.00    +0.295 HD
ENDBRANCH  25  26
ENDBRANCH  18  25
ENDBRANCH  16  17
ENDBRANCH  15  16
ENDBRANCH   1  15
TORSDOF 7
ENDMDL
MODEL 5
REMARK VINA RESULT:      -9.3      1.874      3.198
REMARK  Name = 60648
REMARK  7 active torsions:
REMARK  status: ('A' for Active; 'I' for Inactive)
REMARK    1  A    between atoms: C_1  and  C_15
REMARK    2  A    between atoms: C_2  and  C_4
REMARK    3  A    between atoms: C_2  and  C_10
REMARK    4  A    between atoms: C_15  and  C_16
REMARK    5  A    between atoms: C_16  and  N_17
REMARK    6  A    between atoms: C_18  and  C_25
REMARK    7  A    between atoms: C_25  and  O_26
REMARK                            x       y       z     vdW  Elec       q    Type
REMARK                         _______ _______ _______ _____ _____    ______ ____
ROOT
ATOM      1  C   UNL     1      31.847 -10.804 -22.222  0.00  0.00    -0.027 C 
ATOM      2  C   UNL     1      32.484  -9.709 -22.697  0.00  0.00    +0.007 C 
ENDROOT
BRANCH   2   4
ATOM      3  S   UNL     1      32.594  -7.997 -20.618  0.00  0.00    -0.087 S 
ATOM      4  C   UNL     1      32.137  -8.404 -22.205  0.00  0.00    +0.026 C 
ATOM      5  C   UNL     1      31.468  -7.409 -22.852  0.00  0.00    -0.015 C 
ATOM      6  C   UNL     1      31.320  -6.262 -22.021  0.00  0.00    +0.003 C 
ATOM      7  C   UNL     1      30.949  -7.478 -24.240  0.00  0.00    +0.032 C 
ATOM      8  C   UNL     1      31.888  -6.446 -20.778  0.00  0.00    +0.035 C 
ENDBRANCH   2   4
BRANCH   2  10
ATOM      9  S   UNL     1      33.446 -11.336 -24.618  0.00  0.00    -0.087 S 
ATOM     10  C   UNL     1      33.503  -9.909 -23.698  0.00  0.00    +0.026 C 
ATOM     11  C   UNL     1      34.538  -9.089 -24.018  0.00  0.00    -0.015 C 
ATOM     12  C   UNL     1      35.327  -9.643 -25.066  0.00  0.00    +0.003 C 
ATOM     13  C   UNL     1      34.836  -7.781 -23.383  0.00  0.00    +0.032 C 
ATOM     14  C   UNL     1      34.845 -10.864 -25.486  0.00  0.00    +0.035 C 
ENDBRANCH   2  10
BRANCH   1  15
ATOM     15  C   UNL     1      32.062 -12.247 -22.604  0.00  0.00    +0.003 C 
BRANCH  15  16
ATOM     16  C   UNL     1      32.264 -13.118 -21.365  0.00  0.00    -0.073 C 
BRANCH  16  17
ATOM     17  N   UNL     1      33.399 -14.019 -21.559  0.00  0.00    +0.388 N 
ATOM     18  C   UNL     1      34.559 -15.539 -23.132  0.00  0.00    +0.078 C 
ATOM     19  C   UNL     1      33.346 -14.632 -22.894  0.00  0.00    -0.066 C 
ATOM     20  C   UNL     1      34.673 -16.606 -22.045  0.00  0.00    +0.007 C 
ATOM     21  C   UNL     1      34.641 -15.962 -20.663  0.00  0.00    -0.022 C 
ATOM     22  C   UNL     1      33.428 -15.043 -20.506  0.00  0.00    -0.077 C 
ATOM     23  H   UNL     1      34.261 -13.478 -21.496  0.00  0.00    -0.080 HD
BRANCH  18  25
ATOM     24  O   UNL     1      33.640 -15.864 -25.343  0.00  0.00    -0.250 OA
ATOM     25  C   UNL     1      34.436 -16.191 -24.475  0.00  0.00    +0.311 C 
BRANCH  25  26
ATOM     26  O   UNL     1      35.331 -17.200 -24.601  0.00  0.00    -0.480 OA
ATOM     27  H   UNL     1      36.185 -17.029 -24.948  0.00  0.00    +0.295 HD
ENDBRANCH  25  26
ENDBRANCH  18  25
ENDBRANCH  16  17
ENDBRANCH  15  16
ENDBRANCH   1  15
TORSDOF 7
ENDMDL
MODEL 6
REMARK VINA RESULT:      -9.0     12.806     15.659
REMARK  Name = 60648
REMARK  7 active torsions:
REMARK  status: ('A' for Active; 'I' for Inactive)
REMARK    1  A    between atoms: C_1  and  C_15
REMARK    2  A    between atoms: C_2  and  C_4
REMARK    3  A    between atoms: C_2  and  C_10
REMARK    4  A    between atoms: C_15  and  C_16
REMARK    5  A    between atoms: C_16  and  N_17
REMARK    6  A    between atoms: C_18  and  C_25
REMARK    7  A    between atoms: C_25  and  O_26
REMARK                            x       y       z     vdW  Elec       q    Type
REMARK                         _______ _______ _______ _____ _____    ______ ____
ROOT
ATOM      1  C   UNL     1      34.221 -23.493 -14.055  0.00  0.00    -0.027 C 
ATOM      2  C   UNL     1      35.222 -23.808 -14.909  0.00  0.00    +0.007 C 
ENDROOT
BRANCH   2   4
ATOM      3  S   UNL     1      36.309 -26.238 -15.330  0.00  0.00    -0.087 S 
ATOM      4  C   UNL     1      36.237 -24.747 -14.515  0.00  0.00    +0.026 C 
ATOM      5  C   UNL     1      37.183 -24.609 -13.545  0.00  0.00    -0.015 C 
ATOM      6  C   UNL     1      38.007 -25.768 -13.460  0.00  0.00    +0.003 C 
ATOM      7  C   UNL     1      37.361 -23.421 -12.674  0.00  0.00    +0.032 C 
ATOM      8  C   UNL     1      37.641 -26.731 -14.375  0.00  0.00    +0.035 C 
ENDBRANCH   2   4
BRANCH   2  10
ATOM      9  S   UNL     1      33.870 -23.392 -17.202  0.00  0.00    -0.087 S 
ATOM     10  C   UNL     1      35.224 -23.168 -16.201  0.00  0.00    +0.026 C 
ATOM     11  C   UNL     1      36.191 -22.387 -16.750  0.00  0.00    -0.015 C 
ATOM     12  C   UNL     1      35.816 -21.943 -18.050  0.00  0.00    +0.003 C 
ATOM     13  C   UNL     1      37.479 -22.022 -16.108  0.00  0.00    +0.032 C 
ATOM     14  C   UNL     1      34.576 -22.416 -18.421  0.00  0.00    +0.035 C 
ENDBRANCH   2  10
BRANCH   1  15
ATOM     15  C   UNL     1      33.072 -22.541 -14.275  0.00  0.00    +0.003 C 
BRANCH  15  16
ATOM     16  C   UNL     1      31.782 -23.090 -13.666  0.00  0.00    -0.073 C 
BRANCH  16  17
ATOM     17  N   UNL     1      31.011 -23.809 -14.679  0.00  0.00    +0.388 N 
ATOM     18  C   UNL     1      29.214 -23.654 -16.375  0.00  0.00    +0.078 C 
ATOM     19  C   UNL     1      29.995 -22.929 -15.273  0.00  0.00    -0.066 C 
ATOM     20  C   UNL     1      28.582 -24.942 -15.848  0.00  0.00    +0.007 C 
ATOM     21  C   UNL     1      29.632 -25.806 -15.159  0.00  0.00    -0.022 C 
ATOM     22  C   UNL     1      30.398 -25.012 -14.100  0.00  0.00    -0.077 C 
ATOM     23  H   UNL     1      31.644 -24.106 -15.422  0.00  0.00    -0.080 HD
BRANCH  18  25
ATOM     24  O   UNL     1      27.853 -21.659 -16.437  0.00  0.00    -0.250 OA
ATOM     25  C   UNL     1      28.151 -22.746 -16.910  0.00  0.00    +0.311 C 
BRANCH  25  26
ATOM     26  O   UNL     1      27.556 -23.293 -17.997  0.00  0.00    -0.480 OA
ATOM     27  H   UNL     1      28.029 -23.369 -18.803  0.00  0.00    +0.295 HD
ENDBRANCH  25  26
ENDBRANCH  18  25
ENDBRANCH  16  17
ENDBRANCH  15  16
ENDBRANCH   1  15
TORSDOF 7
ENDMDL
MODEL 7
REMARK VINA RESULT:      -8.8      5.053      8.469
REMARK  Name = 60648
REMARK  7 active torsions:
REMARK  status: ('A' for Active; 'I' for Inactive)
REMARK    1  A    between atoms: C_1  and  C_15
REMARK    2  A    between atoms: C_2  and  C_4
REMARK    3  A    between atoms: C_2  and  C_10
REMARK    4  A    between atoms: C_15  and  C_16
REMARK    5  A    between atoms: C_16  and  N_17
REMARK    6  A    between atoms: C_18  and  C_25
REMARK    7  A    between atoms: C_25  and  O_26
REMARK                            x       y       z     vdW  Elec       q    Type
REMARK                         _______ _______ _______ _____ _____    ______ ____
ROOT
ATOM      1  C   UNL     1      31.244  -8.219 -23.032  0.00  0.00    -0.027 C 
ATOM      2  C   UNL     1      32.111  -9.171 -22.615  0.00  0.00    +0.007 C 
ENDROOT
BRANCH   2   4
ATOM      3  S   UNL     1      31.413 -11.426 -21.315  0.00  0.00    -0.087 S 
ATOM      4  C   UNL     1      31.925  -9.805 -21.338  0.00  0.00    +0.026 C 
ATOM      5  C   UNL     1      32.107  -9.272 -20.098  0.00  0.00    -0.015 C 
ATOM      6  C   UNL     1      31.818 -10.226 -19.079  0.00  0.00    +0.003 C 
ATOM      7  C   UNL     1      32.548  -7.885 -19.809  0.00  0.00    +0.032 C 
ATOM      8  C   UNL     1      31.429 -11.440 -19.603  0.00  0.00    +0.035 C 
ENDBRANCH   2   4
BRANCH   2  10
ATOM      9  S   UNL     1      33.115 -10.973 -24.348  0.00  0.00    -0.087 S 
ATOM     10  C   UNL     1      33.205  -9.510 -23.491  0.00  0.00    +0.026 C 
ATOM     11  C   UNL     1      34.336  -8.798 -23.735  0.00  0.00    -0.015 C 
ATOM     12  C   UNL     1      35.177  -9.472 -24.667  0.00  0.00    +0.003 C 
ATOM     13  C   UNL     1      34.684  -7.488 -23.130  0.00  0.00    +0.032 C 
ATOM     14  C   UNL     1      34.633 -10.669 -25.082  0.00  0.00    +0.035 C 
ENDBRANCH   2  10
BRANCH   1  15
ATOM     15  C   UNL     1      31.263  -7.442 -24.324  0.00  0.00    +0.003 C 
BRANCH  15  16
ATOM     16  C   UNL     1      30.949  -5.967 -24.080  0.00  0.00    -0.073 C 
BRANCH  16  17
ATOM     17  N   UNL     1      31.359  -5.165 -25.232  0.00  0.00    +0.388 N 
ATOM     18  C   UNL     1      33.203  -4.612 -26.789  0.00  0.00    +0.078 C 
ATOM     19  C   UNL     1      32.773  -5.405 -25.549  0.00  0.00    -0.066 C 
ATOM     20  C   UNL     1      32.928  -3.119 -26.612  0.00  0.00    +0.007 C 
ATOM     21  C   UNL     1      31.478  -2.891 -26.200  0.00  0.00    -0.022 C 
ATOM     22  C   UNL     1      31.105  -3.740 -24.983  0.00  0.00    -0.077 C 
ATOM     23  H   UNL     1      30.803  -5.446 -26.040  0.00  0.00    -0.080 HD
BRANCH  18  25
ATOM     24  O   UNL     1      35.338  -4.213 -27.846  0.00  0.00    -0.250 OA
ATOM     25  C   UNL     1      34.662  -4.835 -27.040  0.00  0.00    +0.311 C 
BRANCH  25  26
ATOM     26  O   UNL     1      35.138  -5.827 -26.250  0.00  0.00    -0.480 OA
ATOM     27  H   UNL     1      36.047  -6.056 -26.280  0.00  0.00    +0.295 HD
ENDBRANCH  25  26
ENDBRANCH  18  25
ENDBRANCH  16  17
ENDBRANCH  15  16
ENDBRANCH   1  15
TORSDOF 7
ENDMDL
MODEL 8
REMARK VINA RESULT:      -8.7      3.749      9.119
REMARK  Name = 60648
REMARK  7 active torsions:
REMARK  status: ('A' for Active; 'I' for Inactive)
REMARK    1  A    between atoms: C_1  and  C_15
REMARK    2  A    between atoms: C_2  and  C_4
REMARK    3  A    between atoms: C_2  and  C_10
REMARK    4  A    between atoms: C_15  and  C_16
REMARK    5  A    between atoms: C_16  and  N_17
REMARK    6  A    between atoms: C_18  and  C_25
REMARK    7  A    between atoms: C_25  and  O_26
REMARK                            x       y       z     vdW  Elec       q    Type
REMARK                         _______ _______ _______ _____ _____    ______ ____
ROOT
ATOM      1  C   UNL     1      34.575 -16.520 -20.842  0.00  0.00    -0.027 C 
ATOM      2  C   UNL     1      34.852 -17.586 -21.628  0.00  0.00    +0.007 C 
ENDROOT
BRANCH   2   4
ATOM      3  S   UNL     1      36.829 -19.243 -20.845  0.00  0.00    -0.087 S 
ATOM      4  C   UNL     1      35.184 -18.852 -21.034  0.00  0.00    +0.026 C 
ATOM      5  C   UNL     1      34.338 -19.821 -20.584  0.00  0.00    -0.015 C 
ATOM      6  C   UNL     1      35.059 -20.933 -20.060  0.00  0.00    +0.003 C 
ATOM      7  C   UNL     1      32.857 -19.758 -20.619  0.00  0.00    +0.032 C 
ATOM      8  C   UNL     1      36.423 -20.749 -20.140  0.00  0.00    +0.035 C 
ENDBRANCH   2   4
BRANCH   2  10
ATOM      9  S   UNL     1      34.849 -15.804 -23.648  0.00  0.00    -0.087 S 
ATOM     10  C   UNL     1      34.802 -17.394 -23.056  0.00  0.00    +0.026 C 
ATOM     11  C   UNL     1      34.718 -18.341 -24.027  0.00  0.00    -0.015 C 
ATOM     12  C   UNL     1      34.691 -17.747 -25.322  0.00  0.00    +0.003 C 
ATOM     13  C   UNL     1      34.660 -19.808 -23.806  0.00  0.00    +0.032 C 
ATOM     14  C   UNL     1      34.756 -16.372 -25.262  0.00  0.00    +0.035 C 
ENDBRANCH   2  10
BRANCH   1  15
ATOM     15  C   UNL     1      34.209 -15.120 -21.264  0.00  0.00    +0.003 C 
BRANCH  15  16
ATOM     16  C   UNL     1      32.815 -14.745 -20.766  0.00  0.00    -0.073 C 
BRANCH  16  17
ATOM     17  N   UNL     1      32.281 -13.629 -21.547  0.00  0.00    +0.388 N 
ATOM     18  C   UNL     1      32.686 -12.068 -23.425  0.00  0.00    +0.078 C 
ATOM     19  C   UNL     1      33.253 -13.202 -22.563  0.00  0.00    -0.066 C 
ATOM     20  C   UNL     1      32.241 -10.888 -22.563  0.00  0.00    +0.007 C 
ATOM     21  C   UNL     1      31.300 -11.360 -21.461  0.00  0.00    -0.022 C 
ATOM     22  C   UNL     1      31.910 -12.515 -20.665  0.00  0.00    -0.077 C 
ATOM     23  H   UNL     1      31.439 -13.942 -22.030  0.00  0.00    -0.080 HD
BRANCH  18  25
ATOM     24  O   UNL     1      33.829 -12.022 -25.554  0.00  0.00    -0.250 OA
ATOM     25  C   UNL     1      33.728 -11.620 -24.404  0.00  0.00    +0.311 C 
BRANCH  25  26
ATOM     26  O   UNL     1      34.551 -10.703 -23.841  0.00  0.00    -0.480 OA
ATOM     27  H   UNL     1      35.235 -10.979 -23.262  0.00  0.00    +0.295 HD
ENDBRANCH  25  26
ENDBRANCH  18  25
ENDBRANCH  16  17
ENDBRANCH  15  16
ENDBRANCH   1  15
TORSDOF 7
ENDMDL
MODEL 9
REMARK VINA RESULT:      -8.6      9.302     14.133
REMARK  Name = 60648
REMARK  7 active torsions:
REMARK  status: ('A' for Active; 'I' for Inactive)
REMARK    1  A    between atoms: C_1  and  C_15
REMARK    2  A    between atoms: C_2  and  C_4
REMARK    3  A    between atoms: C_2  and  C_10
REMARK    4  A    between atoms: C_15  and  C_16
REMARK    5  A    between atoms: C_16  and  N_17
REMARK    6  A    between atoms: C_18  and  C_25
REMARK    7  A    between atoms: C_25  and  O_26
REMARK                            x       y       z     vdW  Elec       q    Type
REMARK                         _______ _______ _______ _____ _____    ______ ____
ROOT
ATOM      1  C   UNL     1      36.449 -22.840 -16.342  0.00  0.00    -0.027 C 
ATOM      2  C   UNL     1      35.740 -23.699 -15.573  0.00  0.00    +0.007 C 
ENDROOT
BRANCH   2   4
ATOM      3  S   UNL     1      36.388 -26.297 -15.270  0.00  0.00    -0.087 S 
ATOM      4  C   UNL     1      36.422 -24.673 -14.765  0.00  0.00    +0.026 C 
ATOM      5  C   UNL     1      37.118 -24.475 -13.611  0.00  0.00    -0.015 C 
ATOM      6  C   UNL     1      37.648 -25.699 -13.112  0.00  0.00    +0.003 C 
ATOM      7  C   UNL     1      37.315 -23.169 -12.935  0.00  0.00    +0.032 C 
ATOM      8  C   UNL     1      37.327 -26.770 -13.918  0.00  0.00    +0.035 C 
ENDBRANCH   2   4
BRANCH   2  10
ATOM      9  S   UNL     1      33.543 -23.491 -17.119  0.00  0.00    -0.087 S 
ATOM     10  C   UNL     1      34.302 -23.593 -15.603  0.00  0.00    +0.026 C 
ATOM     11  C   UNL     1      33.441 -23.562 -14.553  0.00  0.00    -0.015 C 
ATOM     12  C   UNL     1      32.092 -23.451 -14.998  0.00  0.00    +0.003 C 
ATOM     13  C   UNL     1      33.818 -23.634 -13.119  0.00  0.00    +0.032 C 
ATOM     14  C   UNL     1      32.004 -23.402 -16.373  0.00  0.00    +0.035 C 
ENDBRANCH   2  10
BRANCH   1  15
ATOM     15  C   UNL     1      35.928 -21.756 -17.251  0.00  0.00    +0.003 C 
BRANCH  15  16
ATOM     16  C   UNL     1      36.646 -21.781 -18.600  0.00  0.00    -0.073 C 
BRANCH  16  17
ATOM     17  N   UNL     1      35.744 -21.334 -19.661  0.00  0.00    +0.388 N 
ATOM     18  C   UNL     1      35.242 -19.551 -21.303  0.00  0.00    +0.078 C 
ATOM     19  C   UNL     1      36.146 -20.009 -20.153  0.00  0.00    -0.066 C 
ATOM     20  C   UNL     1      33.772 -19.557 -20.887  0.00  0.00    +0.007 C 
ATOM     21  C   UNL     1      33.392 -20.912 -20.300  0.00  0.00    -0.022 C 
ATOM     22  C   UNL     1      34.354 -21.325 -19.185  0.00  0.00    -0.077 C 
ATOM     23  H   UNL     1      35.806 -21.990 -20.439  0.00  0.00    -0.080 HD
BRANCH  18  25
ATOM     24  O   UNL     1      35.300 -17.138 -21.181  0.00  0.00    -0.250 OA
ATOM     25  C   UNL     1      35.644 -18.173 -21.732  0.00  0.00    +0.311 C 
BRANCH  25  26
ATOM     26  O   UNL     1      36.445 -18.226 -22.823  0.00  0.00    -0.480 OA
ATOM     27  H   UNL     1      36.378 -17.568 -23.487  0.00  0.00    +0.295 HD
ENDBRANCH  25  26
ENDBRANCH  18  25
ENDBRANCH  16  17
ENDBRANCH  15  16
ENDBRANCH   1  15
TORSDOF 7
ENDMDL
