MODEL 1
REMARK VINA RESULT:      -6.3      0.000      0.000
REMARK  Name = 3893
REMARK  11 active torsions:
REMARK  status: ('A' for Active; 'I' for Inactive)
REMARK    1  A    between atoms: C_1  and  C_2
REMARK    2  A    between atoms: C_1  and  C_9
REMARK    3  A    between atoms: C_2  and  C_3
REMARK    4  A    between atoms: C_3  and  C_4
REMARK    5  A    between atoms: C_4  and  C_5
REMARK    6  A    between atoms: C_5  and  C_6
REMARK    7  A    between atoms: C_6  and  C_7
REMARK    8  A    between atoms: C_9  and  C_10
REMARK    9  A    between atoms: C_10  and  C_11
REMARK   10  A    between atoms: C_11  and  C_13
REMARK   11  A    between atoms: C_13  and  O_14
REMARK                            x       y       z     vdW  Elec       q    Type
REMARK                         _______ _______ _______ _____ _____    ______ ____
ROOT
ATOM      1  C   UNL     1      34.854 -19.604 -22.075  0.00  0.00    +0.000 C 
ENDROOT
BRANCH   1   2
ATOM      2  C   UNL     1      35.462 -18.488 -22.929  0.00  0.00    +0.000 C 
BRANCH   2   3
ATOM      3  C   UNL     1      34.803 -18.345 -24.304  0.00  0.00    +0.000 C 
BRANCH   3   4
ATOM      4  C   UNL     1      34.723 -16.878 -24.731  0.00  0.00    +0.000 C 
BRANCH   4   5
ATOM      5  C   UNL     1      34.946 -15.941 -23.543  0.00  0.00    +0.000 C 
BRANCH   5   6
ATOM      6  C   UNL     1      33.658 -15.291 -23.029  0.00  0.00    +0.000 C 
BRANCH   6   7
ATOM      7  C   UNL     1      33.335 -15.532 -21.551  0.00  0.00    +0.000 C 
ATOM      8  C   UNL     1      34.548 -15.436 -20.641  0.00  0.00    +0.000 C 
ENDBRANCH   6   7
ENDBRANCH   5   6
ENDBRANCH   4   5
ENDBRANCH   3   4
ENDBRANCH   2   3
ENDBRANCH   1   2
BRANCH   1   9
ATOM      9  C   UNL     1      33.808 -19.103 -21.076  0.00  0.00    +0.001 C 
BRANCH   9  10
ATOM     10  C   UNL     1      33.170 -20.270 -20.313  0.00  0.00    +0.012 C 
BRANCH  10  11
ATOM     11  C   UNL     1      34.208 -21.250 -19.772  0.00  0.00    +0.109 C 
BRANCH  11  13
ATOM     12  O   UNL     1      34.035 -23.614 -19.312  0.00  0.00    -0.250 OA
ATOM     13  C   UNL     1      33.581 -22.485 -19.177  0.00  0.00    +0.314 C 
BRANCH  13  14
ATOM     14  O   UNL     1      32.459 -22.211 -18.468  0.00  0.00    -0.480 OA
ATOM     15  H   UNL     1      31.675 -22.700 -18.624  0.00  0.00    +0.295 HD
ENDBRANCH  13  14
ENDBRANCH  11  13
ENDBRANCH  10  11
ENDBRANCH   9  10
ENDBRANCH   1   9
TORSDOF 11
ENDMDL
MODEL 2
REMARK VINA RESULT:      -6.2      1.324      2.202
REMARK  Name = 3893
REMARK  11 active torsions:
REMARK  status: ('A' for Active; 'I' for Inactive)
REMARK    1  A    between atoms: C_1  and  C_2
REMARK    2  A    between atoms: C_1  and  C_9
REMARK    3  A    between atoms: C_2  and  C_3
REMARK    4  A    between atoms: C_3  and  C_4
REMARK    5  A    between atoms: C_4  and  C_5
REMARK    6  A    between atoms: C_5  and  C_6
REMARK    7  A    between atoms: C_6  and  C_7
REMARK    8  A    between atoms: C_9  and  C_10
REMARK    9  A    between atoms: C_10  and  C_11
REMARK   10  A    between atoms: C_11  and  C_13
REMARK   11  A    between atoms: C_13  and  O_14
REMARK                            x       y       z     vdW  Elec       q    Type
REMARK                         _______ _______ _______ _____ _____    ______ ____
ROOT
ATOM      1  C   UNL     1      34.748 -19.061 -23.752  0.00  0.00    +0.000 C 
ENDROOT
BRANCH   1   2
ATOM      2  C   UNL     1      34.409 -18.126 -24.917  0.00  0.00    +0.000 C 
BRANCH   2   3
ATOM      3  C   UNL     1      34.945 -16.704 -24.732  0.00  0.00    +0.000 C 
BRANCH   3   4
ATOM      4  C   UNL     1      33.825 -15.668 -24.855  0.00  0.00    +0.000 C 
BRANCH   4   5
ATOM      5  C   UNL     1      33.408 -15.137 -23.483  0.00  0.00    +0.000 C 
BRANCH   5   6
ATOM      6  C   UNL     1      34.584 -14.946 -22.521  0.00  0.00    +0.000 C 
BRANCH   6   7
ATOM      7  C   UNL     1      34.264 -15.128 -21.034  0.00  0.00    +0.000 C 
ATOM      8  C   UNL     1      32.794 -15.399 -20.758  0.00  0.00    +0.000 C 
ENDBRANCH   6   7
ENDBRANCH   5   6
ENDBRANCH   4   5
ENDBRANCH   3   4
ENDBRANCH   2   3
ENDBRANCH   1   2
BRANCH   1   9
ATOM      9  C   UNL     1      35.684 -18.428 -22.719  0.00  0.00    +0.001 C 
BRANCH   9  10
ATOM     10  C   UNL     1      35.188 -18.690 -21.292  0.00  0.00    +0.012 C 
BRANCH  10  11
ATOM     11  C   UNL     1      33.798 -19.320 -21.264  0.00  0.00    +0.109 C 
BRANCH  11  13
ATOM     12  O   UNL     1      32.621 -20.711 -19.679  0.00  0.00    -0.250 OA
ATOM     13  C   UNL     1      33.675 -20.401 -20.221  0.00  0.00    +0.314 C 
BRANCH  13  14
ATOM     14  O   UNL     1      34.860 -21.002 -19.948  0.00  0.00    -0.480 OA
ATOM     15  H   UNL     1      35.199 -21.653 -20.529  0.00  0.00    +0.295 HD
ENDBRANCH  13  14
ENDBRANCH  11  13
ENDBRANCH  10  11
ENDBRANCH   9  10
ENDBRANCH   1   9
TORSDOF 11
ENDMDL
MODEL 3
REMARK VINA RESULT:      -6.1      0.890      2.326
REMARK  Name = 3893
REMARK  11 active torsions:
REMARK  status: ('A' for Active; 'I' for Inactive)
REMARK    1  A    between atoms: C_1  and  C_2
REMARK    2  A    between atoms: C_1  and  C_9
REMARK    3  A    between atoms: C_2  and  C_3
REMARK    4  A    between atoms: C_3  and  C_4
REMARK    5  A    between atoms: C_4  and  C_5
REMARK    6  A    between atoms: C_5  and  C_6
REMARK    7  A    between atoms: C_6  and  C_7
REMARK    8  A    between atoms: C_9  and  C_10
REMARK    9  A    between atoms: C_10  and  C_11
REMARK   10  A    between atoms: C_11  and  C_13
REMARK   11  A    between atoms: C_13  and  O_14
REMARK                            x       y       z     vdW  Elec       q    Type
REMARK                         _______ _______ _______ _____ _____    ______ ____
ROOT
ATOM      1  C   UNL     1      34.920 -19.116 -21.186  0.00  0.00    +0.000 C 
ENDROOT
BRANCH   1   2
ATOM      2  C   UNL     1      35.173 -17.613 -21.025  0.00  0.00    +0.000 C 
BRANCH   2   3
ATOM      3  C   UNL     1      33.933 -16.756 -21.289  0.00  0.00    +0.000 C 
BRANCH   3   4
ATOM      4  C   UNL     1      34.319 -15.340 -21.723  0.00  0.00    +0.000 C 
BRANCH   4   5
ATOM      5  C   UNL     1      34.881 -15.331 -23.146  0.00  0.00    +0.000 C 
BRANCH   5   6
ATOM      6  C   UNL     1      33.969 -16.020 -24.165  0.00  0.00    +0.000 C 
BRANCH   6   7
ATOM      7  C   UNL     1      34.667 -16.951 -25.161  0.00  0.00    +0.000 C 
ATOM      8  C   UNL     1      34.509 -18.425 -24.829  0.00  0.00    +0.000 C 
ENDBRANCH   6   7
ENDBRANCH   5   6
ENDBRANCH   4   5
ENDBRANCH   3   4
ENDBRANCH   2   3
ENDBRANCH   1   2
BRANCH   1   9
ATOM      9  C   UNL     1      33.439 -19.468 -21.346  0.00  0.00    +0.001 C 
BRANCH   9  10
ATOM     10  C   UNL     1      32.970 -20.402 -20.224  0.00  0.00    +0.012 C 
BRANCH  10  11
ATOM     11  C   UNL     1      34.105 -21.255 -19.662  0.00  0.00    +0.109 C 
BRANCH  11  13
ATOM     12  O   UNL     1      34.122 -23.657 -19.416  0.00  0.00    -0.250 OA
ATOM     13  C   UNL     1      33.622 -22.578 -19.126  0.00  0.00    +0.314 C 
BRANCH  13  14
ATOM     14  O   UNL     1      32.571 -22.446 -18.278  0.00  0.00    -0.480 OA
ATOM     15  H   UNL     1      32.718 -22.213 -17.383  0.00  0.00    +0.295 HD
ENDBRANCH  13  14
ENDBRANCH  11  13
ENDBRANCH  10  11
ENDBRANCH   9  10
ENDBRANCH   1   9
TORSDOF 11
ENDMDL
MODEL 4
REMARK VINA RESULT:      -6.1      5.149      7.428
REMARK  Name = 3893
REMARK  11 active torsions:
REMARK  status: ('A' for Active; 'I' for Inactive)
REMARK    1  A    between atoms: C_1  and  C_2
REMARK    2  A    between atoms: C_1  and  C_9
REMARK    3  A    between atoms: C_2  and  C_3
REMARK    4  A    between atoms: C_3  and  C_4
REMARK    5  A    between atoms: C_4  and  C_5
REMARK    6  A    between atoms: C_5  and  C_6
REMARK    7  A    between atoms: C_6  and  C_7
REMARK    8  A    between atoms: C_9  and  C_10
REMARK    9  A    between atoms: C_10  and  C_11
REMARK   10  A    between atoms: C_11  and  C_13
REMARK   11  A    between atoms: C_13  and  O_14
REMARK                            x       y       z     vdW  Elec       q    Type
REMARK                         _______ _______ _______ _____ _____    ______ ____
ROOT
ATOM      1  C   UNL     1      35.920 -23.031 -16.010  0.00  0.00    +0.000 C 
ENDROOT
BRANCH   1   2
ATOM      2  C   UNL     1      36.992 -22.065 -16.523  0.00  0.00    +0.000 C 
BRANCH   2   3
ATOM      3  C   UNL     1      36.732 -21.568 -17.947  0.00  0.00    +0.000 C 
BRANCH   3   4
ATOM      4  C   UNL     1      35.400 -22.097 -18.485  0.00  0.00    +0.000 C 
BRANCH   4   5
ATOM      5  C   UNL     1      34.922 -21.276 -19.684  0.00  0.00    +0.000 C 
BRANCH   5   6
ATOM      6  C   UNL     1      33.406 -21.055 -19.705  0.00  0.00    +0.000 C 
BRANCH   6   7
ATOM      7  C   UNL     1      32.898 -20.021 -20.714  0.00  0.00    +0.000 C 
ATOM      8  C   UNL     1      33.965 -19.037 -21.164  0.00  0.00    +0.000 C 
ENDBRANCH   6   7
ENDBRANCH   5   6
ENDBRANCH   4   5
ENDBRANCH   3   4
ENDBRANCH   2   3
ENDBRANCH   1   2
BRANCH   1   9
ATOM      9  C   UNL     1      36.498 -24.267 -15.317  0.00  0.00    +0.001 C 
BRANCH   9  10
ATOM     10  C   UNL     1      37.952 -24.032 -14.893  0.00  0.00    +0.012 C 
BRANCH  10  11
ATOM     11  C   UNL     1      38.684 -25.333 -14.571  0.00  0.00    +0.109 C 
BRANCH  11  13
ATOM     12  O   UNL     1      41.009 -24.740 -14.294  0.00  0.00    -0.250 OA
ATOM     13  C   UNL     1      40.139 -25.288 -14.960  0.00  0.00    +0.314 C 
BRANCH  13  14
ATOM     14  O   UNL     1      40.387 -25.926 -16.131  0.00  0.00    -0.480 OA
ATOM     15  H   UNL     1      40.665 -25.439 -16.881  0.00  0.00    +0.295 HD
ENDBRANCH  13  14
ENDBRANCH  11  13
ENDBRANCH  10  11
ENDBRANCH   9  10
ENDBRANCH   1   9
TORSDOF 11
ENDMDL
MODEL 5
REMARK VINA RESULT:      -6.1      3.402      6.087
REMARK  Name = 3893
REMARK  11 active torsions:
REMARK  status: ('A' for Active; 'I' for Inactive)
REMARK    1  A    between atoms: C_1  and  C_2
REMARK    2  A    between atoms: C_1  and  C_9
REMARK    3  A    between atoms: C_2  and  C_3
REMARK    4  A    between atoms: C_3  and  C_4
REMARK    5  A    between atoms: C_4  and  C_5
REMARK    6  A    between atoms: C_5  and  C_6
REMARK    7  A    between atoms: C_6  and  C_7
REMARK    8  A    between atoms: C_9  and  C_10
REMARK    9  A    between atoms: C_10  and  C_11
REMARK   10  A    between atoms: C_11  and  C_13
REMARK   11  A    between atoms: C_13  and  O_14
REMARK                            x       y       z     vdW  Elec       q    Type
REMARK                         _______ _______ _______ _____ _____    ______ ____
ROOT
ATOM      1  C   UNL     1      32.749 -23.301 -16.836  0.00  0.00    +0.000 C 
ENDROOT
BRANCH   1   2
ATOM      2  C   UNL     1      33.081 -22.780 -18.238  0.00  0.00    +0.000 C 
BRANCH   2   3
ATOM      3  C   UNL     1      34.540 -22.345 -18.396  0.00  0.00    +0.000 C 
BRANCH   3   4
ATOM      4  C   UNL     1      34.700 -21.349 -19.548  0.00  0.00    +0.000 C 
BRANCH   4   5
ATOM      5  C   UNL     1      33.357 -20.728 -19.934  0.00  0.00    +0.000 C 
BRANCH   5   6
ATOM      6  C   UNL     1      33.464 -19.702 -21.067  0.00  0.00    +0.000 C 
BRANCH   6   7
ATOM      7  C   UNL     1      34.849 -19.553 -21.701  0.00  0.00    +0.000 C 
ATOM      8  C   UNL     1      34.806 -19.177 -23.173  0.00  0.00    +0.000 C 
ENDBRANCH   6   7
ENDBRANCH   5   6
ENDBRANCH   4   5
ENDBRANCH   3   4
ENDBRANCH   2   3
ENDBRANCH   1   2
BRANCH   1   9
ATOM      9  C   UNL     1      31.394 -22.815 -16.313  0.00  0.00    +0.001 C 
BRANCH   9  10
ATOM     10  C   UNL     1      30.531 -23.991 -15.844  0.00  0.00    +0.012 C 
BRANCH  10  11
ATOM     11  C   UNL     1      29.089 -23.580 -15.559  0.00  0.00    +0.109 C 
BRANCH  11  13
ATOM     12  O   UNL     1      27.775 -24.127 -17.510  0.00  0.00    -0.250 OA
ATOM     13  C   UNL     1      28.316 -23.275 -16.817  0.00  0.00    +0.314 C 
BRANCH  13  14
ATOM     14  O   UNL     1      28.279 -21.949 -17.099  0.00  0.00    -0.480 OA
ATOM     15  H   UNL     1      28.990 -21.547 -17.555  0.00  0.00    +0.295 HD
ENDBRANCH  13  14
ENDBRANCH  11  13
ENDBRANCH  10  11
ENDBRANCH   9  10
ENDBRANCH   1   9
TORSDOF 11
ENDMDL
MODEL 6
REMARK VINA RESULT:      -6.0      3.181      5.602
REMARK  Name = 3893
REMARK  11 active torsions:
REMARK  status: ('A' for Active; 'I' for Inactive)
REMARK    1  A    between atoms: C_1  and  C_2
REMARK    2  A    between atoms: C_1  and  C_9
REMARK    3  A    between atoms: C_2  and  C_3
REMARK    4  A    between atoms: C_3  and  C_4
REMARK    5  A    between atoms: C_4  and  C_5
REMARK    6  A    between atoms: C_5  and  C_6
REMARK    7  A    between atoms: C_6  and  C_7
REMARK    8  A    between atoms: C_9  and  C_10
REMARK    9  A    between atoms: C_10  and  C_11
REMARK   10  A    between atoms: C_11  and  C_13
REMARK   11  A    between atoms: C_13  and  O_14
REMARK                            x       y       z     vdW  Elec       q    Type
REMARK                         _______ _______ _______ _____ _____    ______ ____
ROOT
ATOM      1  C   UNL     1      34.858 -16.967 -24.778  0.00  0.00    +0.000 C 
ENDROOT
BRANCH   1   2
ATOM      2  C   UNL     1      34.418 -18.431 -24.865  0.00  0.00    +0.000 C 
BRANCH   2   3
ATOM      3  C   UNL     1      34.841 -19.267 -23.655  0.00  0.00    +0.000 C 
BRANCH   3   4
ATOM      4  C   UNL     1      35.513 -18.398 -22.588  0.00  0.00    +0.000 C 
BRANCH   4   5
ATOM      5  C   UNL     1      34.947 -18.693 -21.198  0.00  0.00    +0.000 C 
BRANCH   5   6
ATOM      6  C   UNL     1      33.585 -19.394 -21.230  0.00  0.00    +0.000 C 
BRANCH   6   7
ATOM      7  C   UNL     1      33.376 -20.488 -20.179  0.00  0.00    +0.000 C 
ATOM      8  C   UNL     1      34.659 -21.193 -19.772  0.00  0.00    +0.000 C 
ENDBRANCH   6   7
ENDBRANCH   5   6
ENDBRANCH   4   5
ENDBRANCH   3   4
ENDBRANCH   2   3
ENDBRANCH   1   2
BRANCH   1   9
ATOM      9  C   UNL     1      33.780 -15.981 -25.235  0.00  0.00    +0.001 C 
BRANCH   9  10
ATOM     10  C   UNL     1      33.563 -14.878 -24.193  0.00  0.00    +0.012 C 
BRANCH  10  11
ATOM     11  C   UNL     1      34.488 -15.024 -22.988  0.00  0.00    +0.109 C 
BRANCH  11  13
ATOM     12  O   UNL     1      34.270 -15.134 -20.585  0.00  0.00    -0.250 OA
ATOM     13  C   UNL     1      33.733 -15.080 -21.684  0.00  0.00    +0.314 C 
BRANCH  13  14
ATOM     14  O   UNL     1      32.388 -15.059 -21.858  0.00  0.00    -0.480 OA
ATOM     15  H   UNL     1      31.946 -15.816 -22.185  0.00  0.00    +0.295 HD
ENDBRANCH  13  14
ENDBRANCH  11  13
ENDBRANCH  10  11
ENDBRANCH   9  10
ENDBRANCH   1   9
TORSDOF 11
ENDMDL
MODEL 7
REMARK VINA RESULT:      -6.0      3.913      6.765
REMARK  Name = 3893
REMARK  11 active torsions:
REMARK  status: ('A' for Active; 'I' for Inactive)
REMARK    1  A    between atoms: C_1  and  C_2
REMARK    2  A    between atoms: C_1  and  C_9
REMARK    3  A    between atoms: C_2  and  C_3
REMARK    4  A    between atoms: C_3  and  C_4
REMARK    5  A    between atoms: C_4  and  C_5
REMARK    6  A    between atoms: C_5  and  C_6
REMARK    7  A    between atoms: C_6  and  C_7
REMARK    8  A    between atoms: C_9  and  C_10
REMARK    9  A    between atoms: C_10  and  C_11
REMARK   10  A    between atoms: C_11  and  C_13
REMARK   11  A    between atoms: C_13  and  O_14
REMARK                            x       y       z     vdW  Elec       q    Type
REMARK                         _______ _______ _______ _____ _____    ______ ____
ROOT
ATOM      1  C   UNL     1      34.413 -16.886 -21.071  0.00  0.00    +0.000 C 
ENDROOT
BRANCH   1   2
ATOM      2  C   UNL     1      35.418 -17.979 -21.446  0.00  0.00    +0.000 C 
BRANCH   2   3
ATOM      3  C   UNL     1      34.795 -19.374 -21.533  0.00  0.00    +0.000 C 
BRANCH   3   4
ATOM      4  C   UNL     1      33.353 -19.371 -21.020  0.00  0.00    +0.000 C 
BRANCH   4   5
ATOM      5  C   UNL     1      33.081 -20.582 -20.125  0.00  0.00    +0.000 C 
BRANCH   5   6
ATOM      6  C   UNL     1      34.355 -21.298 -19.665  0.00  0.00    +0.000 C 
BRANCH   6   7
ATOM      7  C   UNL     1      34.154 -22.691 -19.062  0.00  0.00    +0.000 C 
ATOM      8  C   UNL     1      33.115 -22.730 -17.954  0.00  0.00    +0.000 C 
ENDBRANCH   6   7
ENDBRANCH   5   6
ENDBRANCH   4   5
ENDBRANCH   3   4
ENDBRANCH   2   3
ENDBRANCH   1   2
BRANCH   1   9
ATOM      9  C   UNL     1      34.593 -15.595 -21.874  0.00  0.00    +0.001 C 
BRANCH   9  10
ATOM     10  C   UNL     1      34.871 -15.899 -23.351  0.00  0.00    +0.012 C 
BRANCH  10  11
ATOM     11  C   UNL     1      33.751 -15.414 -24.268  0.00  0.00    +0.109 C 
BRANCH  11  13
ATOM     12  O   UNL     1      33.357 -15.386 -26.650  0.00  0.00    -0.250 OA
ATOM     13  C   UNL     1      33.920 -15.892 -25.688  0.00  0.00    +0.314 C 
BRANCH  13  14
ATOM     14  O   UNL     1      34.770 -16.944 -25.787  0.00  0.00    -0.480 OA
ATOM     15  H   UNL     1      34.479 -17.746 -26.174  0.00  0.00    +0.295 HD
ENDBRANCH  13  14
ENDBRANCH  11  13
ENDBRANCH  10  11
ENDBRANCH   9  10
ENDBRANCH   1   9
TORSDOF 11
ENDMDL
MODEL 8
REMARK VINA RESULT:      -6.0      4.647      7.141
REMARK  Name = 3893
REMARK  11 active torsions:
REMARK  status: ('A' for Active; 'I' for Inactive)
REMARK    1  A    between atoms: C_1  and  C_2
REMARK    2  A    between atoms: C_1  and  C_9
REMARK    3  A    between atoms: C_2  and  C_3
REMARK    4  A    between atoms: C_3  and  C_4
REMARK    5  A    between atoms: C_4  and  C_5
REMARK    6  A    between atoms: C_5  and  C_6
REMARK    7  A    between atoms: C_6  and  C_7
REMARK    8  A    between atoms: C_9  and  C_10
REMARK    9  A    between atoms: C_10  and  C_11
REMARK   10  A    between atoms: C_11  and  C_13
REMARK   11  A    between atoms: C_13  and  O_14
REMARK                            x       y       z     vdW  Elec       q    Type
REMARK                         _______ _______ _______ _____ _____    ______ ____
ROOT
ATOM      1  C   UNL     1      32.468 -14.322 -21.760  0.00  0.00    +0.000 C 
ENDROOT
BRANCH   1   2
ATOM      2  C   UNL     1      32.949 -15.541 -20.967  0.00  0.00    +0.000 C 
BRANCH   2   3
ATOM      3  C   UNL     1      34.461 -15.553 -20.728  0.00  0.00    +0.000 C 
BRANCH   3   4
ATOM      4  C   UNL     1      35.037 -16.963 -20.889  0.00  0.00    +0.000 C 
BRANCH   4   5
ATOM      5  C   UNL     1      34.708 -17.541 -22.266  0.00  0.00    +0.000 C 
BRANCH   5   6
ATOM      6  C   UNL     1      34.497 -19.058 -22.255  0.00  0.00    +0.000 C 
BRANCH   6   7
ATOM      7  C   UNL     1      34.289 -19.691 -20.877  0.00  0.00    +0.000 C 
ATOM      8  C   UNL     1      32.839 -20.034 -20.577  0.00  0.00    +0.000 C 
ENDBRANCH   6   7
ENDBRANCH   5   6
ENDBRANCH   4   5
ENDBRANCH   3   4
ENDBRANCH   2   3
ENDBRANCH   1   2
BRANCH   1   9
ATOM      9  C   UNL     1      33.483 -13.832 -22.796  0.00  0.00    +0.001 C 
BRANCH   9  10
ATOM     10  C   UNL     1      33.363 -14.624 -24.103  0.00  0.00    +0.012 C 
BRANCH  10  11
ATOM     11  C   UNL     1      33.193 -13.719 -25.320  0.00  0.00    +0.109 C 
BRANCH  11  13
ATOM     12  O   UNL     1      33.160 -15.675 -26.736  0.00  0.00    -0.250 OA
ATOM     13  C   UNL     1      33.333 -14.468 -26.621  0.00  0.00    +0.314 C 
BRANCH  13  14
ATOM     14  O   UNL     1      33.666 -13.659 -27.657  0.00  0.00    -0.480 OA
ATOM     15  H   UNL     1      33.271 -12.814 -27.737  0.00  0.00    +0.295 HD
ENDBRANCH  13  14
ENDBRANCH  11  13
ENDBRANCH  10  11
ENDBRANCH   9  10
ENDBRANCH   1   9
TORSDOF 11
ENDMDL
MODEL 9
REMARK VINA RESULT:      -6.0      3.887      7.161
REMARK  Name = 3893
REMARK  11 active torsions:
REMARK  status: ('A' for Active; 'I' for Inactive)
REMARK    1  A    between atoms: C_1  and  C_2
REMARK    2  A    between atoms: C_1  and  C_9
REMARK    3  A    between atoms: C_2  and  C_3
REMARK    4  A    between atoms: C_3  and  C_4
REMARK    5  A    between atoms: C_4  and  C_5
REMARK    6  A    between atoms: C_5  and  C_6
REMARK    7  A    between atoms: C_6  and  C_7
REMARK    8  A    between atoms: C_9  and  C_10
REMARK    9  A    between atoms: C_10  and  C_11
REMARK   10  A    between atoms: C_11  and  C_13
REMARK   11  A    between atoms: C_13  and  O_14
REMARK                            x       y       z     vdW  Elec       q    Type
REMARK                         _______ _______ _______ _____ _____    ______ ____
ROOT
ATOM      1  C   UNL     1      32.197 -23.600 -15.444  0.00  0.00    +0.000 C 
ENDROOT
BRANCH   1   2
ATOM      2  C   UNL     1      33.686 -23.246 -15.383  0.00  0.00    +0.000 C 
BRANCH   2   3
ATOM      3  C   UNL     1      34.344 -23.142 -16.761  0.00  0.00    +0.000 C 
BRANCH   3   4
ATOM      4  C   UNL     1      33.296 -22.986 -17.866  0.00  0.00    +0.000 C 
BRANCH   4   5
ATOM      5  C   UNL     1      33.794 -22.057 -18.974  0.00  0.00    +0.000 C 
BRANCH   5   6
ATOM      6  C   UNL     1      32.765 -21.003 -19.394  0.00  0.00    +0.000 C 
BRANCH   6   7
ATOM      7  C   UNL     1      33.054 -20.279 -20.711  0.00  0.00    +0.000 C 
ATOM      8  C   UNL     1      34.486 -19.786 -20.833  0.00  0.00    +0.000 C 
ENDBRANCH   6   7
ENDBRANCH   5   6
ENDBRANCH   4   5
ENDBRANCH   3   4
ENDBRANCH   2   3
ENDBRANCH   1   2
BRANCH   1   9
ATOM      9  C   UNL     1      31.309 -22.628 -14.662  0.00  0.00    +0.001 C 
BRANCH   9  10
ATOM     10  C   UNL     1      29.828 -22.854 -14.984  0.00  0.00    +0.012 C 
BRANCH  10  11
ATOM     11  C   UNL     1      29.594 -23.182 -16.456  0.00  0.00    +0.109 C 
BRANCH  11  13
ATOM     12  O   UNL     1      27.723 -21.676 -16.707  0.00  0.00    -0.250 OA
ATOM     13  C   UNL     1      28.222 -22.772 -16.928  0.00  0.00    +0.314 C 
BRANCH  13  14
ATOM     14  O   UNL     1      27.598 -23.749 -17.632  0.00  0.00    -0.480 OA
ATOM     15  H   UNL     1      26.895 -24.230 -17.243  0.00  0.00    +0.295 HD
ENDBRANCH  13  14
ENDBRANCH  11  13
ENDBRANCH  10  11
ENDBRANCH   9  10
ENDBRANCH   1   9
TORSDOF 11
ENDMDL
