MODEL 1
REMARK VINA RESULT:      -7.6      0.000      0.000
REMARK  Name = 6993635
REMARK  4 active torsions:
REMARK  status: ('A' for Active; 'I' for Inactive)
REMARK    1  A    between atoms: C_1  and  C_2
REMARK    2  A    between atoms: C_1  and  CA_9
REMARK    3  A    between atoms: CA_9  and  N_10
REMARK    4  A    between atoms: CA_9  and  C_16
REMARK                            x       y       z     vdW  Elec       q    Type
REMARK                         _______ _______ _______ _____ _____    ______ ____
ROOT
ATOM      1  C   UNL     1      35.547 -18.391 -22.615  0.00  0.00    +0.015 C 
ENDROOT
BRANCH   1   2
ATOM      2  C   UNL     1      34.909 -19.304 -21.594  0.00  0.00    -0.024 C 
ATOM      3  C   UNL     1      35.717 -20.076 -20.776  0.00  0.00    -0.009 C 
ATOM      4  C   UNL     1      33.528 -19.352 -21.495  0.00  0.00    -0.004 C 
ATOM      5  C   UNL     1      35.130 -20.919 -19.833  0.00  0.00    -0.022 C 
ATOM      6  C   UNL     1      32.939 -20.195 -20.553  0.00  0.00    -0.001 C 
ATOM      7  C   UNL     1      33.741 -20.978 -19.722  0.00  0.00    -0.004 C 
ATOM      8  C   UNL     1      35.986 -21.757 -18.944  0.00  0.00    +0.031 C 
ENDBRANCH   1   2
BRANCH   1   9
ATOM      9  CA  UNL     1      34.604 -18.053 -23.774  0.00  0.00    +0.045 C 
BRANCH   9  10
ATOM     10  N   UNL     1      34.682 -19.188 -24.748  0.00  0.00    +0.389 N 
ATOM     11  H1  UNL     1      34.091 -19.954 -24.424  0.00  0.00    -0.088 HD
ATOM     12  H2  UNL     1      35.647 -19.510 -24.819  0.00  0.00    -0.088 HD
ATOM     13  H3  UNL     1      34.360 -18.873 -25.663  0.00  0.00    -0.088 HD
ENDBRANCH   9  10
BRANCH   9  16
ATOM     14  O   UNL     1      35.291 -15.798 -23.618  0.00  0.00    -0.248 OA
ATOM     15  OXT UNL     1      34.876 -16.674 -25.688  0.00  0.00    -0.248 OA
ATOM     16  C   UNL     1      34.955 -16.708 -24.428  0.00  0.00    +0.345 C 
ENDBRANCH   9  16
ENDBRANCH   1   9
TORSDOF 4
ENDMDL
MODEL 2
REMARK VINA RESULT:      -7.5      1.302      1.709
REMARK  Name = 6993635
REMARK  4 active torsions:
REMARK  status: ('A' for Active; 'I' for Inactive)
REMARK    1  A    between atoms: C_1  and  C_2
REMARK    2  A    between atoms: C_1  and  CA_9
REMARK    3  A    between atoms: CA_9  and  N_10
REMARK    4  A    between atoms: CA_9  and  C_16
REMARK                            x       y       z     vdW  Elec       q    Type
REMARK                         _______ _______ _______ _____ _____    ______ ____
ROOT
ATOM      1  C   UNL     1      35.758 -18.308 -22.185  0.00  0.00    +0.015 C 
ENDROOT
BRANCH   1   2
ATOM      2  C   UNL     1      34.998 -19.294 -21.329  0.00  0.00    -0.024 C 
ATOM      3  C   UNL     1      35.697 -20.134 -20.478  0.00  0.00    -0.009 C 
ATOM      4  C   UNL     1      33.616 -19.339 -21.411  0.00  0.00    -0.004 C 
ATOM      5  C   UNL     1      34.997 -21.045 -19.688  0.00  0.00    -0.022 C 
ATOM      6  C   UNL     1      32.914 -20.249 -20.621  0.00  0.00    -0.001 C 
ATOM      7  C   UNL     1      33.605 -21.102 -19.760  0.00  0.00    -0.004 C 
ATOM      8  C   UNL     1      35.735 -21.956 -18.767  0.00  0.00    +0.031 C 
ENDBRANCH   1   2
BRANCH   1   9
ATOM      9  CA  UNL     1      34.843 -17.271 -22.845  0.00  0.00    +0.045 C 
BRANCH   9  10
ATOM     10  N   UNL     1      35.258 -17.169 -24.280  0.00  0.00    +0.389 N 
ATOM     11  H1  UNL     1      34.482 -16.804 -24.833  0.00  0.00    -0.088 HD
ATOM     12  H2  UNL     1      35.516 -18.094 -24.626  0.00  0.00    -0.088 HD
ATOM     13  H3  UNL     1      36.057 -16.541 -24.359  0.00  0.00    -0.088 HD
ENDBRANCH   9  10
BRANCH   9  16
ATOM     14  O   UNL     1      34.858 -14.909 -22.897  0.00  0.00    -0.248 OA
ATOM     15  OXT UNL     1      34.981 -15.960 -20.870  0.00  0.00    -0.248 OA
ATOM     16  C   UNL     1      34.903 -15.913 -22.130  0.00  0.00    +0.345 C 
ENDBRANCH   9  16
ENDBRANCH   1   9
TORSDOF 4
ENDMDL
MODEL 3
REMARK VINA RESULT:      -7.4      1.537      2.316
REMARK  Name = 6993635
REMARK  4 active torsions:
REMARK  status: ('A' for Active; 'I' for Inactive)
REMARK    1  A    between atoms: C_1  and  C_2
REMARK    2  A    between atoms: C_1  and  CA_9
REMARK    3  A    between atoms: CA_9  and  N_10
REMARK    4  A    between atoms: CA_9  and  C_16
REMARK                            x       y       z     vdW  Elec       q    Type
REMARK                         _______ _______ _______ _____ _____    ______ ____
ROOT
ATOM      1  C   UNL     1      34.370 -17.959 -22.197  0.00  0.00    +0.015 C 
ENDROOT
BRANCH   1   2
ATOM      2  C   UNL     1      34.874 -19.058 -21.292  0.00  0.00    -0.024 C 
ATOM      3  C   UNL     1      33.968 -19.935 -20.719  0.00  0.00    -0.009 C 
ATOM      4  C   UNL     1      36.234 -19.168 -21.051  0.00  0.00    -0.004 C 
ATOM      5  C   UNL     1      34.432 -20.950 -19.883  0.00  0.00    -0.022 C 
ATOM      6  C   UNL     1      36.700 -20.182 -20.215  0.00  0.00    -0.001 C 
ATOM      7  C   UNL     1      35.799 -21.073 -19.631  0.00  0.00    -0.004 C 
ATOM      8  C   UNL     1      33.470 -21.902 -19.259  0.00  0.00    +0.031 C 
ENDBRANCH   1   2
BRANCH   1   9
ATOM      9  CA  UNL     1      35.257 -17.757 -23.430  0.00  0.00    +0.045 C 
BRANCH   9  10
ATOM     10  N   UNL     1      35.475 -16.282 -23.577  0.00  0.00    +0.389 N 
ATOM     11  H1  UNL     1      35.453 -15.843 -22.657  0.00  0.00    -0.088 HD
ATOM     12  H2  UNL     1      34.737 -15.886 -24.160  0.00  0.00    -0.088 HD
ATOM     13  H3  UNL     1      36.380 -16.114 -24.014  0.00  0.00    -0.088 HD
ENDBRANCH   9  10
BRANCH   9  16
ATOM     14  O   UNL     1      34.664 -19.639 -24.727  0.00  0.00    -0.248 OA
ATOM     15  OXT UNL     1      34.174 -17.557 -25.534  0.00  0.00    -0.248 OA
ATOM     16  C   UNL     1      34.639 -18.376 -24.692  0.00  0.00    +0.345 C 
ENDBRANCH   9  16
ENDBRANCH   1   9
TORSDOF 4
ENDMDL
MODEL 4
REMARK VINA RESULT:      -7.1      5.068      6.578
REMARK  Name = 6993635
REMARK  4 active torsions:
REMARK  status: ('A' for Active; 'I' for Inactive)
REMARK    1  A    between atoms: C_1  and  C_2
REMARK    2  A    between atoms: C_1  and  CA_9
REMARK    3  A    between atoms: CA_9  and  N_10
REMARK    4  A    between atoms: CA_9  and  C_16
REMARK                            x       y       z     vdW  Elec       q    Type
REMARK                         _______ _______ _______ _____ _____    ______ ____
ROOT
ATOM      1  C   UNL     1      36.487 -21.887 -18.759  0.00  0.00    +0.015 C 
ENDROOT
BRANCH   1   2
ATOM      2  C   UNL     1      35.344 -21.234 -19.498  0.00  0.00    -0.024 C 
ATOM      3  C   UNL     1      35.618 -20.304 -20.488  0.00  0.00    -0.009 C 
ATOM      4  C   UNL     1      34.041 -21.578 -19.174  0.00  0.00    -0.004 C 
ATOM      5  C   UNL     1      34.563 -19.700 -21.171  0.00  0.00    -0.022 C 
ATOM      6  C   UNL     1      32.985 -20.976 -19.858  0.00  0.00    -0.001 C 
ATOM      7  C   UNL     1      33.246 -20.037 -20.856  0.00  0.00    -0.004 C 
ATOM      8  C   UNL     1      34.841 -18.697 -22.239  0.00  0.00    +0.031 C 
ENDBRANCH   1   2
BRANCH   1   9
ATOM      9  CA  UNL     1      36.534 -21.493 -17.278  0.00  0.00    +0.045 C 
BRANCH   9  10
ATOM     10  N   UNL     1      37.572 -20.422 -17.142  0.00  0.00    +0.389 N 
ATOM     11  H1  UNL     1      38.462 -20.765 -17.503  0.00  0.00    -0.088 HD
ATOM     12  H2  UNL     1      37.678 -20.175 -16.157  0.00  0.00    -0.088 HD
ATOM     13  H3  UNL     1      37.283 -19.600 -17.670  0.00  0.00    -0.088 HD
ENDBRANCH   9  10
BRANCH   9  16
ATOM     14  O   UNL     1      35.870 -23.516 -16.255  0.00  0.00    -0.248 OA
ATOM     15  OXT UNL     1      37.981 -22.732 -15.861  0.00  0.00    -0.248 OA
ATOM     16  C   UNL     1      36.826 -22.698 -16.372  0.00  0.00    +0.345 C 
ENDBRANCH   9  16
ENDBRANCH   1   9
TORSDOF 4
ENDMDL
MODEL 5
REMARK VINA RESULT:      -7.1      3.802      5.531
REMARK  Name = 6993635
REMARK  4 active torsions:
REMARK  status: ('A' for Active; 'I' for Inactive)
REMARK    1  A    between atoms: C_1  and  C_2
REMARK    2  A    between atoms: C_1  and  CA_9
REMARK    3  A    between atoms: CA_9  and  N_10
REMARK    4  A    between atoms: CA_9  and  C_16
REMARK                            x       y       z     vdW  Elec       q    Type
REMARK                         _______ _______ _______ _____ _____    ______ ____
ROOT
ATOM      1  C   UNL     1      35.025 -20.197 -20.370  0.00  0.00    +0.015 C 
ENDROOT
BRANCH   1   2
ATOM      2  C   UNL     1      34.959 -19.097 -21.404  0.00  0.00    -0.024 C 
ATOM      3  C   UNL     1      34.723 -19.425 -22.729  0.00  0.00    -0.009 C 
ATOM      4  C   UNL     1      35.137 -17.782 -21.008  0.00  0.00    -0.004 C 
ATOM      5  C   UNL     1      34.662 -18.411 -23.685  0.00  0.00    -0.022 C 
ATOM      6  C   UNL     1      35.075 -16.766 -21.962  0.00  0.00    -0.001 C 
ATOM      7  C   UNL     1      34.838 -17.082 -23.301  0.00  0.00    -0.004 C 
ATOM      8  C   UNL     1      34.408 -18.747 -25.115  0.00  0.00    +0.031 C 
ENDBRANCH   1   2
BRANCH   1   9
ATOM      9  CA  UNL     1      33.744 -21.037 -20.321  0.00  0.00    +0.045 C 
BRANCH   9  10
ATOM     10  N   UNL     1      32.607 -20.091 -20.089  0.00  0.00    +0.389 N 
ATOM     11  H1  UNL     1      32.122 -20.348 -19.229  0.00  0.00    -0.088 HD
ATOM     12  H2  UNL     1      31.958 -20.140 -20.874  0.00  0.00    -0.088 HD
ATOM     13  H3  UNL     1      32.968 -19.141 -20.005  0.00  0.00    -0.088 HD
ENDBRANCH   9  10
BRANCH   9  16
ATOM     14  O   UNL     1      32.714 -22.384 -18.676  0.00  0.00    -0.248 OA
ATOM     15  OXT UNL     1      34.953 -22.645 -19.058  0.00  0.00    -0.248 OA
ATOM     16  C   UNL     1      33.815 -22.129 -19.243  0.00  0.00    +0.345 C 
ENDBRANCH   9  16
ENDBRANCH   1   9
TORSDOF 4
ENDMDL
MODEL 6
REMARK VINA RESULT:      -7.0      3.476      5.173
REMARK  Name = 6993635
REMARK  4 active torsions:
REMARK  status: ('A' for Active; 'I' for Inactive)
REMARK    1  A    between atoms: C_1  and  C_2
REMARK    2  A    between atoms: C_1  and  CA_9
REMARK    3  A    between atoms: CA_9  and  N_10
REMARK    4  A    between atoms: CA_9  and  C_16
REMARK                            x       y       z     vdW  Elec       q    Type
REMARK                         _______ _______ _______ _____ _____    ______ ____
ROOT
ATOM      1  C   UNL     1      35.084 -19.901 -21.711  0.00  0.00    +0.015 C 
ENDROOT
BRANCH   1   2
ATOM      2  C   UNL     1      34.978 -18.460 -22.152  0.00  0.00    -0.024 C 
ATOM      3  C   UNL     1      34.778 -17.472 -21.201  0.00  0.00    -0.009 C 
ATOM      4  C   UNL     1      35.083 -18.153 -23.499  0.00  0.00    -0.004 C 
ATOM      5  C   UNL     1      34.680 -16.142 -21.607  0.00  0.00    -0.022 C 
ATOM      6  C   UNL     1      34.985 -16.823 -23.906  0.00  0.00    -0.001 C 
ATOM      7  C   UNL     1      34.783 -15.817 -22.960  0.00  0.00    -0.004 C 
ATOM      8  C   UNL     1      34.464 -15.066 -20.596  0.00  0.00    +0.031 C 
ENDBRANCH   1   2
BRANCH   1   9
ATOM      9  CA  UNL     1      34.566 -20.122 -20.286  0.00  0.00    +0.045 C 
BRANCH   9  10
ATOM     10  N   UNL     1      35.605 -20.918 -19.559  0.00  0.00    +0.389 N 
ATOM     11  H1  UNL     1      36.387 -21.107 -20.186  0.00  0.00    -0.088 HD
ATOM     12  H2  UNL     1      35.200 -21.800 -19.245  0.00  0.00    -0.088 HD
ATOM     13  H3  UNL     1      35.935 -20.389 -18.752  0.00  0.00    -0.088 HD
ENDBRANCH   9  10
BRANCH   9  16
ATOM     14  O   UNL     1      32.269 -20.166 -20.836  0.00  0.00    -0.248 OA
ATOM     15  OXT UNL     1      33.160 -21.949 -19.716  0.00  0.00    -0.248 OA
ATOM     16  C   UNL     1      33.195 -20.816 -20.274  0.00  0.00    +0.345 C 
ENDBRANCH   9  16
ENDBRANCH   1   9
TORSDOF 4
ENDMDL
MODEL 7
REMARK VINA RESULT:      -7.0      2.543      3.319
REMARK  Name = 6993635
REMARK  4 active torsions:
REMARK  status: ('A' for Active; 'I' for Inactive)
REMARK    1  A    between atoms: C_1  and  C_2
REMARK    2  A    between atoms: C_1  and  CA_9
REMARK    3  A    between atoms: CA_9  and  N_10
REMARK    4  A    between atoms: CA_9  and  C_16
REMARK                            x       y       z     vdW  Elec       q    Type
REMARK                         _______ _______ _______ _____ _____    ______ ____
ROOT
ATOM      1  C   UNL     1      35.104 -16.856 -22.234  0.00  0.00    +0.015 C 
ENDROOT
BRANCH   1   2
ATOM      2  C   UNL     1      35.178 -18.184 -21.518  0.00  0.00    -0.024 C 
ATOM      3  C   UNL     1      34.005 -18.849 -21.198  0.00  0.00    -0.009 C 
ATOM      4  C   UNL     1      36.417 -18.713 -21.195  0.00  0.00    -0.004 C 
ATOM      5  C   UNL     1      34.072 -20.075 -20.536  0.00  0.00    -0.022 C 
ATOM      6  C   UNL     1      36.485 -19.940 -20.534  0.00  0.00    -0.001 C 
ATOM      7  C   UNL     1      35.312 -20.620 -20.205  0.00  0.00    -0.004 C 
ATOM      8  C   UNL     1      32.819 -20.803 -20.185  0.00  0.00    +0.031 C 
ENDBRANCH   1   2
BRANCH   1   9
ATOM      9  CA  UNL     1      33.790 -16.114 -21.966  0.00  0.00    +0.045 C 
BRANCH   9  10
ATOM     10  N   UNL     1      33.511 -15.269 -23.171  0.00  0.00    +0.389 N 
ATOM     11  H1  UNL     1      34.292 -15.339 -23.823  0.00  0.00    -0.088 HD
ATOM     12  H2  UNL     1      33.393 -14.297 -22.884  0.00  0.00    -0.088 HD
ATOM     13  H3  UNL     1      32.658 -15.595 -23.624  0.00  0.00    -0.088 HD
ENDBRANCH   9  10
BRANCH   9  16
ATOM     14  O   UNL     1      32.734 -15.057 -20.137  0.00  0.00    -0.248 OA
ATOM     15  OXT UNL     1      35.009 -14.923 -20.313  0.00  0.00    -0.248 OA
ATOM     16  C   UNL     1      33.854 -15.279 -20.679  0.00  0.00    +0.345 C 
ENDBRANCH   9  16
ENDBRANCH   1   9
TORSDOF 4
ENDMDL
MODEL 8
REMARK VINA RESULT:      -6.9      1.208      2.384
REMARK  Name = 6993635
REMARK  4 active torsions:
REMARK  status: ('A' for Active; 'I' for Inactive)
REMARK    1  A    between atoms: C_1  and  C_2
REMARK    2  A    between atoms: C_1  and  CA_9
REMARK    3  A    between atoms: CA_9  and  N_10
REMARK    4  A    between atoms: CA_9  and  C_16
REMARK                            x       y       z     vdW  Elec       q    Type
REMARK                         _______ _______ _______ _____ _____    ______ ____
ROOT
ATOM      1  C   UNL     1      35.175 -16.868 -23.015  0.00  0.00    +0.015 C 
ENDROOT
BRANCH   1   2
ATOM      2  C   UNL     1      35.250 -18.056 -22.084  0.00  0.00    -0.024 C 
ATOM      3  C   UNL     1      34.078 -18.655 -21.653  0.00  0.00    -0.009 C 
ATOM      4  C   UNL     1      36.490 -18.524 -21.680  0.00  0.00    -0.004 C 
ATOM      5  C   UNL     1      34.146 -19.752 -20.793  0.00  0.00    -0.022 C 
ATOM      6  C   UNL     1      36.560 -19.621 -20.822  0.00  0.00    -0.001 C 
ATOM      7  C   UNL     1      35.387 -20.234 -20.378  0.00  0.00    -0.004 C 
ATOM      8  C   UNL     1      32.894 -20.408 -20.319  0.00  0.00    +0.031 C 
ENDBRANCH   1   2
BRANCH   1   9
ATOM      9  CA  UNL     1      34.220 -17.100 -24.191  0.00  0.00    +0.045 C 
BRANCH   9  10
ATOM     10  N   UNL     1      34.870 -18.104 -25.093  0.00  0.00    +0.389 N 
ATOM     11  H1  UNL     1      35.436 -17.618 -25.789  0.00  0.00    -0.088 HD
ATOM     12  H2  UNL     1      34.151 -18.654 -25.563  0.00  0.00    -0.088 HD
ATOM     13  H3  UNL     1      35.464 -18.721 -24.541  0.00  0.00    -0.088 HD
ENDBRANCH   9  10
BRANCH   9  16
ATOM     14  O   UNL     1      33.895 -15.881 -26.188  0.00  0.00    -0.248 OA
ATOM     15  OXT UNL     1      33.641 -14.797 -24.191  0.00  0.00    -0.248 OA
ATOM     16  C   UNL     1      33.888 -15.794 -24.927  0.00  0.00    +0.345 C 
ENDBRANCH   9  16
ENDBRANCH   1   9
TORSDOF 4
ENDMDL
MODEL 9
REMARK VINA RESULT:      -6.9      3.347      5.440
REMARK  Name = 6993635
REMARK  4 active torsions:
REMARK  status: ('A' for Active; 'I' for Inactive)
REMARK    1  A    between atoms: C_1  and  C_2
REMARK    2  A    between atoms: C_1  and  CA_9
REMARK    3  A    between atoms: CA_9  and  N_10
REMARK    4  A    between atoms: CA_9  and  C_16
REMARK                            x       y       z     vdW  Elec       q    Type
REMARK                         _______ _______ _______ _____ _____    ______ ____
ROOT
ATOM      1  C   UNL     1      35.509 -19.087 -20.932  0.00  0.00    +0.015 C 
ENDROOT
BRANCH   1   2
ATOM      2  C   UNL     1      35.138 -18.447 -22.249  0.00  0.00    -0.024 C 
ATOM      3  C   UNL     1      34.971 -17.074 -22.314  0.00  0.00    -0.009 C 
ATOM      4  C   UNL     1      34.972 -19.247 -23.369  0.00  0.00    -0.004 C 
ATOM      5  C   UNL     1      34.629 -16.482 -23.529  0.00  0.00    -0.022 C 
ATOM      6  C   UNL     1      34.630 -18.656 -24.585  0.00  0.00    -0.001 C 
ATOM      7  C   UNL     1      34.458 -17.274 -24.665  0.00  0.00    -0.004 C 
ATOM      8  C   UNL     1      34.445 -15.005 -23.616  0.00  0.00    +0.031 C 
ENDBRANCH   1   2
BRANCH   1   9
ATOM      9  CA  UNL     1      34.823 -20.441 -20.720  0.00  0.00    +0.045 C 
BRANCH   9  10
ATOM     10  N   UNL     1      33.406 -20.158 -20.326  0.00  0.00    +0.389 N 
ATOM     11  H1  UNL     1      32.909 -21.038 -20.190  0.00  0.00    -0.088 HD
ATOM     12  H2  UNL     1      32.949 -19.620 -21.063  0.00  0.00    -0.088 HD
ATOM     13  H3  UNL     1      33.395 -19.623 -19.458  0.00  0.00    -0.088 HD
ENDBRANCH   9  10
BRANCH   9  16
ATOM     14  O   UNL     1      36.490 -20.705 -19.067  0.00  0.00    -0.248 OA
ATOM     15  OXT UNL     1      35.125 -22.478 -19.537  0.00  0.00    -0.248 OA
ATOM     16  C   UNL     1      35.552 -21.296 -19.673  0.00  0.00    +0.345 C 
ENDBRANCH   9  16
ENDBRANCH   1   9
TORSDOF 4
ENDMDL
