MODEL 1
REMARK VINA RESULT:      -7.8      0.000      0.000
REMARK  Name = 448173
REMARK  12 active torsions:
REMARK  status: ('A' for Active; 'I' for Inactive)
REMARK    1  A    between atoms: C_2  and  O_7
REMARK    2  A    between atoms: C_3  and  O_9
REMARK    3  A    between atoms: C_4  and  O_11
REMARK    4  A    between atoms: C_5  and  C_21
REMARK    5  A    between atoms: C_6  and  O_13
REMARK    6  A    between atoms: O_13  and  C_14
REMARK    7  A    between atoms: C_14  and  C_15
REMARK    8  A    between atoms: C_15  and  C_16
REMARK    9  A    between atoms: C_16  and  C_17
REMARK   10  A    between atoms: C_17  and  C_18
REMARK   11  A    between atoms: C_18  and  C_19
REMARK   12  A    between atoms: C_21  and  O_22
REMARK                            x       y       z     vdW  Elec       q    Type
REMARK                         _______ _______ _______ _____ _____    ______ ____
ROOT
ATOM      1  O   UNL     1      38.457 -23.659 -15.211  0.00  0.00    -0.326 OA
ATOM      2  C   UNL     1      36.475 -25.708 -14.855  0.00  0.00    +0.172 C 
ATOM      3  C   UNL     1      37.951 -26.027 -15.096  0.00  0.00    +0.169 C 
ATOM      4  C   UNL     1      36.122 -24.310 -15.362  0.00  0.00    +0.196 C 
ATOM      5  C   UNL     1      38.842 -24.889 -14.594  0.00  0.00    +0.176 C 
ATOM      6  C   UNL     1      37.129 -23.269 -14.870  0.00  0.00    +0.266 C 
ENDROOT
BRANCH   2   7
ATOM      7  O   UNL     1      35.693 -26.678 -15.553  0.00  0.00    -0.379 OA
ATOM      8  H   UNL     1      34.796 -26.696 -15.184  0.00  0.00    +0.211 HD
ENDBRANCH   2   7
BRANCH   3   9
ATOM      9  O   UNL     1      38.291 -27.230 -14.411  0.00  0.00    -0.379 OA
ATOM     10  H   UNL     1      39.182 -27.509 -14.671  0.00  0.00    +0.211 HD
ENDBRANCH   3   9
BRANCH   4  11
ATOM     11  O   UNL     1      34.829 -23.943 -14.879  0.00  0.00    -0.378 OA
ATOM     12  H   UNL     1      34.175 -24.588 -15.187  0.00  0.00    +0.211 HD
ENDBRANCH   4  11
BRANCH   6  13
ATOM     13  O   UNL     1      36.817 -22.025 -15.498  0.00  0.00    -0.329 OA
BRANCH  13  14
ATOM     14  C   UNL     1      37.335 -21.963 -16.819  0.00  0.00    +0.145 C 
BRANCH  14  15
ATOM     15  C   UNL     1      36.173 -21.912 -17.801  0.00  0.00    +0.032 C 
BRANCH  15  16
ATOM     16  C   UNL     1      36.575 -21.252 -19.119  0.00  0.00    +0.003 C 
BRANCH  16  17
ATOM     17  C   UNL     1      35.380 -21.135 -20.068  0.00  0.00    +0.000 C 
BRANCH  17  18
ATOM     18  C   UNL     1      35.336 -19.808 -20.829  0.00  0.00    +0.000 C 
BRANCH  18  19
ATOM     19  C   UNL     1      33.940 -19.445 -21.337  0.00  0.00    +0.000 C 
ATOM     20  C   UNL     1      32.855 -20.092 -20.490  0.00  0.00    +0.000 C 
ENDBRANCH  18  19
ENDBRANCH  17  18
ENDBRANCH  16  17
ENDBRANCH  15  16
ENDBRANCH  14  15
ENDBRANCH  13  14
ENDBRANCH   6  13
BRANCH   5  21
ATOM     21  C   UNL     1      40.310 -25.131 -14.929  0.00  0.00    +0.169 C 
BRANCH  21  22
ATOM     22  O   UNL     1      40.381 -25.929 -16.096  0.00  0.00    -0.379 OA
ATOM     23  H   UNL     1      41.266 -26.317 -16.171  0.00  0.00    +0.211 HD
ENDBRANCH  21  22
ENDBRANCH   5  21
TORSDOF 12
ENDMDL
MODEL 2
REMARK VINA RESULT:      -7.7      2.082      3.077
REMARK  Name = 448173
REMARK  12 active torsions:
REMARK  status: ('A' for Active; 'I' for Inactive)
REMARK    1  A    between atoms: C_2  and  O_7
REMARK    2  A    between atoms: C_3  and  O_9
REMARK    3  A    between atoms: C_4  and  O_11
REMARK    4  A    between atoms: C_5  and  C_21
REMARK    5  A    between atoms: C_6  and  O_13
REMARK    6  A    between atoms: O_13  and  C_14
REMARK    7  A    between atoms: C_14  and  C_15
REMARK    8  A    between atoms: C_15  and  C_16
REMARK    9  A    between atoms: C_16  and  C_17
REMARK   10  A    between atoms: C_17  and  C_18
REMARK   11  A    between atoms: C_18  and  C_19
REMARK   12  A    between atoms: C_21  and  O_22
REMARK                            x       y       z     vdW  Elec       q    Type
REMARK                         _______ _______ _______ _____ _____    ______ ____
ROOT
ATOM      1  O   UNL     1      35.980 -23.864 -13.934  0.00  0.00    -0.326 OA
ATOM      2  C   UNL     1      37.417 -26.351 -13.970  0.00  0.00    +0.172 C 
ATOM      3  C   UNL     1      37.720 -25.243 -12.960  0.00  0.00    +0.169 C 
ATOM      4  C   UNL     1      36.719 -25.793 -15.211  0.00  0.00    +0.196 C 
ATOM      5  C   UNL     1      36.476 -24.390 -12.701  0.00  0.00    +0.176 C 
ATOM      6  C   UNL     1      35.548 -24.886 -14.830  0.00  0.00    +0.266 C 
ENDROOT
BRANCH   2   7
ATOM      7  O   UNL     1      38.655 -26.952 -14.352  0.00  0.00    -0.379 OA
ATOM      8  H   UNL     1      39.207 -26.294 -14.804  0.00  0.00    +0.211 HD
ENDBRANCH   2   7
BRANCH   3   9
ATOM      9  O   UNL     1      38.154 -25.828 -11.736  0.00  0.00    -0.379 OA
ATOM     10  H   UNL     1      39.097 -26.046 -11.798  0.00  0.00    +0.211 HD
ENDBRANCH   3   9
BRANCH   4  11
ATOM     11  O   UNL     1      36.211 -26.872 -15.995  0.00  0.00    -0.378 OA
ATOM     12  H   UNL     1      36.660 -27.694 -15.742  0.00  0.00    +0.211 HD
ENDBRANCH   4  11
BRANCH   6  13
ATOM     13  O   UNL     1      35.043 -24.294 -16.027  0.00  0.00    -0.329 OA
BRANCH  13  14
ATOM     14  C   UNL     1      34.116 -23.255 -15.744  0.00  0.00    +0.145 C 
BRANCH  14  15
ATOM     15  C   UNL     1      33.068 -23.218 -16.847  0.00  0.00    +0.032 C 
BRANCH  15  16
ATOM     16  C   UNL     1      33.707 -23.233 -18.234  0.00  0.00    +0.003 C 
BRANCH  16  17
ATOM     17  C   UNL     1      33.398 -21.946 -19.002  0.00  0.00    +0.000 C 
BRANCH  17  18
ATOM     18  C   UNL     1      34.635 -21.303 -19.634  0.00  0.00    +0.000 C 
BRANCH  18  19
ATOM     19  C   UNL     1      34.304 -20.149 -20.581  0.00  0.00    +0.000 C 
ATOM     20  C   UNL     1      32.803 -19.921 -20.675  0.00  0.00    +0.000 C 
ENDBRANCH  18  19
ENDBRANCH  17  18
ENDBRANCH  16  17
ENDBRANCH  15  16
ENDBRANCH  14  15
ENDBRANCH  13  14
ENDBRANCH   6  13
BRANCH   5  21
ATOM     21  C   UNL     1      36.783 -23.208 -11.787  0.00  0.00    +0.169 C 
BRANCH  21  22
ATOM     22  O   UNL     1      38.187 -23.045 -11.717  0.00  0.00    -0.379 OA
ATOM     23  H   UNL     1      38.584 -23.829 -11.306  0.00  0.00    +0.211 HD
ENDBRANCH  21  22
ENDBRANCH   5  21
TORSDOF 12
ENDMDL
MODEL 3
REMARK VINA RESULT:      -7.6      1.847      2.544
REMARK  Name = 448173
REMARK  12 active torsions:
REMARK  status: ('A' for Active; 'I' for Inactive)
REMARK    1  A    between atoms: C_2  and  O_7
REMARK    2  A    between atoms: C_3  and  O_9
REMARK    3  A    between atoms: C_4  and  O_11
REMARK    4  A    between atoms: C_5  and  C_21
REMARK    5  A    between atoms: C_6  and  O_13
REMARK    6  A    between atoms: O_13  and  C_14
REMARK    7  A    between atoms: C_14  and  C_15
REMARK    8  A    between atoms: C_15  and  C_16
REMARK    9  A    between atoms: C_16  and  C_17
REMARK   10  A    between atoms: C_17  and  C_18
REMARK   11  A    between atoms: C_18  and  C_19
REMARK   12  A    between atoms: C_21  and  O_22
REMARK                            x       y       z     vdW  Elec       q    Type
REMARK                         _______ _______ _______ _____ _____    ______ ____
ROOT
ATOM      1  O   UNL     1      36.511 -24.867 -15.454  0.00  0.00    -0.326 OA
ATOM      2  C   UNL     1      35.514 -24.436 -12.795  0.00  0.00    +0.172 C 
ATOM      3  C   UNL     1      36.720 -25.330 -13.084  0.00  0.00    +0.169 C 
ATOM      4  C   UNL     1      34.630 -24.282 -14.033  0.00  0.00    +0.196 C 
ATOM      5  C   UNL     1      37.433 -24.884 -14.362  0.00  0.00    +0.176 C 
ATOM      6  C   UNL     1      35.459 -23.923 -15.267  0.00  0.00    +0.266 C 
ENDROOT
BRANCH   2   7
ATOM      7  O   UNL     1      34.758 -25.040 -11.744  0.00  0.00    -0.379 OA
ATOM      8  H   UNL     1      34.039 -24.444 -11.480  0.00  0.00    +0.211 HD
ENDBRANCH   2   7
BRANCH   3   9
ATOM      9  O   UNL     1      37.629 -25.262 -11.988  0.00  0.00    -0.379 OA
ATOM     10  H   UNL     1      37.323 -25.846 -11.278  0.00  0.00    +0.211 HD
ENDBRANCH   3   9
BRANCH   4  11
ATOM     11  O   UNL     1      33.682 -23.238 -13.813  0.00  0.00    -0.378 OA
ATOM     12  H   UNL     1      33.696 -22.982 -12.878  0.00  0.00    +0.211 HD
ENDBRANCH   4  11
BRANCH   6  13
ATOM     13  O   UNL     1      34.591 -23.938 -16.400  0.00  0.00    -0.329 OA
BRANCH  13  14
ATOM     14  C   UNL     1      34.743 -22.767 -17.189  0.00  0.00    +0.145 C 
BRANCH  14  15
ATOM     15  C   UNL     1      33.723 -22.799 -18.319  0.00  0.00    +0.032 C 
BRANCH  15  16
ATOM     16  C   UNL     1      34.062 -21.790 -19.414  0.00  0.00    +0.003 C 
BRANCH  16  17
ATOM     17  C   UNL     1      32.903 -20.818 -19.651  0.00  0.00    +0.000 C 
BRANCH  17  18
ATOM     18  C   UNL     1      33.109 -19.911 -20.867  0.00  0.00    +0.000 C 
BRANCH  18  19
ATOM     19  C   UNL     1      34.582 -19.663 -21.197  0.00  0.00    +0.000 C 
ATOM     20  C   UNL     1      34.767 -19.290 -22.660  0.00  0.00    +0.000 C 
ENDBRANCH  18  19
ENDBRANCH  17  18
ENDBRANCH  16  17
ENDBRANCH  15  16
ENDBRANCH  14  15
ENDBRANCH  13  14
ENDBRANCH   6  13
BRANCH   5  21
ATOM     21  C   UNL     1      38.569 -25.830 -14.735  0.00  0.00    +0.169 C 
BRANCH  21  22
ATOM     22  O   UNL     1      38.154 -27.158 -14.474  0.00  0.00    -0.379 OA
ATOM     23  H   UNL     1      38.932 -27.722 -14.344  0.00  0.00    +0.211 HD
ENDBRANCH  21  22
ENDBRANCH   5  21
TORSDOF 12
ENDMDL
MODEL 4
REMARK VINA RESULT:      -7.5      2.138      3.714
REMARK  Name = 448173
REMARK  12 active torsions:
REMARK  status: ('A' for Active; 'I' for Inactive)
REMARK    1  A    between atoms: C_2  and  O_7
REMARK    2  A    between atoms: C_3  and  O_9
REMARK    3  A    between atoms: C_4  and  O_11
REMARK    4  A    between atoms: C_5  and  C_21
REMARK    5  A    between atoms: C_6  and  O_13
REMARK    6  A    between atoms: O_13  and  C_14
REMARK    7  A    between atoms: C_14  and  C_15
REMARK    8  A    between atoms: C_15  and  C_16
REMARK    9  A    between atoms: C_16  and  C_17
REMARK   10  A    between atoms: C_17  and  C_18
REMARK   11  A    between atoms: C_18  and  C_19
REMARK   12  A    between atoms: C_21  and  O_22
REMARK                            x       y       z     vdW  Elec       q    Type
REMARK                         _______ _______ _______ _____ _____    ______ ____
ROOT
ATOM      1  O   UNL     1      35.405 -23.666 -14.657  0.00  0.00    -0.326 OA
ATOM      2  C   UNL     1      36.927 -24.618 -12.414  0.00  0.00    +0.172 C 
ATOM      3  C   UNL     1      35.434 -24.300 -12.317  0.00  0.00    +0.169 C 
ATOM      4  C   UNL     1      37.575 -23.881 -13.586  0.00  0.00    +0.196 C 
ATOM      5  C   UNL     1      34.752 -24.475 -13.676  0.00  0.00    +0.176 C 
ATOM      6  C   UNL     1      36.761 -24.053 -14.870  0.00  0.00    +0.266 C 
ENDROOT
BRANCH   2   7
ATOM      7  O   UNL     1      37.547 -24.208 -11.194  0.00  0.00    -0.379 OA
ATOM      8  H   UNL     1      38.502 -24.114 -11.333  0.00  0.00    +0.211 HD
ENDBRANCH   2   7
BRANCH   3   9
ATOM      9  O   UNL     1      34.827 -25.173 -11.368  0.00  0.00    -0.379 OA
ATOM     10  H   UNL     1      33.884 -25.264 -11.571  0.00  0.00    +0.211 HD
ENDBRANCH   3   9
BRANCH   4  11
ATOM     11  O   UNL     1      38.882 -24.408 -13.813  0.00  0.00    -0.378 OA
ATOM     12  H   UNL     1      39.480 -24.097 -13.117  0.00  0.00    +0.211 HD
ENDBRANCH   4  11
BRANCH   6  13
ATOM     13  O   UNL     1      37.345 -23.226 -15.875  0.00  0.00    -0.329 OA
BRANCH  13  14
ATOM     14  C   UNL     1      36.406 -22.295 -16.395  0.00  0.00    +0.145 C 
BRANCH  14  15
ATOM     15  C   UNL     1      36.975 -21.681 -17.667  0.00  0.00    +0.032 C 
BRANCH  15  16
ATOM     16  C   UNL     1      35.983 -21.764 -18.826  0.00  0.00    +0.003 C 
BRANCH  16  17
ATOM     17  C   UNL     1      36.355 -20.786 -19.944  0.00  0.00    +0.000 C 
BRANCH  17  18
ATOM     18  C   UNL     1      35.140 -20.200 -20.668  0.00  0.00    +0.000 C 
BRANCH  18  19
ATOM     19  C   UNL     1      33.804 -20.713 -20.128  0.00  0.00    +0.000 C 
ATOM     20  C   UNL     1      32.652 -19.815 -20.551  0.00  0.00    +0.000 C 
ENDBRANCH  18  19
ENDBRANCH  17  18
ENDBRANCH  16  17
ENDBRANCH  15  16
ENDBRANCH  14  15
ENDBRANCH  13  14
ENDBRANCH   6  13
BRANCH   5  21
ATOM     21  C   UNL     1      33.288 -24.050 -13.631  0.00  0.00    +0.169 C 
BRANCH  21  22
ATOM     22  O   UNL     1      32.519 -25.131 -13.136  0.00  0.00    -0.379 OA
ATOM     23  H   UNL     1      31.886 -25.415 -13.813  0.00  0.00    +0.211 HD
ENDBRANCH  21  22
ENDBRANCH   5  21
TORSDOF 12
ENDMDL
MODEL 5
REMARK VINA RESULT:      -7.4      3.676      4.913
REMARK  Name = 448173
REMARK  12 active torsions:
REMARK  status: ('A' for Active; 'I' for Inactive)
REMARK    1  A    between atoms: C_2  and  O_7
REMARK    2  A    between atoms: C_3  and  O_9
REMARK    3  A    between atoms: C_4  and  O_11
REMARK    4  A    between atoms: C_5  and  C_21
REMARK    5  A    between atoms: C_6  and  O_13
REMARK    6  A    between atoms: O_13  and  C_14
REMARK    7  A    between atoms: C_14  and  C_15
REMARK    8  A    between atoms: C_15  and  C_16
REMARK    9  A    between atoms: C_16  and  C_17
REMARK   10  A    between atoms: C_17  and  C_18
REMARK   11  A    between atoms: C_18  and  C_19
REMARK   12  A    between atoms: C_21  and  O_22
REMARK                            x       y       z     vdW  Elec       q    Type
REMARK                         _______ _______ _______ _____ _____    ______ ____
ROOT
ATOM      1  O   UNL     1      35.770 -24.102 -13.952  0.00  0.00    -0.326 OA
ATOM      2  C   UNL     1      37.395 -26.469 -14.045  0.00  0.00    +0.172 C 
ATOM      3  C   UNL     1      37.538 -25.418 -12.943  0.00  0.00    +0.169 C 
ATOM      4  C   UNL     1      36.746 -25.875 -15.295  0.00  0.00    +0.196 C 
ATOM      5  C   UNL     1      36.217 -24.678 -12.723  0.00  0.00    +0.176 C 
ATOM      6  C   UNL     1      35.484 -25.085 -14.945  0.00  0.00    +0.266 C 
ENDROOT
BRANCH   2   7
ATOM      7  O   UNL     1      38.700 -26.949 -14.370  0.00  0.00    -0.379 OA
ATOM      8  H   UNL     1      39.280 -26.198 -14.570  0.00  0.00    +0.211 HD
ENDBRANCH   2   7
BRANCH   3   9
ATOM      9  O   UNL     1      37.929 -26.057 -11.731  0.00  0.00    -0.379 OA
ATOM     10  H   UNL     1      37.767 -25.461 -10.984  0.00  0.00    +0.211 HD
ENDBRANCH   3   9
BRANCH   4  11
ATOM     11  O   UNL     1      36.380 -26.929 -16.186  0.00  0.00    -0.378 OA
ATOM     12  H   UNL     1      36.485 -26.628 -17.101  0.00  0.00    +0.211 HD
ENDBRANCH   4  11
BRANCH   6  13
ATOM     13  O   UNL     1      35.021 -24.447 -16.135  0.00  0.00    -0.329 OA
BRANCH  13  14
ATOM     14  C   UNL     1      34.142 -23.370 -15.840  0.00  0.00    +0.145 C 
BRANCH  14  15
ATOM     15  C   UNL     1      33.188 -23.180 -17.011  0.00  0.00    +0.032 C 
BRANCH  15  16
ATOM     16  C   UNL     1      31.730 -23.181 -16.556  0.00  0.00    +0.003 C 
BRANCH  16  17
ATOM     17  C   UNL     1      31.623 -23.053 -15.035  0.00  0.00    +0.000 C 
BRANCH  17  18
ATOM     18  C   UNL     1      30.179 -22.999 -14.529  0.00  0.00    +0.000 C 
BRANCH  18  19
ATOM     19  C   UNL     1      29.164 -23.560 -15.526  0.00  0.00    +0.000 C 
ATOM     20  C   UNL     1      28.095 -22.534 -15.868  0.00  0.00    +0.000 C 
ENDBRANCH  18  19
ENDBRANCH  17  18
ENDBRANCH  16  17
ENDBRANCH  15  16
ENDBRANCH  14  15
ENDBRANCH  13  14
ENDBRANCH   6  13
BRANCH   5  21
ATOM     21  C   UNL     1      36.366 -23.546 -11.712  0.00  0.00    +0.169 C 
BRANCH  21  22
ATOM     22  O   UNL     1      36.366 -24.102 -10.409  0.00  0.00    -0.379 OA
ATOM     23  H   UNL     1      35.667 -24.770 -10.342  0.00  0.00    +0.211 HD
ENDBRANCH  21  22
ENDBRANCH   5  21
TORSDOF 12
ENDMDL
MODEL 6
REMARK VINA RESULT:      -7.2      3.135      5.314
REMARK  Name = 448173
REMARK  12 active torsions:
REMARK  status: ('A' for Active; 'I' for Inactive)
REMARK    1  A    between atoms: C_2  and  O_7
REMARK    2  A    between atoms: C_3  and  O_9
REMARK    3  A    between atoms: C_4  and  O_11
REMARK    4  A    between atoms: C_5  and  C_21
REMARK    5  A    between atoms: C_6  and  O_13
REMARK    6  A    between atoms: O_13  and  C_14
REMARK    7  A    between atoms: C_14  and  C_15
REMARK    8  A    between atoms: C_15  and  C_16
REMARK    9  A    between atoms: C_16  and  C_17
REMARK   10  A    between atoms: C_17  and  C_18
REMARK   11  A    between atoms: C_18  and  C_19
REMARK   12  A    between atoms: C_21  and  O_22
REMARK                            x       y       z     vdW  Elec       q    Type
REMARK                         _______ _______ _______ _____ _____    ______ ____
ROOT
ATOM      1  O   UNL     1      32.487 -22.995 -16.679  0.00  0.00    -0.326 OA
ATOM      2  C   UNL     1      33.927 -23.933 -14.377  0.00  0.00    +0.172 C 
ATOM      3  C   UNL     1      32.469 -23.477 -14.303  0.00  0.00    +0.169 C 
ATOM      4  C   UNL     1      34.633 -23.333 -15.592  0.00  0.00    +0.196 C 
ATOM      5  C   UNL     1      31.769 -23.677 -15.649  0.00  0.00    +0.176 C 
ATOM      6  C   UNL     1      33.802 -23.514 -16.864  0.00  0.00    +0.266 C 
ENDROOT
BRANCH   2   7
ATOM      7  O   UNL     1      34.585 -23.502 -13.185  0.00  0.00    -0.379 OA
ATOM      8  H   UNL     1      35.537 -23.423 -13.352  0.00  0.00    +0.211 HD
ENDBRANCH   2   7
BRANCH   3   9
ATOM      9  O   UNL     1      31.790 -24.229 -13.301  0.00  0.00    -0.379 OA
ATOM     10  H   UNL     1      31.008 -24.652 -13.689  0.00  0.00    +0.211 HD
ENDBRANCH   3   9
BRANCH   4  11
ATOM     11  O   UNL     1      35.888 -23.988 -15.783  0.00  0.00    -0.378 OA
ATOM     12  H   UNL     1      35.828 -24.900 -15.459  0.00  0.00    +0.211 HD
ENDBRANCH   4  11
BRANCH   6  13
ATOM     13  O   UNL     1      34.455 -22.808 -17.919  0.00  0.00    -0.329 OA
BRANCH  13  14
ATOM     14  C   UNL     1      33.532 -22.394 -18.917  0.00  0.00    +0.145 C 
BRANCH  14  15
ATOM     15  C   UNL     1      34.156 -21.265 -19.725  0.00  0.00    +0.032 C 
BRANCH  15  16
ATOM     16  C   UNL     1      33.093 -20.342 -20.320  0.00  0.00    +0.003 C 
BRANCH  16  17
ATOM     17  C   UNL     1      33.732 -19.164 -21.059  0.00  0.00    +0.000 C 
BRANCH  17  18
ATOM     18  C   UNL     1      34.993 -19.547 -21.838  0.00  0.00    +0.000 C 
BRANCH  18  19
ATOM     19  C   UNL     1      35.337 -18.566 -22.959  0.00  0.00    +0.000 C 
ATOM     20  C   UNL     1      34.704 -18.985 -24.277  0.00  0.00    +0.000 C 
ENDBRANCH  18  19
ENDBRANCH  17  18
ENDBRANCH  16  17
ENDBRANCH  15  16
ENDBRANCH  14  15
ENDBRANCH  13  14
ENDBRANCH   6  13
BRANCH   5  21
ATOM     21  C   UNL     1      30.348 -23.121 -15.635  0.00  0.00    +0.169 C 
BRANCH  21  22
ATOM     22  O   UNL     1      30.067 -22.569 -16.907  0.00  0.00    -0.379 OA
ATOM     23  H   UNL     1      29.349 -21.922 -16.828  0.00  0.00    +0.211 HD
ENDBRANCH  21  22
ENDBRANCH   5  21
TORSDOF 12
ENDMDL
MODEL 7
REMARK VINA RESULT:      -7.2      3.917      4.734
REMARK  Name = 448173
REMARK  12 active torsions:
REMARK  status: ('A' for Active; 'I' for Inactive)
REMARK    1  A    between atoms: C_2  and  O_7
REMARK    2  A    between atoms: C_3  and  O_9
REMARK    3  A    between atoms: C_4  and  O_11
REMARK    4  A    between atoms: C_5  and  C_21
REMARK    5  A    between atoms: C_6  and  O_13
REMARK    6  A    between atoms: O_13  and  C_14
REMARK    7  A    between atoms: C_14  and  C_15
REMARK    8  A    between atoms: C_15  and  C_16
REMARK    9  A    between atoms: C_16  and  C_17
REMARK   10  A    between atoms: C_17  and  C_18
REMARK   11  A    between atoms: C_18  and  C_19
REMARK   12  A    between atoms: C_21  and  O_22
REMARK                            x       y       z     vdW  Elec       q    Type
REMARK                         _______ _______ _______ _____ _____    ______ ____
ROOT
ATOM      1  O   UNL     1      36.476 -24.675 -14.616  0.00  0.00    -0.326 OA
ATOM      2  C   UNL     1      35.791 -24.290 -11.853  0.00  0.00    +0.172 C 
ATOM      3  C   UNL     1      37.121 -24.904 -12.291  0.00  0.00    +0.169 C 
ATOM      4  C   UNL     1      34.730 -24.433 -12.945  0.00  0.00    +0.196 C 
ATOM      5  C   UNL     1      37.521 -24.401 -13.680  0.00  0.00    +0.176 C 
ATOM      6  C   UNL     1      35.268 -23.985 -14.305  0.00  0.00    +0.266 C 
ENDROOT
BRANCH   2   7
ATOM      7  O   UNL     1      35.355 -24.972 -10.676  0.00  0.00    -0.379 OA
ATOM      8  H   UNL     1      34.914 -24.343 -10.084  0.00  0.00    +0.211 HD
ENDBRANCH   2   7
BRANCH   3   9
ATOM      9  O   UNL     1      38.134 -24.550 -11.352  0.00  0.00    -0.379 OA
ATOM     10  H   UNL     1      38.798 -23.994 -11.787  0.00  0.00    +0.211 HD
ENDBRANCH   3   9
BRANCH   4  11
ATOM     11  O   UNL     1      33.603 -23.619 -12.621  0.00  0.00    -0.378 OA
ATOM     12  H   UNL     1      33.746 -22.721 -12.958  0.00  0.00    +0.211 HD
ENDBRANCH   4  11
BRANCH   6  13
ATOM     13  O   UNL     1      34.277 -24.281 -15.289  0.00  0.00    -0.329 OA
BRANCH  13  14
ATOM     14  C   UNL     1      34.147 -23.226 -16.232  0.00  0.00    +0.145 C 
BRANCH  14  15
ATOM     15  C   UNL     1      32.720 -23.212 -16.760  0.00  0.00    +0.032 C 
BRANCH  15  16
ATOM     16  C   UNL     1      31.741 -23.823 -15.759  0.00  0.00    +0.003 C 
BRANCH  16  17
ATOM     17  C   UNL     1      31.074 -22.742 -14.905  0.00  0.00    +0.000 C 
BRANCH  17  18
ATOM     18  C   UNL     1      29.556 -22.674 -15.086  0.00  0.00    +0.000 C 
BRANCH  18  19
ATOM     19  C   UNL     1      28.952 -23.965 -15.641  0.00  0.00    +0.000 C 
ATOM     20  C   UNL     1      28.210 -23.715 -16.945  0.00  0.00    +0.000 C 
ENDBRANCH  18  19
ENDBRANCH  17  18
ENDBRANCH  16  17
ENDBRANCH  15  16
ENDBRANCH  14  15
ENDBRANCH  13  14
ENDBRANCH   6  13
BRANCH   5  21
ATOM     21  C   UNL     1      38.784 -25.089 -14.187  0.00  0.00    +0.169 C 
BRANCH  21  22
ATOM     22  O   UNL     1      39.273 -24.368 -15.303  0.00  0.00    -0.379 OA
ATOM     23  H   UNL     1      38.564 -24.259 -15.955  0.00  0.00    +0.211 HD
ENDBRANCH  21  22
ENDBRANCH   5  21
TORSDOF 12
ENDMDL
MODEL 8
REMARK VINA RESULT:      -7.1      4.281      6.500
REMARK  Name = 448173
REMARK  12 active torsions:
REMARK  status: ('A' for Active; 'I' for Inactive)
REMARK    1  A    between atoms: C_2  and  O_7
REMARK    2  A    between atoms: C_3  and  O_9
REMARK    3  A    between atoms: C_4  and  O_11
REMARK    4  A    between atoms: C_5  and  C_21
REMARK    5  A    between atoms: C_6  and  O_13
REMARK    6  A    between atoms: O_13  and  C_14
REMARK    7  A    between atoms: C_14  and  C_15
REMARK    8  A    between atoms: C_15  and  C_16
REMARK    9  A    between atoms: C_16  and  C_17
REMARK   10  A    between atoms: C_17  and  C_18
REMARK   11  A    between atoms: C_18  and  C_19
REMARK   12  A    between atoms: C_21  and  O_22
REMARK                            x       y       z     vdW  Elec       q    Type
REMARK                         _______ _______ _______ _____ _____    ______ ____
ROOT
ATOM      1  O   UNL     1      30.889 -23.189 -16.441  0.00  0.00    -0.326 OA
ATOM      2  C   UNL     1      30.848 -24.880 -14.119  0.00  0.00    +0.172 C 
ATOM      3  C   UNL     1      29.592 -24.194 -14.656  0.00  0.00    +0.169 C 
ATOM      4  C   UNL     1      32.114 -24.156 -14.580  0.00  0.00    +0.196 C 
ATOM      5  C   UNL     1      29.709 -23.946 -16.162  0.00  0.00    +0.176 C 
ATOM      6  C   UNL     1      32.082 -23.884 -16.085  0.00  0.00    +0.266 C 
ENDROOT
BRANCH   2   7
ATOM      7  O   UNL     1      30.785 -24.864 -12.692  0.00  0.00    -0.379 OA
ATOM      8  H   UNL     1      31.606 -24.488 -12.337  0.00  0.00    +0.211 HD
ENDBRANCH   2   7
BRANCH   3   9
ATOM      9  O   UNL     1      28.459 -25.019 -14.401  0.00  0.00    -0.379 OA
ATOM     10  H   UNL     1      28.414 -25.723 -15.067  0.00  0.00    +0.211 HD
ENDBRANCH   3   9
BRANCH   4  11
ATOM     11  O   UNL     1      33.254 -24.968 -14.298  0.00  0.00    -0.378 OA
ATOM     12  H   UNL     1      33.867 -24.477 -13.730  0.00  0.00    +0.211 HD
ENDBRANCH   4  11
BRANCH   6  13
ATOM     13  O   UNL     1      33.220 -23.085 -16.411  0.00  0.00    -0.329 OA
BRANCH  13  14
ATOM     14  C   UNL     1      33.288 -22.822 -17.805  0.00  0.00    +0.145 C 
BRANCH  14  15
ATOM     15  C   UNL     1      34.696 -22.355 -18.148  0.00  0.00    +0.032 C 
BRANCH  15  16
ATOM     16  C   UNL     1      34.728 -21.575 -19.462  0.00  0.00    +0.003 C 
BRANCH  16  17
ATOM     17  C   UNL     1      33.313 -21.252 -19.949  0.00  0.00    +0.000 C 
BRANCH  17  18
ATOM     18  C   UNL     1      33.187 -19.856 -20.566  0.00  0.00    +0.000 C 
BRANCH  18  19
ATOM     19  C   UNL     1      34.521 -19.277 -21.036  0.00  0.00    +0.000 C 
ATOM     20  C   UNL     1      34.635 -19.305 -22.553  0.00  0.00    +0.000 C 
ENDBRANCH  18  19
ENDBRANCH  17  18
ENDBRANCH  16  17
ENDBRANCH  15  16
ENDBRANCH  14  15
ENDBRANCH  13  14
ENDBRANCH   6  13
BRANCH   5  21
ATOM     21  C   UNL     1      28.519 -23.158 -16.699  0.00  0.00    +0.169 C 
BRANCH  21  22
ATOM     22  O   UNL     1      28.186 -22.150 -15.763  0.00  0.00    -0.379 OA
ATOM     23  H   UNL     1      28.909 -21.506 -15.708  0.00  0.00    +0.211 HD
ENDBRANCH  21  22
ENDBRANCH   5  21
TORSDOF 12
ENDMDL
MODEL 9
REMARK VINA RESULT:      -7.0      7.252     11.579
REMARK  Name = 448173
REMARK  12 active torsions:
REMARK  status: ('A' for Active; 'I' for Inactive)
REMARK    1  A    between atoms: C_2  and  O_7
REMARK    2  A    between atoms: C_3  and  O_9
REMARK    3  A    between atoms: C_4  and  O_11
REMARK    4  A    between atoms: C_5  and  C_21
REMARK    5  A    between atoms: C_6  and  O_13
REMARK    6  A    between atoms: O_13  and  C_14
REMARK    7  A    between atoms: C_14  and  C_15
REMARK    8  A    between atoms: C_15  and  C_16
REMARK    9  A    between atoms: C_16  and  C_17
REMARK   10  A    between atoms: C_17  and  C_18
REMARK   11  A    between atoms: C_18  and  C_19
REMARK   12  A    between atoms: C_21  and  O_22
REMARK                            x       y       z     vdW  Elec       q    Type
REMARK                         _______ _______ _______ _____ _____    ______ ____
ROOT
ATOM      1  O   UNL     1      34.097 -15.890 -22.724  0.00  0.00    -0.326 OA
ATOM      2  C   UNL     1      33.780 -15.393 -25.535  0.00  0.00    +0.172 C 
ATOM      3  C   UNL     1      33.134 -14.508 -24.468  0.00  0.00    +0.169 C 
ATOM      4  C   UNL     1      34.100 -16.782 -24.983  0.00  0.00    +0.196 C 
ATOM      5  C   UNL     1      33.947 -14.541 -23.172  0.00  0.00    +0.176 C 
ATOM      6  C   UNL     1      34.834 -16.692 -23.643  0.00  0.00    +0.266 C 
ENDROOT
BRANCH   2   7
ATOM      7  O   UNL     1      32.862 -15.515 -26.623  0.00  0.00    -0.379 OA
ATOM      8  H   UNL     1      32.167 -14.844 -26.535  0.00  0.00    +0.211 HD
ENDBRANCH   2   7
BRANCH   3   9
ATOM      9  O   UNL     1      33.064 -13.168 -24.947  0.00  0.00    -0.379 OA
ATOM     10  H   UNL     1      32.398 -13.111 -25.650  0.00  0.00    +0.211 HD
ENDBRANCH   3   9
BRANCH   4  11
ATOM     11  O   UNL     1      34.939 -17.478 -25.905  0.00  0.00    -0.378 OA
ATOM     12  H   UNL     1      34.524 -18.320 -26.147  0.00  0.00    +0.211 HD
ENDBRANCH   4  11
BRANCH   6  13
ATOM     13  O   UNL     1      34.968 -18.016 -23.126  0.00  0.00    -0.329 OA
BRANCH  13  14
ATOM     14  C   UNL     1      34.703 -18.061 -21.732  0.00  0.00    +0.145 C 
BRANCH  14  15
ATOM     15  C   UNL     1      34.544 -19.513 -21.307  0.00  0.00    +0.032 C 
BRANCH  15  16
ATOM     16  C   UNL     1      33.149 -19.789 -20.747  0.00  0.00    +0.003 C 
BRANCH  16  17
ATOM     17  C   UNL     1      33.154 -21.010 -19.824  0.00  0.00    +0.000 C 
BRANCH  17  18
ATOM     18  C   UNL     1      34.560 -21.519 -19.496  0.00  0.00    +0.000 C 
BRANCH  18  19
ATOM     19  C   UNL     1      34.586 -22.549 -18.366  0.00  0.00    +0.000 C 
ATOM     20  C   UNL     1      33.183 -22.863 -17.869  0.00  0.00    +0.000 C 
ENDBRANCH  18  19
ENDBRANCH  17  18
ENDBRANCH  16  17
ENDBRANCH  15  16
ENDBRANCH  14  15
ENDBRANCH  13  14
ENDBRANCH   6  13
BRANCH   5  21
ATOM     21  C   UNL     1      33.261 -13.760 -22.056  0.00  0.00    +0.169 C 
BRANCH  21  22
ATOM     22  O   UNL     1      31.939 -13.458 -22.464  0.00  0.00    -0.379 OA
ATOM     23  H   UNL     1      31.309 -13.941 -21.907  0.00  0.00    +0.211 HD
ENDBRANCH  21  22
ENDBRANCH   5  21
TORSDOF 12
ENDMDL
