MODEL 1
REMARK VINA RESULT:     -10.8      0.000      0.000
REMARK  Name = 11691484
REMARK  7 active torsions:
REMARK  status: ('A' for Active; 'I' for Inactive)
REMARK    1  A    between atoms: C_3  and  O_22
REMARK    2  A    between atoms: C_4  and  O_7
REMARK    3  A    between atoms: N_9  and  C_12
REMARK    4  A    between atoms: C_15  and  S_18
REMARK    5  A    between atoms: O_22  and  C_25
REMARK    6  A    between atoms: C_30  and  O_31
REMARK    7  A    between atoms: O_31  and  C_32
REMARK                            x       y       z     vdW  Elec       q    Type
REMARK                         _______ _______ _______ _____ _____    ______ ____
ROOT
ATOM      1  N   UNL     1      31.558 -11.561 -20.311  0.00  0.00    -0.212 NA
ATOM      2  N   UNL     1      31.875  -9.207 -20.714  0.00  0.00    -0.231 NA
ATOM      3  C   UNL     1      31.898 -11.789 -21.597  0.00  0.00    +0.233 C 
ATOM      4  C   UNL     1      32.234 -10.792 -22.489  0.00  0.00    +0.244 C 
ATOM      5  C   UNL     1      32.206  -9.507 -21.987  0.00  0.00    +0.139 C 
ATOM      6  C   UNL     1      31.568 -10.267 -19.942  0.00  0.00    +0.254 C 
ATOM      7  N   UNL     1      32.542  -8.443 -22.860  0.00  0.00    -0.312 N 
ATOM      8  H   UNL     1      33.185  -8.692 -23.561  0.00  0.00    +0.149 HD
ENDROOT
BRANCH   7  10
ATOM      9  N   UNL     1      32.337  -4.902 -23.902  0.00  0.00    -0.390 NA
ATOM     10  C   UNL     1      32.134  -7.101 -22.917  0.00  0.00    +0.142 C 
ATOM     11  C   UNL     1      32.697  -6.201 -23.808  0.00  0.00    +0.111 C 
ATOM     12  C   UNL     1      31.137  -6.635 -22.066  0.00  0.00    +0.004 C 
ATOM     13  C   UNL     1      31.365  -4.486 -23.060  0.00  0.00    +0.234 C 
ATOM     14  C   UNL     1      30.739  -5.305 -22.133  0.00  0.00    +0.049 C 
ATOM     15  C   UNL     1      33.774  -6.641 -24.747  0.00  0.00    +0.064 C 
BRANCH  13  16
ATOM     16  S   UNL     1      30.968  -2.807 -23.255  0.00  0.00    +0.038 S 
ATOM     17  O   UNL     1      29.773  -2.524 -22.467  0.00  0.00    -0.166 OA
ATOM     18  O   UNL     1      32.167  -2.002 -23.048  0.00  0.00    -0.166 OA
ATOM     19  C   UNL     1      30.532  -2.643 -24.974  0.00  0.00    +0.185 C 
ENDBRANCH  13  16
ENDBRANCH   7  10
BRANCH   4  20
ATOM     20  O   UNL     1      32.568 -11.070 -23.772  0.00  0.00    -0.338 OA
ATOM     21  C   UNL     1      33.951 -10.977 -24.125  0.00  0.00    +0.175 C 
ENDBRANCH   4  20
BRANCH   3  22
ATOM     22  O   UNL     1      31.902 -13.097 -22.007  0.00  0.00    -0.465 OA
BRANCH  22  25
ATOM     23  O   UNL     1      35.032 -18.235 -23.147  0.00  0.00    -0.226 OA
ATOM     24  N   UNL     1      34.564 -16.306 -21.936  0.00  0.00    -0.246 N 
ATOM     25  C   UNL     1      33.137 -13.796 -21.908  0.00  0.00    +0.171 C 
ATOM     26  C   UNL     1      33.058 -14.772 -20.734  0.00  0.00    +0.065 C 
ATOM     27  C   UNL     1      33.417 -14.542 -23.214  0.00  0.00    +0.065 C 
ATOM     28  C   UNL     1      34.307 -15.644 -20.652  0.00  0.00    +0.100 C 
ATOM     29  C   UNL     1      34.659 -15.416 -23.094  0.00  0.00    +0.100 C 
ATOM     30  C   UNL     1      34.767 -17.682 -22.080  0.00  0.00    +0.405 C 
BRANCH  30  31
ATOM     31  O   UNL     1      34.641 -18.361 -20.898  0.00  0.00    -0.438 OA
BRANCH  31  32
ATOM     32  C   UNL     1      34.311 -19.751 -21.001  0.00  0.00    +0.171 C 
ATOM     33  C   UNL     1      32.876 -19.961 -20.541  0.00  0.00    +0.047 C 
ATOM     34  C   UNL     1      35.296 -20.563 -20.173  0.00  0.00    +0.047 C 
ENDBRANCH  31  32
ENDBRANCH  30  31
ENDBRANCH  22  25
ENDBRANCH   3  22
TORSDOF 7
ENDMDL
MODEL 2
REMARK VINA RESULT:     -10.3      2.585      5.280
REMARK  Name = 11691484
REMARK  7 active torsions:
REMARK  status: ('A' for Active; 'I' for Inactive)
REMARK    1  A    between atoms: C_3  and  O_22
REMARK    2  A    between atoms: C_4  and  O_7
REMARK    3  A    between atoms: N_9  and  C_12
REMARK    4  A    between atoms: C_15  and  S_18
REMARK    5  A    between atoms: O_22  and  C_25
REMARK    6  A    between atoms: C_30  and  O_31
REMARK    7  A    between atoms: O_31  and  C_32
REMARK                            x       y       z     vdW  Elec       q    Type
REMARK                         _______ _______ _______ _____ _____    ______ ____
ROOT
ATOM      1  N   UNL     1      35.176 -16.045 -23.322  0.00  0.00    -0.212 NA
ATOM      2  N   UNL     1      33.869 -14.078 -23.802  0.00  0.00    -0.231 NA
ATOM      3  C   UNL     1      34.816 -15.923 -22.027  0.00  0.00    +0.233 C 
ATOM      4  C   UNL     1      33.997 -14.920 -21.551  0.00  0.00    +0.244 C 
ATOM      5  C   UNL     1      33.549 -14.017 -22.493  0.00  0.00    +0.139 C 
ATOM      6  C   UNL     1      34.674 -15.102 -24.142  0.00  0.00    +0.254 C 
ATOM      7  N   UNL     1      32.704 -12.965 -22.059  0.00  0.00    -0.312 N 
ATOM      8  H   UNL     1      32.145 -13.198 -21.283  0.00  0.00    +0.149 HD
ENDROOT
BRANCH   7  10
ATOM      9  N   UNL     1      31.348  -9.540 -22.366  0.00  0.00    -0.390 NA
ATOM     10  C   UNL     1      32.510 -11.655 -22.523  0.00  0.00    +0.142 C 
ATOM     11  C   UNL     1      31.569 -10.809 -21.957  0.00  0.00    +0.111 C 
ATOM     12  C   UNL     1      33.272 -11.165 -23.579  0.00  0.00    +0.004 C 
ATOM     13  C   UNL     1      32.108  -9.100 -23.394  0.00  0.00    +0.234 C 
ATOM     14  C   UNL     1      33.073  -9.865 -24.028  0.00  0.00    +0.049 C 
ATOM     15  C   UNL     1      30.718 -11.277 -20.821  0.00  0.00    +0.064 C 
BRANCH  13  16
ATOM     16  S   UNL     1      31.755  -7.461 -23.848  0.00  0.00    +0.038 S 
ATOM     17  O   UNL     1      32.986  -6.844 -24.328  0.00  0.00    -0.166 OA
ATOM     18  O   UNL     1      30.568  -7.442 -24.696  0.00  0.00    -0.166 OA
ATOM     19  C   UNL     1      31.307  -6.657 -22.323  0.00  0.00    +0.185 C 
ENDBRANCH  13  16
ENDBRANCH   7  10
BRANCH   4  20
ATOM     20  O   UNL     1      33.662 -14.838 -20.241  0.00  0.00    -0.338 OA
ATOM     21  C   UNL     1      32.345 -15.257 -19.872  0.00  0.00    +0.175 C 
ENDBRANCH   4  20
BRANCH   3  22
ATOM     22  O   UNL     1      35.306 -16.867 -21.164  0.00  0.00    -0.465 OA
BRANCH  22  25
ATOM     23  O   UNL     1      32.626 -21.932 -19.004  0.00  0.00    -0.226 OA
ATOM     24  N   UNL     1      34.142 -20.787 -20.345  0.00  0.00    -0.246 N 
ATOM     25  C   UNL     1      34.922 -18.216 -21.403  0.00  0.00    +0.171 C 
ATOM     26  C   UNL     1      35.935 -19.144 -20.734  0.00  0.00    +0.065 C 
ATOM     27  C   UNL     1      33.516 -18.460 -20.849  0.00  0.00    +0.065 C 
ATOM     28  C   UNL     1      35.510 -20.605 -20.845  0.00  0.00    +0.100 C 
ATOM     29  C   UNL     1      33.128 -19.930 -20.959  0.00  0.00    +0.100 C 
ATOM     30  C   UNL     1      33.779 -21.741 -19.390  0.00  0.00    +0.405 C 
BRANCH  30  31
ATOM     31  O   UNL     1      34.851 -22.454 -18.921  0.00  0.00    -0.438 OA
BRANCH  31  32
ATOM     32  C   UNL     1      35.317 -22.107 -17.612  0.00  0.00    +0.171 C 
ATOM     33  C   UNL     1      36.831 -21.960 -17.641  0.00  0.00    +0.047 C 
ATOM     34  C   UNL     1      34.869 -23.171 -16.622  0.00  0.00    +0.047 C 
ENDBRANCH  31  32
ENDBRANCH  30  31
ENDBRANCH  22  25
ENDBRANCH   3  22
TORSDOF 7
ENDMDL
MODEL 3
REMARK VINA RESULT:     -10.3      4.581     12.078
REMARK  Name = 11691484
REMARK  7 active torsions:
REMARK  status: ('A' for Active; 'I' for Inactive)
REMARK    1  A    between atoms: C_3  and  O_22
REMARK    2  A    between atoms: C_4  and  O_7
REMARK    3  A    between atoms: N_9  and  C_12
REMARK    4  A    between atoms: C_15  and  S_18
REMARK    5  A    between atoms: O_22  and  C_25
REMARK    6  A    between atoms: C_30  and  O_31
REMARK    7  A    between atoms: O_31  and  C_32
REMARK                            x       y       z     vdW  Elec       q    Type
REMARK                         _______ _______ _______ _____ _____    ______ ____
ROOT
ATOM      1  N   UNL     1      34.134 -16.582 -25.694  0.00  0.00    -0.212 NA
ATOM      2  N   UNL     1      34.719 -18.184 -23.991  0.00  0.00    -0.231 NA
ATOM      3  C   UNL     1      33.824 -15.709 -24.714  0.00  0.00    +0.233 C 
ATOM      4  C   UNL     1      33.933 -15.996 -23.368  0.00  0.00    +0.244 C 
ATOM      5  C   UNL     1      34.391 -17.261 -23.064  0.00  0.00    +0.139 C 
ATOM      6  C   UNL     1      34.569 -17.783 -25.268  0.00  0.00    +0.254 C 
ATOM      7  N   UNL     1      34.522 -17.611 -21.696  0.00  0.00    -0.312 N 
ATOM      8  H   UNL     1      34.728 -16.849 -21.109  0.00  0.00    +0.149 HD
ENDROOT
BRANCH   7  10
ATOM      9  N   UNL     1      35.479 -20.744 -19.983  0.00  0.00    -0.390 NA
ATOM     10  C   UNL     1      34.415 -18.835 -21.018  0.00  0.00    +0.142 C 
ATOM     11  C   UNL     1      35.531 -19.563 -20.638  0.00  0.00    +0.111 C 
ATOM     12  C   UNL     1      33.163 -19.355 -20.705  0.00  0.00    +0.004 C 
ATOM     13  C   UNL     1      34.245 -21.217 -19.695  0.00  0.00    +0.234 C 
ATOM     14  C   UNL     1      33.068 -20.567 -20.031  0.00  0.00    +0.049 C 
ATOM     15  C   UNL     1      36.904 -19.058 -20.948  0.00  0.00    +0.064 C 
BRANCH  13  16
ATOM     16  S   UNL     1      34.278 -22.735 -18.852  0.00  0.00    +0.038 S 
ATOM     17  O   UNL     1      34.110 -23.805 -19.829  0.00  0.00    -0.166 OA
ATOM     18  O   UNL     1      35.427 -22.761 -17.953  0.00  0.00    -0.166 OA
ATOM     19  C   UNL     1      32.824 -22.710 -17.824  0.00  0.00    +0.185 C 
ENDBRANCH  13  16
ENDBRANCH   7  10
BRANCH   4  20
ATOM     20  O   UNL     1      33.608 -15.086 -22.419  0.00  0.00    -0.338 OA
ATOM     21  C   UNL     1      34.550 -14.873 -21.364  0.00  0.00    +0.175 C 
ENDBRANCH   4  20
BRANCH   3  22
ATOM     22  O   UNL     1      33.380 -14.474 -25.110  0.00  0.00    -0.465 OA
BRANCH  22  25
ATOM     23  O   UNL     1      31.123  -9.304 -22.730  0.00  0.00    -0.226 OA
ATOM     24  N   UNL     1      32.850 -10.732 -23.348  0.00  0.00    -0.246 N 
ATOM     25  C   UNL     1      33.549 -13.405 -24.187  0.00  0.00    +0.171 C 
ATOM     26  C   UNL     1      34.050 -12.175 -24.943  0.00  0.00    +0.065 C 
ATOM     27  C   UNL     1      32.219 -13.107 -23.490  0.00  0.00    +0.065 C 
ATOM     28  C   UNL     1      34.131 -10.956 -24.029  0.00  0.00    +0.100 C 
ATOM     29  C   UNL     1      32.328 -11.876 -22.599  0.00  0.00    +0.100 C 
ATOM     30  C   UNL     1      32.171  -9.510 -23.341  0.00  0.00    +0.405 C 
BRANCH  30  31
ATOM     31  O   UNL     1      32.799  -8.552 -24.092  0.00  0.00    -0.438 OA
BRANCH  31  32
ATOM     32  C   UNL     1      33.306  -7.420 -23.376  0.00  0.00    +0.171 C 
ATOM     33  C   UNL     1      32.650  -6.155 -23.908  0.00  0.00    +0.047 C 
ATOM     34  C   UNL     1      34.820  -7.375 -23.516  0.00  0.00    +0.047 C 
ENDBRANCH  31  32
ENDBRANCH  30  31
ENDBRANCH  22  25
ENDBRANCH   3  22
TORSDOF 7
ENDMDL
MODEL 4
REMARK VINA RESULT:     -10.3      1.439      2.074
REMARK  Name = 11691484
REMARK  7 active torsions:
REMARK  status: ('A' for Active; 'I' for Inactive)
REMARK    1  A    between atoms: C_3  and  O_22
REMARK    2  A    between atoms: C_4  and  O_7
REMARK    3  A    between atoms: N_9  and  C_12
REMARK    4  A    between atoms: C_15  and  S_18
REMARK    5  A    between atoms: O_22  and  C_25
REMARK    6  A    between atoms: C_30  and  O_31
REMARK    7  A    between atoms: O_31  and  C_32
REMARK                            x       y       z     vdW  Elec       q    Type
REMARK                         _______ _______ _______ _____ _____    ______ ____
ROOT
ATOM      1  N   UNL     1      33.772 -11.940 -23.499  0.00  0.00    -0.212 NA
ATOM      2  N   UNL     1      32.949  -9.773 -24.158  0.00  0.00    -0.231 NA
ATOM      3  C   UNL     1      32.736 -12.030 -22.639  0.00  0.00    +0.233 C 
ATOM      4  C   UNL     1      31.781 -11.047 -22.484  0.00  0.00    +0.244 C 
ATOM      5  C   UNL     1      31.939  -9.930 -23.278  0.00  0.00    +0.139 C 
ATOM      6  C   UNL     1      33.816 -10.801 -24.217  0.00  0.00    +0.254 C 
ATOM      7  N   UNL     1      30.986  -8.888 -23.161  0.00  0.00    -0.312 N 
ATOM      8  H   UNL     1      30.087  -9.198 -22.906  0.00  0.00    +0.149 HD
ENDROOT
BRANCH   7  10
ATOM      9  N   UNL     1      31.589  -5.313 -22.438  0.00  0.00    -0.390 NA
ATOM     10  C   UNL     1      31.076  -7.498 -23.338  0.00  0.00    +0.142 C 
ATOM     11  C   UNL     1      31.484  -6.655 -22.317  0.00  0.00    +0.111 C 
ATOM     12  C   UNL     1      30.752  -6.926 -24.564  0.00  0.00    +0.004 C 
ATOM     13  C   UNL     1      31.266  -4.793 -23.644  0.00  0.00    +0.234 C 
ATOM     14  C   UNL     1      30.847  -5.548 -24.727  0.00  0.00    +0.049 C 
ATOM     15  C   UNL     1      31.843  -7.210 -20.976  0.00  0.00    +0.064 C 
BRANCH  13  16
ATOM     16  S   UNL     1      31.432  -3.066 -23.706  0.00  0.00    +0.038 S 
ATOM     17  O   UNL     1      30.101  -2.481 -23.822  0.00  0.00    -0.166 OA
ATOM     18  O   UNL     1      32.314  -2.628 -22.630  0.00  0.00    -0.166 OA
ATOM     19  C   UNL     1      32.293  -2.750 -25.233  0.00  0.00    +0.185 C 
ENDBRANCH  13  16
ENDBRANCH   7  10
BRANCH   4  20
ATOM     20  O   UNL     1      30.758 -11.182 -21.606  0.00  0.00    -0.338 OA
ATOM     21  C   UNL     1      31.021 -10.861 -20.238  0.00  0.00    +0.175 C 
ENDBRANCH   4  20
BRANCH   3  22
ATOM     22  O   UNL     1      32.658 -13.177 -21.893  0.00  0.00    -0.465 OA
BRANCH  22  25
ATOM     23  O   UNL     1      34.514 -18.883 -23.113  0.00  0.00    -0.226 OA
ATOM     24  N   UNL     1      34.686 -16.816 -22.062  0.00  0.00    -0.246 N 
ATOM     25  C   UNL     1      33.746 -14.087 -22.001  0.00  0.00    +0.171 C 
ATOM     26  C   UNL     1      33.802 -14.941 -20.734  0.00  0.00    +0.065 C 
ATOM     27  C   UNL     1      33.565 -14.968 -23.239  0.00  0.00    +0.065 C 
ATOM     28  C   UNL     1      34.870 -16.024 -20.841  0.00  0.00    +0.100 C 
ATOM     29  C   UNL     1      34.636 -16.049 -23.308  0.00  0.00    +0.100 C 
ATOM     30  C   UNL     1      34.618 -18.212 -22.086  0.00  0.00    +0.405 C 
BRANCH  30  31
ATOM     31  O   UNL     1      34.679 -18.767 -20.836  0.00  0.00    -0.438 OA
BRANCH  31  32
ATOM     32  C   UNL     1      34.378 -20.164 -20.748  0.00  0.00    +0.171 C 
ATOM     33  C   UNL     1      32.978 -20.341 -20.180  0.00  0.00    +0.047 C 
ATOM     34  C   UNL     1      35.429 -20.850 -19.888  0.00  0.00    +0.047 C 
ENDBRANCH  31  32
ENDBRANCH  30  31
ENDBRANCH  22  25
ENDBRANCH   3  22
TORSDOF 7
ENDMDL
MODEL 5
REMARK VINA RESULT:     -10.2      6.518     13.775
REMARK  Name = 11691484
REMARK  7 active torsions:
REMARK  status: ('A' for Active; 'I' for Inactive)
REMARK    1  A    between atoms: C_3  and  O_22
REMARK    2  A    between atoms: C_4  and  O_7
REMARK    3  A    between atoms: N_9  and  C_12
REMARK    4  A    between atoms: C_15  and  S_18
REMARK    5  A    between atoms: O_22  and  C_25
REMARK    6  A    between atoms: C_30  and  O_31
REMARK    7  A    between atoms: O_31  and  C_32
REMARK                            x       y       z     vdW  Elec       q    Type
REMARK                         _______ _______ _______ _____ _____    ______ ____
ROOT
ATOM      1  N   UNL     1      33.360 -19.334 -21.436  0.00  0.00    -0.212 NA
ATOM      2  N   UNL     1      32.805 -20.936 -19.724  0.00  0.00    -0.231 NA
ATOM      3  C   UNL     1      34.640 -19.753 -21.362  0.00  0.00    +0.233 C 
ATOM      4  C   UNL     1      35.073 -20.744 -20.505  0.00  0.00    +0.244 C 
ATOM      5  C   UNL     1      34.102 -21.306 -19.702  0.00  0.00    +0.139 C 
ATOM      6  C   UNL     1      32.508 -19.959 -20.602  0.00  0.00    +0.254 C 
ATOM      7  N   UNL     1      34.491 -22.329 -18.802  0.00  0.00    -0.312 N 
ATOM      8  H   UNL     1      35.254 -22.866 -19.117  0.00  0.00    +0.149 HD
ENDROOT
BRANCH   7  10
ATOM      9  N   UNL     1      34.396 -23.206 -15.212  0.00  0.00    -0.390 NA
ATOM     10  C   UNL     1      33.999 -22.725 -17.549  0.00  0.00    +0.142 C 
ATOM     11  C   UNL     1      34.823 -22.832 -16.439  0.00  0.00    +0.111 C 
ATOM     12  C   UNL     1      32.650 -23.022 -17.388  0.00  0.00    +0.004 C 
ATOM     13  C   UNL     1      33.079 -23.487 -15.095  0.00  0.00    +0.234 C 
ATOM     14  C   UNL     1      32.173 -23.411 -16.141  0.00  0.00    +0.049 C 
ATOM     15  C   UNL     1      36.282 -22.528 -16.548  0.00  0.00    +0.064 C 
BRANCH  13  16
ATOM     16  S   UNL     1      32.624 -23.956 -13.486  0.00  0.00    +0.038 S 
ATOM     17  O   UNL     1      33.788 -24.546 -12.835  0.00  0.00    -0.166 OA
ATOM     18  O   UNL     1      31.929 -22.847 -12.841  0.00  0.00    -0.166 OA
ATOM     19  C   UNL     1      31.421 -25.249 -13.716  0.00  0.00    +0.185 C 
ENDBRANCH  13  16
ENDBRANCH   7  10
BRANCH   4  20
ATOM     20  O   UNL     1      36.371 -21.131 -20.465  0.00  0.00    -0.338 OA
ATOM     21  C   UNL     1      37.259 -20.367 -19.644  0.00  0.00    +0.175 C 
ENDBRANCH   4  20
BRANCH   3  22
ATOM     22  O   UNL     1      35.535 -19.140 -22.199  0.00  0.00    -0.465 OA
BRANCH  22  25
ATOM     23  O   UNL     1      32.556 -13.878 -21.238  0.00  0.00    -0.226 OA
ATOM     24  N   UNL     1      34.219 -15.183 -22.204  0.00  0.00    -0.246 N 
ATOM     25  C   UNL     1      35.597 -17.720 -22.142  0.00  0.00    +0.171 C 
ATOM     26  C   UNL     1      35.034 -17.149 -23.443  0.00  0.00    +0.065 C 
ATOM     27  C   UNL     1      34.798 -17.214 -20.939  0.00  0.00    +0.065 C 
ATOM     28  C   UNL     1      34.954 -15.626 -23.394  0.00  0.00    +0.100 C 
ATOM     29  C   UNL     1      34.723 -15.692 -20.928  0.00  0.00    +0.100 C 
ATOM     30  C   UNL     1      33.143 -14.291 -22.237  0.00  0.00    +0.405 C 
BRANCH  30  31
ATOM     31  O   UNL     1      32.804 -13.918 -23.510  0.00  0.00    -0.438 OA
BRANCH  31  32
ATOM     32  C   UNL     1      33.585 -12.866 -24.089  0.00  0.00    +0.171 C 
ATOM     33  C   UNL     1      33.114 -11.529 -23.537  0.00  0.00    +0.047 C 
ATOM     34  C   UNL     1      33.465 -12.928 -25.604  0.00  0.00    +0.047 C 
ENDBRANCH  31  32
ENDBRANCH  30  31
ENDBRANCH  22  25
ENDBRANCH   3  22
TORSDOF 7
ENDMDL
MODEL 6
REMARK VINA RESULT:     -10.1      6.339     10.269
REMARK  Name = 11691484
REMARK  7 active torsions:
REMARK  status: ('A' for Active; 'I' for Inactive)
REMARK    1  A    between atoms: C_3  and  O_22
REMARK    2  A    between atoms: C_4  and  O_7
REMARK    3  A    between atoms: N_9  and  C_12
REMARK    4  A    between atoms: C_15  and  S_18
REMARK    5  A    between atoms: O_22  and  C_25
REMARK    6  A    between atoms: C_30  and  O_31
REMARK    7  A    between atoms: O_31  and  C_32
REMARK                            x       y       z     vdW  Elec       q    Type
REMARK                         _______ _______ _______ _____ _____    ______ ____
ROOT
ATOM      1  N   UNL     1      32.945 -20.778 -19.713  0.00  0.00    -0.212 NA
ATOM      2  N   UNL     1      32.945 -18.752 -21.017  0.00  0.00    -0.231 NA
ATOM      3  C   UNL     1      34.265 -20.896 -19.965  0.00  0.00    +0.233 C 
ATOM      4  C   UNL     1      34.984 -19.995 -20.724  0.00  0.00    +0.244 C 
ATOM      5  C   UNL     1      34.265 -18.932 -21.229  0.00  0.00    +0.139 C 
ATOM      6  C   UNL     1      32.357 -19.698 -20.261  0.00  0.00    +0.254 C 
ATOM      7  N   UNL     1      34.953 -17.975 -22.016  0.00  0.00    -0.312 N 
ATOM      8  H   UNL     1      35.901 -17.869 -21.773  0.00  0.00    +0.149 HD
ENDROOT
BRANCH   7  10
ATOM      9  N   UNL     1      33.779 -14.995 -23.862  0.00  0.00    -0.390 NA
ATOM     10  C   UNL     1      34.544 -17.150 -23.075  0.00  0.00    +0.142 C 
ATOM     11  C   UNL     1      34.178 -15.829 -22.875  0.00  0.00    +0.111 C 
ATOM     12  C   UNL     1      34.497 -17.648 -24.373  0.00  0.00    +0.004 C 
ATOM     13  C   UNL     1      33.747 -15.515 -25.110  0.00  0.00    +0.234 C 
ATOM     14  C   UNL     1      34.092 -16.822 -25.415  0.00  0.00    +0.049 C 
ATOM     15  C   UNL     1      34.206 -15.235 -21.504  0.00  0.00    +0.064 C 
BRANCH  13  16
ATOM     16  S   UNL     1      33.226 -14.373 -26.310  0.00  0.00    +0.038 S 
ATOM     17  O   UNL     1      34.138 -14.453 -27.445  0.00  0.00    -0.166 OA
ATOM     18  O   UNL     1      31.792 -14.528 -26.531  0.00  0.00    -0.166 OA
ATOM     19  C   UNL     1      33.456 -12.780 -25.545  0.00  0.00    +0.185 C 
ENDBRANCH  13  16
ENDBRANCH   7  10
BRANCH   4  20
ATOM     20  O   UNL     1      36.310 -20.156 -20.951  0.00  0.00    -0.338 OA
ATOM     21  C   UNL     1      37.202 -19.247 -20.300  0.00  0.00    +0.175 C 
ENDBRANCH   4  20
BRANCH   3  22
ATOM     22  O   UNL     1      34.898 -21.983 -19.420  0.00  0.00    -0.465 OA
BRANCH  22  25
ATOM     23  O   UNL     1      38.644 -23.958 -14.998  0.00  0.00    -0.226 OA
ATOM     24  N   UNL     1      36.668 -23.025 -15.791  0.00  0.00    -0.246 N 
ATOM     25  C   UNL     1      35.325 -21.864 -18.069  0.00  0.00    +0.171 C 
ATOM     26  C   UNL     1      34.683 -22.982 -17.248  0.00  0.00    +0.065 C 
ATOM     27  C   UNL     1      36.852 -21.949 -17.998  0.00  0.00    +0.065 C 
ATOM     28  C   UNL     1      35.201 -22.987 -15.813  0.00  0.00    +0.100 C 
ATOM     29  C   UNL     1      37.336 -21.969 -16.553  0.00  0.00    +0.100 C 
ATOM     30  C   UNL     1      37.415 -23.953 -15.059  0.00  0.00    +0.405 C 
BRANCH  30  31
ATOM     31  O   UNL     1      36.631 -24.868 -14.408  0.00  0.00    -0.438 OA
BRANCH  31  32
ATOM     32  C   UNL     1      36.695 -24.850 -12.978  0.00  0.00    +0.171 C 
ATOM     33  C   UNL     1      37.228 -26.185 -12.482  0.00  0.00    +0.047 C 
ATOM     34  C   UNL     1      35.313 -24.548 -12.418  0.00  0.00    +0.047 C 
ENDBRANCH  31  32
ENDBRANCH  30  31
ENDBRANCH  22  25
ENDBRANCH   3  22
TORSDOF 7
ENDMDL
MODEL 7
REMARK VINA RESULT:      -9.8      4.451     11.979
REMARK  Name = 11691484
REMARK  7 active torsions:
REMARK  status: ('A' for Active; 'I' for Inactive)
REMARK    1  A    between atoms: C_3  and  O_22
REMARK    2  A    between atoms: C_4  and  O_7
REMARK    3  A    between atoms: N_9  and  C_12
REMARK    4  A    between atoms: C_15  and  S_18
REMARK    5  A    between atoms: O_22  and  C_25
REMARK    6  A    between atoms: C_30  and  O_31
REMARK    7  A    between atoms: O_31  and  C_32
REMARK                            x       y       z     vdW  Elec       q    Type
REMARK                         _______ _______ _______ _____ _____    ______ ____
ROOT
ATOM      1  N   UNL     1      32.923 -14.110 -21.224  0.00  0.00    -0.212 NA
ATOM      2  N   UNL     1      32.653 -16.463 -20.778  0.00  0.00    -0.231 NA
ATOM      3  C   UNL     1      33.855 -14.430 -22.146  0.00  0.00    +0.233 C 
ATOM      4  C   UNL     1      34.234 -15.725 -22.436  0.00  0.00    +0.244 C 
ATOM      5  C   UNL     1      33.592 -16.710 -21.714  0.00  0.00    +0.139 C 
ATOM      6  C   UNL     1      32.371 -15.160 -20.587  0.00  0.00    +0.254 C 
ATOM      7  N   UNL     1      33.942 -18.059 -21.971  0.00  0.00    -0.312 N 
ATOM      8  H   UNL     1      34.234 -18.225 -22.896  0.00  0.00    +0.149 HD
ENDROOT
BRANCH   7  10
ATOM      9  N   UNL     1      35.198 -20.855 -19.904  0.00  0.00    -0.390 NA
ATOM     10  C   UNL     1      33.955 -19.205 -21.160  0.00  0.00    +0.142 C 
ATOM     11  C   UNL     1      35.135 -19.756 -20.688  0.00  0.00    +0.111 C 
ATOM     12  C   UNL     1      32.760 -19.823 -20.803  0.00  0.00    +0.004 C 
ATOM     13  C   UNL     1      34.017 -21.429 -19.578  0.00  0.00    +0.234 C 
ATOM     14  C   UNL     1      32.784 -20.956 -19.998  0.00  0.00    +0.049 C 
ATOM     15  C   UNL     1      36.451 -19.139 -21.038  0.00  0.00    +0.064 C 
BRANCH  13  16
ATOM     16  S   UNL     1      34.197 -22.830 -18.569  0.00  0.00    +0.038 S 
ATOM     17  O   UNL     1      34.046 -24.017 -19.402  0.00  0.00    -0.166 OA
ATOM     18  O   UNL     1      35.393 -22.681 -17.747  0.00  0.00    -0.166 OA
ATOM     19  C   UNL     1      32.804 -22.768 -17.460  0.00  0.00    +0.185 C 
ENDBRANCH  13  16
ENDBRANCH   7  10
BRANCH   4  20
ATOM     20  O   UNL     1      35.176 -15.997 -23.371  0.00  0.00    -0.338 OA
ATOM     21  C   UNL     1      34.719 -16.324 -24.686  0.00  0.00    +0.175 C 
ENDBRANCH   4  20
BRANCH   3  22
ATOM     22  O   UNL     1      34.437 -13.386 -22.817  0.00  0.00    -0.465 OA
BRANCH  22  25
ATOM     23  O   UNL     1      33.229  -7.518 -24.082  0.00  0.00    -0.226 OA
ATOM     24  N   UNL     1      32.628  -9.723 -23.652  0.00  0.00    -0.246 N 
ATOM     25  C   UNL     1      33.559 -12.446 -23.425  0.00  0.00    +0.171 C 
ATOM     26  C   UNL     1      32.693 -11.807 -22.341  0.00  0.00    +0.065 C 
ATOM     27  C   UNL     1      34.372 -11.382 -24.167  0.00  0.00    +0.065 C 
ATOM     28  C   UNL     1      31.816 -10.696 -22.912  0.00  0.00    +0.100 C 
ATOM     29  C   UNL     1      33.471 -10.280 -24.710  0.00  0.00    +0.100 C 
ATOM     30  C   UNL     1      32.588  -8.343 -23.431  0.00  0.00    +0.405 C 
BRANCH  30  31
ATOM     31  O   UNL     1      31.750  -7.996 -22.405  0.00  0.00    -0.438 OA
BRANCH  31  32
ATOM     32  C   UNL     1      32.370  -7.422 -21.249  0.00  0.00    +0.171 C 
ATOM     33  C   UNL     1      32.186  -8.358 -20.064  0.00  0.00    +0.047 C 
ATOM     34  C   UNL     1      31.769  -6.050 -20.986  0.00  0.00    +0.047 C 
ENDBRANCH  31  32
ENDBRANCH  30  31
ENDBRANCH  22  25
ENDBRANCH   3  22
TORSDOF 7
ENDMDL
MODEL 8
REMARK VINA RESULT:      -9.6      5.878     13.643
REMARK  Name = 11691484
REMARK  7 active torsions:
REMARK  status: ('A' for Active; 'I' for Inactive)
REMARK    1  A    between atoms: C_3  and  O_22
REMARK    2  A    between atoms: C_4  and  O_7
REMARK    3  A    between atoms: N_9  and  C_12
REMARK    4  A    between atoms: C_15  and  S_18
REMARK    5  A    between atoms: O_22  and  C_25
REMARK    6  A    between atoms: C_30  and  O_31
REMARK    7  A    between atoms: O_31  and  C_32
REMARK                            x       y       z     vdW  Elec       q    Type
REMARK                         _______ _______ _______ _____ _____    ______ ____
ROOT
ATOM      1  N   UNL     1      33.279 -18.879 -21.653  0.00  0.00    -0.212 NA
ATOM      2  N   UNL     1      33.572 -20.761 -20.178  0.00  0.00    -0.231 NA
ATOM      3  C   UNL     1      34.584 -18.584 -21.477  0.00  0.00    +0.233 C 
ATOM      4  C   UNL     1      35.435 -19.321 -20.678  0.00  0.00    +0.244 C 
ATOM      5  C   UNL     1      34.868 -20.409 -20.047  0.00  0.00    +0.139 C 
ATOM      6  C   UNL     1      32.846 -19.964 -20.984  0.00  0.00    +0.254 C 
ATOM      7  N   UNL     1      35.696 -21.202 -19.213  0.00  0.00    -0.312 N 
ATOM      8  H   UNL     1      36.640 -21.219 -19.491  0.00  0.00    +0.149 HD
ENDROOT
BRANCH   7  10
ATOM      9  N   UNL     1      36.097 -22.734 -15.873  0.00  0.00    -0.390 NA
ATOM     10  C   UNL     1      35.429 -21.966 -18.067  0.00  0.00    +0.142 C 
ATOM     11  C   UNL     1      36.309 -22.015 -16.998  0.00  0.00    +0.111 C 
ATOM     12  C   UNL     1      34.254 -22.706 -17.976  0.00  0.00    +0.004 C 
ATOM     13  C   UNL     1      34.944 -23.439 -15.821  0.00  0.00    +0.234 C 
ATOM     14  C   UNL     1      34.000 -23.458 -16.835  0.00  0.00    +0.049 C 
ATOM     15  C   UNL     1      37.589 -21.244 -17.036  0.00  0.00    +0.064 C 
BRANCH  13  16
ATOM     16  S   UNL     1      34.756 -24.328 -14.341  0.00  0.00    +0.038 S 
ATOM     17  O   UNL     1      35.313 -25.662 -14.534  0.00  0.00    -0.166 OA
ATOM     18  O   UNL     1      35.227 -23.512 -13.227  0.00  0.00    -0.166 OA
ATOM     19  C   UNL     1      32.995 -24.502 -14.139  0.00  0.00    +0.185 C 
ENDBRANCH  13  16
ENDBRANCH   7  10
BRANCH   4  20
ATOM     20  O   UNL     1      36.739 -18.986 -20.531  0.00  0.00    -0.338 OA
ATOM     21  C   UNL     1      37.555 -18.993 -21.706  0.00  0.00    +0.175 C 
ENDBRANCH   4  20
BRANCH   3  22
ATOM     22  O   UNL     1      35.061 -17.487 -22.146  0.00  0.00    -0.465 OA
BRANCH  22  25
ATOM     23  O   UNL     1      33.912 -12.586 -25.632  0.00  0.00    -0.226 OA
ATOM     24  N   UNL     1      33.501 -14.011 -23.841  0.00  0.00    -0.246 N 
ATOM     25  C   UNL     1      34.093 -16.573 -22.649  0.00  0.00    +0.171 C 
ATOM     26  C   UNL     1      34.169 -15.280 -21.838  0.00  0.00    +0.065 C 
ATOM     27  C   UNL     1      34.360 -16.300 -24.131  0.00  0.00    +0.065 C 
ATOM     28  C   UNL     1      33.243 -14.211 -22.411  0.00  0.00    +0.100 C 
ATOM     29  C   UNL     1      33.432 -15.217 -24.667  0.00  0.00    +0.100 C 
ATOM     30  C   UNL     1      33.744 -12.765 -24.426  0.00  0.00    +0.405 C 
BRANCH  30  31
ATOM     31  O   UNL     1      33.776 -11.748 -23.509  0.00  0.00    -0.438 OA
BRANCH  31  32
ATOM     32  C   UNL     1      33.427 -10.447 -23.996  0.00  0.00    +0.171 C 
ATOM     33  C   UNL     1      34.690  -9.615 -24.156  0.00  0.00    +0.047 C 
ATOM     34  C   UNL     1      32.440  -9.801 -23.035  0.00  0.00    +0.047 C 
ENDBRANCH  31  32
ENDBRANCH  30  31
ENDBRANCH  22  25
ENDBRANCH   3  22
TORSDOF 7
ENDMDL
MODEL 9
REMARK VINA RESULT:      -9.6      2.750      5.263
REMARK  Name = 11691484
REMARK  7 active torsions:
REMARK  status: ('A' for Active; 'I' for Inactive)
REMARK    1  A    between atoms: C_3  and  O_22
REMARK    2  A    between atoms: C_4  and  O_7
REMARK    3  A    between atoms: N_9  and  C_12
REMARK    4  A    between atoms: C_15  and  S_18
REMARK    5  A    between atoms: O_22  and  C_25
REMARK    6  A    between atoms: C_30  and  O_31
REMARK    7  A    between atoms: O_31  and  C_32
REMARK                            x       y       z     vdW  Elec       q    Type
REMARK                         _______ _______ _______ _____ _____    ______ ____
ROOT
ATOM      1  N   UNL     1      33.965 -16.379 -25.595  0.00  0.00    -0.212 NA
ATOM      2  N   UNL     1      32.994 -14.230 -25.098  0.00  0.00    -0.231 NA
ATOM      3  C   UNL     1      34.513 -16.374 -24.361  0.00  0.00    +0.233 C 
ATOM      4  C   UNL     1      34.348 -15.348 -23.453  0.00  0.00    +0.244 C 
ATOM      5  C   UNL     1      33.570 -14.292 -23.880  0.00  0.00    +0.139 C 
ATOM      6  C   UNL     1      33.229 -15.292 -25.892  0.00  0.00    +0.254 C 
ATOM      7  N   UNL     1      33.367 -13.210 -22.988  0.00  0.00    -0.312 N 
ATOM      8  H   UNL     1      33.383 -13.469 -22.039  0.00  0.00    +0.149 HD
ENDROOT
BRANCH   7  10
ATOM      9  N   UNL     1      31.935  -9.818 -22.664  0.00  0.00    -0.390 NA
ATOM     10  C   UNL     1      33.150 -11.839 -23.197  0.00  0.00    +0.142 C 
ATOM     11  C   UNL     1      32.180 -11.137 -22.500  0.00  0.00    +0.111 C 
ATOM     12  C   UNL     1      33.917 -11.141 -24.124  0.00  0.00    +0.004 C 
ATOM     13  C   UNL     1      32.700  -9.173 -23.573  0.00  0.00    +0.234 C 
ATOM     14  C   UNL     1      33.694  -9.784 -24.321  0.00  0.00    +0.049 C 
ATOM     15  C   UNL     1      31.322 -11.831 -21.491  0.00  0.00    +0.064 C 
BRANCH  13  16
ATOM     16  S   UNL     1      32.316  -7.486 -23.714  0.00  0.00    +0.038 S 
ATOM     17  O   UNL     1      33.477  -6.796 -24.263  0.00  0.00    -0.166 OA
ATOM     18  O   UNL     1      31.021  -7.341 -24.371  0.00  0.00    -0.166 OA
ATOM     19  C   UNL     1      32.102  -6.931 -22.035  0.00  0.00    +0.185 C 
ENDBRANCH  13  16
ENDBRANCH   7  10
BRANCH   4  20
ATOM     20  O   UNL     1      34.919 -15.388 -22.225  0.00  0.00    -0.338 OA
ATOM     21  C   UNL     1      34.043 -15.397 -21.094  0.00  0.00    +0.175 C 
ENDBRANCH   4  20
BRANCH   3  22
ATOM     22  O   UNL     1      35.268 -17.467 -24.022  0.00  0.00    -0.465 OA
BRANCH  22  25
ATOM     23  O   UNL     1      36.914 -21.603 -19.817  0.00  0.00    -0.226 OA
ATOM     24  N   UNL     1      35.520 -19.958 -20.687  0.00  0.00    -0.246 N 
ATOM     25  C   UNL     1      35.242 -17.864 -22.656  0.00  0.00    +0.171 C 
ATOM     26  C   UNL     1      34.168 -18.936 -22.474  0.00  0.00    +0.065 C 
ATOM     27  C   UNL     1      36.616 -18.400 -22.246  0.00  0.00    +0.065 C 
ATOM     28  C   UNL     1      34.176 -19.497 -21.056  0.00  0.00    +0.100 C 
ATOM     29  C   UNL     1      36.587 -18.967 -20.832  0.00  0.00    +0.100 C 
ATOM     30  C   UNL     1      35.797 -21.228 -20.174  0.00  0.00    +0.405 C 
BRANCH  30  31
ATOM     31  O   UNL     1      34.686 -22.026 -20.107  0.00  0.00    -0.438 OA
BRANCH  31  32
ATOM     32  C   UNL     1      33.959 -21.994 -18.874  0.00  0.00    +0.171 C 
ATOM     33  C   UNL     1      33.853 -23.405 -18.317  0.00  0.00    +0.047 C 
ATOM     34  C   UNL     1      32.590 -21.375 -19.116  0.00  0.00    +0.047 C 
ENDBRANCH  31  32
ENDBRANCH  30  31
ENDBRANCH  22  25
ENDBRANCH   3  22
TORSDOF 7
ENDMDL
