MODEL 1
REMARK VINA RESULT:     -10.8      0.000      0.000
REMARK  Name = 24865390
REMARK  3 active torsions:
REMARK  status: ('A' for Active; 'I' for Inactive)
REMARK    1  A    between atoms: N_1  and  C_10
REMARK    2  A    between atoms: C_7  and  C_17
REMARK    3  A    between atoms: C_17  and  C_18
REMARK                            x       y       z     vdW  Elec       q    Type
REMARK                         _______ _______ _______ _____ _____    ______ ____
ROOT
ATOM      1  N   UNL     1      34.922 -23.554 -15.686  0.00  0.00    -0.202 N 
ATOM      2  N   UNL     1      34.952 -23.228 -16.991  0.00  0.00    -0.185 NA
ATOM      3  N   UNL     1      33.326 -23.845 -13.887  0.00  0.00    -0.232 NA
ATOM      4  N   UNL     1      31.041 -23.425 -14.632  0.00  0.00    -0.234 NA
ATOM      5  C   UNL     1      33.666 -23.560 -15.155  0.00  0.00    +0.136 C 
ATOM      6  C   UNL     1      32.813 -23.213 -16.188  0.00  0.00    +0.146 C 
ATOM      7  C   UNL     1      33.664 -23.021 -17.291  0.00  0.00    +0.072 C 
ATOM      8  C   UNL     1      31.455 -23.149 -15.892  0.00  0.00    +0.111 C 
ATOM      9  C   UNL     1      31.989 -23.751 -13.721  0.00  0.00    +0.252 C 
ATOM     10  N   UNL     1      30.512 -22.805 -16.877  0.00  0.00    -0.346 N 
ATOM     11  H   UNL     1      29.555 -22.765 -16.650  0.00  0.00    +0.143 HD
ATOM     12  H   UNL     1      30.809 -22.604 -17.794  0.00  0.00    +0.143 HD
ENDROOT
BRANCH   1  13
ATOM     13  C   UNL     1      36.235 -23.871 -14.952  0.00  0.00    +0.081 C 
ATOM     14  C   UNL     1      37.419 -23.225 -15.705  0.00  0.00    +0.022 C 
ATOM     15  C   UNL     1      36.443 -25.399 -14.896  0.00  0.00    +0.022 C 
ATOM     16  C   UNL     1      36.281 -23.349 -13.498  0.00  0.00    +0.022 C 
ENDBRANCH   1  13
BRANCH   7  17
ATOM     17  C   UNL     1      33.298 -22.638 -18.666  0.00  0.00    +0.070 C 
BRANCH  17  18
ATOM     18  C   UNL     1      34.276 -21.683 -19.338  0.00  0.00    -0.017 C 
ATOM     19  C   UNL     1      33.799 -20.619 -20.103  0.00  0.00    -0.008 C 
ATOM     20  C   UNL     1      35.650 -21.873 -19.189  0.00  0.00    -0.004 C 
ATOM     21  C   UNL     1      34.694 -19.746 -20.720  0.00  0.00    -0.022 C 
ATOM     22  C   UNL     1      36.546 -21.000 -19.804  0.00  0.00    -0.001 C 
ATOM     23  C   UNL     1      36.069 -19.936 -20.569  0.00  0.00    -0.004 C 
ATOM     24  C   UNL     1      34.185 -18.608 -21.539  0.00  0.00    +0.031 C 
ENDBRANCH  17  18
ENDBRANCH   7  17
TORSDOF 3
ENDMDL
MODEL 2
REMARK VINA RESULT:     -10.1      1.393      3.821
REMARK  Name = 24865390
REMARK  3 active torsions:
REMARK  status: ('A' for Active; 'I' for Inactive)
REMARK    1  A    between atoms: N_1  and  C_10
REMARK    2  A    between atoms: C_7  and  C_17
REMARK    3  A    between atoms: C_17  and  C_18
REMARK                            x       y       z     vdW  Elec       q    Type
REMARK                         _______ _______ _______ _____ _____    ______ ____
ROOT
ATOM      1  N   UNL     1      32.106 -23.267 -16.321  0.00  0.00    -0.202 N 
ATOM      2  N   UNL     1      32.388 -23.128 -17.630  0.00  0.00    -0.185 NA
ATOM      3  N   UNL     1      33.243 -23.424 -14.189  0.00  0.00    -0.232 NA
ATOM      4  N   UNL     1      35.666 -23.294 -14.447  0.00  0.00    -0.234 NA
ATOM      5  C   UNL     1      33.212 -23.296 -15.525  0.00  0.00    +0.136 C 
ATOM      6  C   UNL     1      34.297 -23.167 -16.375  0.00  0.00    +0.146 C 
ATOM      7  C   UNL     1      33.724 -23.068 -17.656  0.00  0.00    +0.072 C 
ATOM      8  C   UNL     1      35.561 -23.169 -15.793  0.00  0.00    +0.111 C 
ATOM      9  C   UNL     1      34.516 -23.413 -13.740  0.00  0.00    +0.252 C 
ATOM     10  N   UNL     1      36.722 -23.043 -16.575  0.00  0.00    -0.346 N 
ATOM     11  H   UNL     1      37.608 -23.046 -16.146  0.00  0.00    +0.143 HD
ATOM     12  H   UNL     1      36.649 -22.952 -17.552  0.00  0.00    +0.143 HD
ENDROOT
BRANCH   1  13
ATOM     13  C   UNL     1      30.640 -23.375 -15.869  0.00  0.00    +0.081 C 
ATOM     14  C   UNL     1      30.250 -24.862 -15.721  0.00  0.00    +0.022 C 
ATOM     15  C   UNL     1      29.722 -22.711 -16.917  0.00  0.00    +0.022 C 
ATOM     16  C   UNL     1      30.354 -22.692 -14.511  0.00  0.00    +0.022 C 
ENDBRANCH   1  13
BRANCH   7  17
ATOM     17  C   UNL     1      34.413 -22.913 -18.950  0.00  0.00    +0.070 C 
BRANCH  17  18
ATOM     18  C   UNL     1      34.177 -21.573 -19.635  0.00  0.00    -0.017 C 
ATOM     19  C   UNL     1      35.261 -20.818 -20.082  0.00  0.00    -0.008 C 
ATOM     20  C   UNL     1      32.878 -21.100 -19.814  0.00  0.00    -0.004 C 
ATOM     21  C   UNL     1      35.047 -19.591 -20.708  0.00  0.00    -0.022 C 
ATOM     22  C   UNL     1      32.662 -19.873 -20.440  0.00  0.00    -0.001 C 
ATOM     23  C   UNL     1      33.746 -19.118 -20.887  0.00  0.00    -0.004 C 
ATOM     24  C   UNL     1      36.205 -18.782 -21.186  0.00  0.00    +0.031 C 
ENDBRANCH  17  18
ENDBRANCH   7  17
TORSDOF 3
ENDMDL
MODEL 3
REMARK VINA RESULT:      -9.9      5.277      9.412
REMARK  Name = 24865390
REMARK  3 active torsions:
REMARK  status: ('A' for Active; 'I' for Inactive)
REMARK    1  A    between atoms: N_1  and  C_10
REMARK    2  A    between atoms: C_7  and  C_17
REMARK    3  A    between atoms: C_17  and  C_18
REMARK                            x       y       z     vdW  Elec       q    Type
REMARK                         _______ _______ _______ _____ _____    ______ ____
ROOT
ATOM      1  N   UNL     1      34.351 -15.689 -22.322  0.00  0.00    -0.202 N 
ATOM      2  N   UNL     1      34.986 -16.515 -21.470  0.00  0.00    -0.185 NA
ATOM      3  N   UNL     1      33.579 -15.634 -24.617  0.00  0.00    -0.232 NA
ATOM      4  N   UNL     1      34.091 -17.709 -25.792  0.00  0.00    -0.234 NA
ATOM      5  C   UNL     1      34.175 -16.219 -23.566  0.00  0.00    +0.136 C 
ATOM      6  C   UNL     1      34.734 -17.485 -23.524  0.00  0.00    +0.146 C 
ATOM      7  C   UNL     1      35.216 -17.607 -22.208  0.00  0.00    +0.072 C 
ATOM      8  C   UNL     1      34.679 -18.239 -24.691  0.00  0.00    +0.111 C 
ATOM      9  C   UNL     1      33.585 -16.457 -25.687  0.00  0.00    +0.252 C 
ATOM     10  N   UNL     1      35.221 -19.535 -24.745  0.00  0.00    -0.346 N 
ATOM     11  H   UNL     1      35.172 -20.056 -25.580  0.00  0.00    +0.143 HD
ATOM     12  H   UNL     1      35.648 -19.923 -23.948  0.00  0.00    +0.143 HD
ENDROOT
BRANCH   1  13
ATOM     13  C   UNL     1      33.909 -14.297 -21.841  0.00  0.00    +0.081 C 
ATOM     14  C   UNL     1      34.760 -13.873 -20.624  0.00  0.00    +0.022 C 
ATOM     15  C   UNL     1      32.421 -14.337 -21.432  0.00  0.00    +0.022 C 
ATOM     16  C   UNL     1      34.060 -13.190 -22.909  0.00  0.00    +0.022 C 
ENDBRANCH   1  13
BRANCH   7  17
ATOM     17  C   UNL     1      35.911 -18.755 -21.597  0.00  0.00    +0.070 C 
BRANCH  17  18
ATOM     18  C   UNL     1      35.001 -19.714 -20.841  0.00  0.00    -0.017 C 
ATOM     19  C   UNL     1      35.544 -20.612 -19.923  0.00  0.00    -0.008 C 
ATOM     20  C   UNL     1      33.626 -19.695 -21.066  0.00  0.00    -0.004 C 
ATOM     21  C   UNL     1      34.712 -21.491 -19.230  0.00  0.00    -0.022 C 
ATOM     22  C   UNL     1      32.792 -20.573 -20.374  0.00  0.00    -0.001 C 
ATOM     23  C   UNL     1      33.335 -21.471 -19.456  0.00  0.00    -0.004 C 
ATOM     24  C   UNL     1      35.292 -22.453 -18.248  0.00  0.00    +0.031 C 
ENDBRANCH  17  18
ENDBRANCH   7  17
TORSDOF 3
ENDMDL
MODEL 4
REMARK VINA RESULT:      -9.8      1.491      5.764
REMARK  Name = 24865390
REMARK  3 active torsions:
REMARK  status: ('A' for Active; 'I' for Inactive)
REMARK    1  A    between atoms: N_1  and  C_10
REMARK    2  A    between atoms: C_7  and  C_17
REMARK    3  A    between atoms: C_17  and  C_18
REMARK                            x       y       z     vdW  Elec       q    Type
REMARK                         _______ _______ _______ _____ _____    ______ ____
ROOT
ATOM      1  N   UNL     1      34.317 -22.609 -17.738  0.00  0.00    -0.202 N 
ATOM      2  N   UNL     1      35.440 -22.674 -16.999  0.00  0.00    -0.185 NA
ATOM      3  N   UNL     1      31.922 -22.864 -17.492  0.00  0.00    -0.232 NA
ATOM      4  N   UNL     1      31.305 -23.415 -15.197  0.00  0.00    -0.234 NA
ATOM      5  C   UNL     1      33.181 -22.859 -17.027  0.00  0.00    +0.136 C 
ATOM      6  C   UNL     1      33.591 -23.107 -15.728  0.00  0.00    +0.146 C 
ATOM      7  C   UNL     1      34.991 -22.979 -15.776  0.00  0.00    +0.072 C 
ATOM      8  C   UNL     1      32.599 -23.393 -14.796  0.00  0.00    +0.111 C 
ATOM      9  C   UNL     1      31.051 -23.153 -16.501  0.00  0.00    +0.252 C 
ATOM     10  N   UNL     1      32.919 -23.659 -13.453  0.00  0.00    -0.346 N 
ATOM     11  H   UNL     1      32.204 -23.859 -12.806  0.00  0.00    +0.143 HD
ATOM     12  H   UNL     1      33.858 -23.644 -13.159  0.00  0.00    +0.143 HD
ENDROOT
BRANCH   1  13
ATOM     13  C   UNL     1      34.413 -22.276 -19.236  0.00  0.00    +0.081 C 
ATOM     14  C   UNL     1      34.195 -23.558 -20.069  0.00  0.00    +0.022 C 
ATOM     15  C   UNL     1      35.809 -21.696 -19.552  0.00  0.00    +0.022 C 
ATOM     16  C   UNL     1      33.369 -21.240 -19.715  0.00  0.00    +0.022 C 
ENDBRANCH   1  13
BRANCH   7  17
ATOM     17  C   UNL     1      35.957 -23.137 -14.674  0.00  0.00    +0.070 C 
BRANCH  17  18
ATOM     18  C   UNL     1      36.747 -24.438 -14.707  0.00  0.00    -0.017 C 
ATOM     19  C   UNL     1      38.119 -24.428 -14.460  0.00  0.00    -0.008 C 
ATOM     20  C   UNL     1      36.098 -25.640 -14.986  0.00  0.00    -0.004 C 
ATOM     21  C   UNL     1      38.843 -25.619 -14.491  0.00  0.00    -0.022 C 
ATOM     22  C   UNL     1      36.821 -26.833 -15.017  0.00  0.00    -0.001 C 
ATOM     23  C   UNL     1      38.193 -26.822 -14.769  0.00  0.00    -0.004 C 
ATOM     24  C   UNL     1      40.311 -25.609 -14.226  0.00  0.00    +0.031 C 
ENDBRANCH  17  18
ENDBRANCH   7  17
TORSDOF 3
ENDMDL
MODEL 5
REMARK VINA RESULT:      -9.5      1.881      6.053
REMARK  Name = 24865390
REMARK  3 active torsions:
REMARK  status: ('A' for Active; 'I' for Inactive)
REMARK    1  A    between atoms: N_1  and  C_10
REMARK    2  A    between atoms: C_7  and  C_17
REMARK    3  A    between atoms: C_17  and  C_18
REMARK                            x       y       z     vdW  Elec       q    Type
REMARK                         _______ _______ _______ _____ _____    ______ ____
ROOT
ATOM      1  N   UNL     1      34.331 -22.742 -17.203  0.00  0.00    -0.202 N 
ATOM      2  N   UNL     1      33.218 -22.951 -16.476  0.00  0.00    -0.185 NA
ATOM      3  N   UNL     1      36.732 -22.616 -16.917  0.00  0.00    -0.232 NA
ATOM      4  N   UNL     1      37.383 -22.974 -14.593  0.00  0.00    -0.234 NA
ATOM      5  C   UNL     1      35.478 -22.786 -16.468  0.00  0.00    +0.136 C 
ATOM      6  C   UNL     1      35.087 -23.042 -15.165  0.00  0.00    +0.146 C 
ATOM      7  C   UNL     1      33.685 -23.132 -15.236  0.00  0.00    +0.072 C 
ATOM      8  C   UNL     1      36.093 -23.135 -14.209  0.00  0.00    +0.111 C 
ATOM      9  C   UNL     1      37.618 -22.728 -15.904  0.00  0.00    +0.252 C 
ATOM     10  N   UNL     1      35.793 -23.392 -12.860  0.00  0.00    -0.346 N 
ATOM     11  H   UNL     1      36.518 -23.455 -12.197  0.00  0.00    +0.143 HD
ATOM     12  H   UNL     1      34.857 -23.510 -12.579  0.00  0.00    +0.143 HD
ENDROOT
BRANCH   1  13
ATOM     13  C   UNL     1      34.213 -22.486 -18.715  0.00  0.00    +0.081 C 
ATOM     14  C   UNL     1      32.953 -21.639 -19.002  0.00  0.00    +0.022 C 
ATOM     15  C   UNL     1      34.101 -23.831 -19.463  0.00  0.00    +0.022 C 
ATOM     16  C   UNL     1      35.418 -21.727 -19.316  0.00  0.00    +0.022 C 
ENDBRANCH   1  13
BRANCH   7  17
ATOM     17  C   UNL     1      32.734 -23.393 -14.140  0.00  0.00    +0.070 C 
BRANCH  17  18
ATOM     18  C   UNL     1      31.348 -23.828 -14.596  0.00  0.00    -0.017 C 
ATOM     19  C   UNL     1      30.448 -22.885 -15.091  0.00  0.00    -0.008 C 
ATOM     20  C   UNL     1      30.977 -25.170 -14.517  0.00  0.00    -0.004 C 
ATOM     21  C   UNL     1      29.178 -23.282 -15.507  0.00  0.00    -0.022 C 
ATOM     22  C   UNL     1      29.708 -25.569 -14.934  0.00  0.00    -0.001 C 
ATOM     23  C   UNL     1      28.808 -24.626 -15.429  0.00  0.00    -0.004 C 
ATOM     24  C   UNL     1      28.215 -22.274 -16.037  0.00  0.00    +0.031 C 
ENDBRANCH  17  18
ENDBRANCH   7  17
TORSDOF 3
ENDMDL
MODEL 6
REMARK VINA RESULT:      -9.4      2.368      6.265
REMARK  Name = 24865390
REMARK  3 active torsions:
REMARK  status: ('A' for Active; 'I' for Inactive)
REMARK    1  A    between atoms: N_1  and  C_10
REMARK    2  A    between atoms: C_7  and  C_17
REMARK    3  A    between atoms: C_17  and  C_18
REMARK                            x       y       z     vdW  Elec       q    Type
REMARK                         _______ _______ _______ _____ _____    ______ ____
ROOT
ATOM      1  N   UNL     1      32.257 -23.713 -15.012  0.00  0.00    -0.202 N 
ATOM      2  N   UNL     1      33.122 -23.897 -13.998  0.00  0.00    -0.185 NA
ATOM      3  N   UNL     1      32.246 -23.016 -17.331  0.00  0.00    -0.232 NA
ATOM      4  N   UNL     1      34.488 -22.460 -18.117  0.00  0.00    -0.234 NA
ATOM      5  C   UNL     1      32.850 -23.282 -16.162  0.00  0.00    +0.136 C 
ATOM      6  C   UNL     1      34.200 -23.177 -15.879  0.00  0.00    +0.146 C 
ATOM      7  C   UNL     1      34.304 -23.568 -14.532  0.00  0.00    +0.072 C 
ATOM      8  C   UNL     1      35.031 -22.748 -16.909  0.00  0.00    +0.111 C 
ATOM      9  C   UNL     1      33.148 -22.610 -18.251  0.00  0.00    +0.252 C 
ATOM     10  N   UNL     1      36.417 -22.609 -16.716  0.00  0.00    -0.346 N 
ATOM     11  H   UNL     1      36.990 -22.306 -17.457  0.00  0.00    +0.143 HD
ATOM     12  H   UNL     1      36.814 -22.818 -15.840  0.00  0.00    +0.143 HD
ENDROOT
BRANCH   1  13
ATOM     13  C   UNL     1      30.761 -23.991 -14.793  0.00  0.00    +0.081 C 
ATOM     14  C   UNL     1      29.957 -22.686 -14.986  0.00  0.00    +0.022 C 
ATOM     15  C   UNL     1      30.534 -24.520 -13.361  0.00  0.00    +0.022 C 
ATOM     16  C   UNL     1      30.170 -25.036 -15.767  0.00  0.00    +0.022 C 
ENDBRANCH   1  13
BRANCH   7  17
ATOM     17  C   UNL     1      35.517 -23.648 -13.699  0.00  0.00    +0.070 C 
BRANCH  17  18
ATOM     18  C   UNL     1      36.506 -24.726 -14.123  0.00  0.00    -0.017 C 
ATOM     19  C   UNL     1      37.864 -24.576 -13.843  0.00  0.00    -0.008 C 
ATOM     20  C   UNL     1      36.053 -25.862 -14.792  0.00  0.00    -0.004 C 
ATOM     21  C   UNL     1      38.769 -25.562 -14.232  0.00  0.00    -0.022 C 
ATOM     22  C   UNL     1      36.958 -26.850 -15.181  0.00  0.00    -0.001 C 
ATOM     23  C   UNL     1      38.316 -26.700 -14.901  0.00  0.00    -0.004 C 
ATOM     24  C   UNL     1      40.222 -25.403 -13.933  0.00  0.00    +0.031 C 
ENDBRANCH  17  18
ENDBRANCH   7  17
TORSDOF 3
ENDMDL
MODEL 7
REMARK VINA RESULT:      -9.4      8.340     11.997
REMARK  Name = 24865390
REMARK  3 active torsions:
REMARK  status: ('A' for Active; 'I' for Inactive)
REMARK    1  A    between atoms: N_1  and  C_10
REMARK    2  A    between atoms: C_7  and  C_17
REMARK    3  A    between atoms: C_17  and  C_18
REMARK                            x       y       z     vdW  Elec       q    Type
REMARK                         _______ _______ _______ _____ _____    ______ ____
ROOT
ATOM      1  N   UNL     1      33.387 -14.939 -22.448  0.00  0.00    -0.202 N 
ATOM      2  N   UNL     1      32.831 -13.716 -22.365  0.00  0.00    -0.185 NA
ATOM      3  N   UNL     1      34.160 -16.510 -24.121  0.00  0.00    -0.232 NA
ATOM      4  N   UNL     1      33.853 -15.646 -26.381  0.00  0.00    -0.234 NA
ATOM      5  C   UNL     1      33.619 -15.346 -23.729  0.00  0.00    +0.136 C 
ATOM      6  C   UNL     1      33.182 -14.314 -24.542  0.00  0.00    +0.146 C 
ATOM      7  C   UNL     1      32.708 -13.341 -23.643  0.00  0.00    +0.072 C 
ATOM      8  C   UNL     1      33.313 -14.493 -25.915  0.00  0.00    +0.111 C 
ATOM      9  C   UNL     1      34.236 -16.569 -25.468  0.00  0.00    +0.252 C 
ATOM     10  N   UNL     1      32.898 -13.501 -26.820  0.00  0.00    -0.346 N 
ATOM     11  H   UNL     1      32.999 -13.644 -27.789  0.00  0.00    +0.143 HD
ATOM     12  H   UNL     1      32.506 -12.662 -26.485  0.00  0.00    +0.143 HD
ENDROOT
BRANCH   1  13
ATOM     13  C   UNL     1      33.693 -15.722 -21.161  0.00  0.00    +0.081 C 
ATOM     14  C   UNL     1      32.407 -15.855 -20.316  0.00  0.00    +0.022 C 
ATOM     15  C   UNL     1      34.765 -14.975 -20.340  0.00  0.00    +0.022 C 
ATOM     16  C   UNL     1      34.223 -17.153 -21.412  0.00  0.00    +0.022 C 
ENDBRANCH   1  13
BRANCH   7  17
ATOM     17  C   UNL     1      32.124 -12.024 -23.954  0.00  0.00    +0.070 C 
BRANCH  17  18
ATOM     18  C   UNL     1      33.130 -10.883 -24.006  0.00  0.00    -0.017 C 
ATOM     19  C   UNL     1      32.903  -9.719 -23.272  0.00  0.00    -0.008 C 
ATOM     20  C   UNL     1      34.279 -11.000 -24.787  0.00  0.00    -0.004 C 
ATOM     21  C   UNL     1      33.824  -8.672 -23.319  0.00  0.00    -0.022 C 
ATOM     22  C   UNL     1      35.201  -9.955 -24.835  0.00  0.00    -0.001 C 
ATOM     23  C   UNL     1      34.974  -8.791 -24.101  0.00  0.00    -0.004 C 
ATOM     24  C   UNL     1      33.582  -7.427 -22.535  0.00  0.00    +0.031 C 
ENDBRANCH  17  18
ENDBRANCH   7  17
TORSDOF 3
ENDMDL
MODEL 8
REMARK VINA RESULT:      -9.3     10.092     13.825
REMARK  Name = 24865390
REMARK  3 active torsions:
REMARK  status: ('A' for Active; 'I' for Inactive)
REMARK    1  A    between atoms: N_1  and  C_10
REMARK    2  A    between atoms: C_7  and  C_17
REMARK    3  A    between atoms: C_17  and  C_18
REMARK                            x       y       z     vdW  Elec       q    Type
REMARK                         _______ _______ _______ _____ _____    ______ ____
ROOT
ATOM      1  N   UNL     1      33.094  -9.098 -22.890  0.00  0.00    -0.202 N 
ATOM      2  N   UNL     1      32.627 -10.319 -23.212  0.00  0.00    -0.185 NA
ATOM      3  N   UNL     1      33.071  -7.537 -21.040  0.00  0.00    -0.232 NA
ATOM      4  N   UNL     1      31.818  -8.409 -19.137  0.00  0.00    -0.234 NA
ATOM      5  C   UNL     1      32.751  -8.698 -21.633  0.00  0.00    +0.136 C 
ATOM      6  C   UNL     1      32.005  -9.731 -21.093  0.00  0.00    +0.146 C 
ATOM      7  C   UNL     1      31.964 -10.699 -22.113  0.00  0.00    +0.072 C 
ATOM      8  C   UNL     1      31.532  -9.559 -19.796  0.00  0.00    +0.111 C 
ATOM      9  C   UNL     1      32.559  -7.483 -19.791  0.00  0.00    +0.252 C 
ATOM     10  N   UNL     1      30.765 -10.553 -19.164  0.00  0.00    -0.346 N 
ATOM     11  H   UNL     1      30.439 -10.415 -18.246  0.00  0.00    +0.143 HD
ATOM     12  H   UNL     1      30.556 -11.389 -19.640  0.00  0.00    +0.143 HD
ENDROOT
BRANCH   1  13
ATOM     13  C   UNL     1      33.926  -8.310 -23.915  0.00  0.00    +0.081 C 
ATOM     14  C   UNL     1      33.013  -7.325 -24.678  0.00  0.00    +0.022 C 
ATOM     15  C   UNL     1      34.571  -9.286 -24.922  0.00  0.00    +0.022 C 
ATOM     16  C   UNL     1      35.068  -7.479 -23.287  0.00  0.00    +0.022 C 
ENDBRANCH   1  13
BRANCH   7  17
ATOM     17  C   UNL     1      31.302 -12.015 -22.091  0.00  0.00    +0.070 C 
BRANCH  17  18
ATOM     18  C   UNL     1      32.250 -13.198 -21.944  0.00  0.00    -0.017 C 
ATOM     19  C   UNL     1      32.767 -13.823 -23.078  0.00  0.00    -0.008 C 
ATOM     20  C   UNL     1      32.601 -13.656 -20.675  0.00  0.00    -0.004 C 
ATOM     21  C   UNL     1      33.635 -14.906 -22.944  0.00  0.00    -0.022 C 
ATOM     22  C   UNL     1      33.469 -14.739 -20.538  0.00  0.00    -0.001 C 
ATOM     23  C   UNL     1      33.986 -15.364 -21.673  0.00  0.00    -0.004 C 
ATOM     24  C   UNL     1      34.188 -15.576 -24.156  0.00  0.00    +0.031 C 
ENDBRANCH  17  18
ENDBRANCH   7  17
TORSDOF 3
ENDMDL
MODEL 9
REMARK VINA RESULT:      -9.1     12.012     15.646
REMARK  Name = 24865390
REMARK  3 active torsions:
REMARK  status: ('A' for Active; 'I' for Inactive)
REMARK    1  A    between atoms: N_1  and  C_10
REMARK    2  A    between atoms: C_7  and  C_17
REMARK    3  A    between atoms: C_17  and  C_18
REMARK                            x       y       z     vdW  Elec       q    Type
REMARK                         _______ _______ _______ _____ _____    ______ ____
ROOT
ATOM      1  N   UNL     1      32.656 -10.334 -22.276  0.00  0.00    -0.202 N 
ATOM      2  N   UNL     1      33.140  -9.078 -22.248  0.00  0.00    -0.185 NA
ATOM      3  N   UNL     1      32.814 -12.348 -23.611  0.00  0.00    -0.232 NA
ATOM      4  N   UNL     1      34.309 -12.054 -25.516  0.00  0.00    -0.234 NA
ATOM      5  C   UNL     1      33.118 -11.072 -23.325  0.00  0.00    +0.136 C 
ATOM      6  C   UNL     1      33.966 -10.239 -24.035  0.00  0.00    +0.146 C 
ATOM      7  C   UNL     1      33.937  -9.026 -23.322  0.00  0.00    +0.072 C 
ATOM      8  C   UNL     1      34.572 -10.771 -25.169  0.00  0.00    +0.111 C 
ATOM      9  C   UNL     1      33.458 -12.752 -24.727  0.00  0.00    +0.252 C 
ATOM     10  N   UNL     1      35.448 -10.001 -25.953  0.00  0.00    -0.346 N 
ATOM     11  H   UNL     1      35.869 -10.393 -26.752  0.00  0.00    +0.143 HD
ATOM     12  H   UNL     1      35.641  -9.068 -25.704  0.00  0.00    +0.143 HD
ENDROOT
BRANCH   1  13
ATOM     13  C   UNL     1      31.679 -10.795 -21.182  0.00  0.00    +0.081 C 
ATOM     14  C   UNL     1      30.270 -10.977 -21.788  0.00  0.00    +0.022 C 
ATOM     15  C   UNL     1      31.618  -9.737 -20.061  0.00  0.00    +0.022 C 
ATOM     16  C   UNL     1      32.068 -12.138 -20.523  0.00  0.00    +0.022 C 
ENDBRANCH   1  13
BRANCH   7  17
ATOM     17  C   UNL     1      34.657  -7.777 -23.625  0.00  0.00    +0.070 C 
BRANCH  17  18
ATOM     18  C   UNL     1      33.834  -6.738 -24.375  0.00  0.00    -0.017 C 
ATOM     19  C   UNL     1      34.328  -6.172 -25.550  0.00  0.00    -0.008 C 
ATOM     20  C   UNL     1      32.586  -6.353 -23.887  0.00  0.00    -0.004 C 
ATOM     21  C   UNL     1      33.575  -5.220 -26.236  0.00  0.00    -0.022 C 
ATOM     22  C   UNL     1      31.831  -5.402 -24.573  0.00  0.00    -0.001 C 
ATOM     23  C   UNL     1      32.325  -4.835 -25.748  0.00  0.00    -0.004 C 
ATOM     24  C   UNL     1      34.102  -4.614 -27.493  0.00  0.00    +0.031 C 
ENDBRANCH  17  18
ENDBRANCH   7  17
TORSDOF 3
ENDMDL
