MODEL 1
REMARK VINA RESULT:     -10.7      0.000      0.000
REMARK  Name = 3035442
REMARK  10 active torsions:
REMARK  status: ('A' for Active; 'I' for Inactive)
REMARK    1  A    between atoms: C_1  and  N_11
REMARK    2  A    between atoms: C_9  and  O_25
REMARK    3  A    between atoms: N_11  and  C_14
REMARK    4  A    between atoms: C_14  and  C_15
REMARK    5  A    between atoms: C_15  and  C_17
REMARK    6  A    between atoms: C_15  and  O_23
REMARK    7  A    between atoms: O_25  and  C_26
REMARK    8  A    between atoms: C_26  and  C_28
REMARK    9  A    between atoms: C_28  and  O_29
REMARK   10  A    between atoms: O_29  and  C_30
REMARK                            x       y       z     vdW  Elec       q    Type
REMARK                         _______ _______ _______ _____ _____    ______ ____
ROOT
ATOM      1  C   UNL     1      35.169 -19.120 -21.987  0.00  0.00    -0.057 C 
ATOM      2  C   UNL     1      36.403 -18.969 -21.095  0.00  0.00    -0.016 C 
ATOM      3  C   UNL     1      33.936 -19.433 -21.128  0.00  0.00    +0.005 C 
ATOM      4  C   UNL     1      36.698 -20.283 -20.370  0.00  0.00    +0.024 C 
ATOM      5  C   UNL     1      34.178 -20.536 -20.126  0.00  0.00    -0.025 C 
ATOM      6  C   UNL     1      35.479 -20.906 -19.739  0.00  0.00    -0.026 C 
ATOM      7  C   UNL     1      33.076 -21.162 -19.524  0.00  0.00    +0.032 C 
ATOM      8  C   UNL     1      35.651 -21.921 -18.785  0.00  0.00    -0.001 C 
ATOM      9  C   UNL     1      33.260 -22.162 -18.571  0.00  0.00    +0.139 C 
ATOM     10  C   UNL     1      34.547 -22.543 -18.203  0.00  0.00    +0.037 C 
ENDROOT
BRANCH   1  11
ATOM     11  N   UNL     1      34.955 -17.897 -22.760  0.00  0.00    +0.387 N 
ATOM     12  H   UNL     1      34.579 -18.142 -23.676  0.00  0.00    -0.084 HD
ATOM     13  H   UNL     1      35.847 -17.413 -22.861  0.00  0.00    -0.084 HD
BRANCH  11  14
ATOM     14  C   UNL     1      34.018 -17.016 -22.081  0.00  0.00    -0.047 C 
BRANCH  14  15
ATOM     15  C   UNL     1      34.703 -15.708 -21.664  0.00  0.00    +0.112 C 
BRANCH  15  17
ATOM     16 CL   UNL     1      33.819 -11.864 -25.079  0.00  0.00    -0.082 Cl
ATOM     17  C   UNL     1      33.888 -14.501 -22.073  0.00  0.00    +0.003 C 
ATOM     18  C   UNL     1      34.194 -13.819 -23.250  0.00  0.00    +0.009 C 
ATOM     19  C   UNL     1      32.830 -14.071 -21.272  0.00  0.00    -0.002 C 
ATOM     20  C   UNL     1      33.442 -12.706 -23.626  0.00  0.00    +0.057 C 
ATOM     21  C   UNL     1      32.079 -12.958 -21.648  0.00  0.00    +0.001 C 
ATOM     22  C   UNL     1      32.384 -12.276 -22.826  0.00  0.00    +0.011 C 
ENDBRANCH  15  17
BRANCH  15  23
ATOM     23  O   UNL     1      34.877 -15.670 -20.248  0.00  0.00    -0.382 OA
ATOM     24  H   UNL     1      34.303 -14.985 -19.870  0.00  0.00    +0.211 HD
ENDBRANCH  15  23
ENDBRANCH  14  15
ENDBRANCH  11  14
ENDBRANCH   1  11
BRANCH   9  25
ATOM     25  O   UNL     1      32.183 -22.766 -17.999  0.00  0.00    -0.464 OA
BRANCH  25  26
ATOM     26  C   UNL     1      32.328 -23.219 -16.654  0.00  0.00    +0.314 C 
BRANCH  26  28
ATOM     27  O   UNL     1      30.817 -23.295 -14.761  0.00  0.00    -0.246 OA
ATOM     28  C   UNL     1      30.998 -23.113 -15.958  0.00  0.00    +0.362 C 
BRANCH  28  29
ATOM     29  O   UNL     1      30.041 -22.784 -16.875  0.00  0.00    -0.446 OA
BRANCH  29  30
ATOM     30  C   UNL     1      28.776 -23.431 -16.705  0.00  0.00    +0.209 C 
ATOM     31  C   UNL     1      27.758 -22.410 -16.246  0.00  0.00    +0.051 C 
ENDBRANCH  29  30
ENDBRANCH  28  29
ENDBRANCH  26  28
ENDBRANCH  25  26
ENDBRANCH   9  25
TORSDOF 10
ENDMDL
MODEL 2
REMARK VINA RESULT:     -10.6      4.079      5.660
REMARK  Name = 3035442
REMARK  10 active torsions:
REMARK  status: ('A' for Active; 'I' for Inactive)
REMARK    1  A    between atoms: C_1  and  N_11
REMARK    2  A    between atoms: C_9  and  O_25
REMARK    3  A    between atoms: N_11  and  C_14
REMARK    4  A    between atoms: C_14  and  C_15
REMARK    5  A    between atoms: C_15  and  C_17
REMARK    6  A    between atoms: C_15  and  O_23
REMARK    7  A    between atoms: O_25  and  C_26
REMARK    8  A    between atoms: C_26  and  C_28
REMARK    9  A    between atoms: C_28  and  O_29
REMARK   10  A    between atoms: O_29  and  C_30
REMARK                            x       y       z     vdW  Elec       q    Type
REMARK                         _______ _______ _______ _____ _____    ______ ____
ROOT
ATOM      1  C   UNL     1      35.056 -21.251 -19.301  0.00  0.00    -0.057 C 
ATOM      2  C   UNL     1      34.071 -22.421 -19.329  0.00  0.00    -0.016 C 
ATOM      3  C   UNL     1      36.317 -21.645 -18.518  0.00  0.00    +0.005 C 
ATOM      4  C   UNL     1      33.615 -22.764 -17.910  0.00  0.00    +0.024 C 
ATOM      5  C   UNL     1      36.010 -22.294 -17.190  0.00  0.00    -0.025 C 
ATOM      6  C   UNL     1      34.749 -22.857 -16.921  0.00  0.00    -0.026 C 
ATOM      7  C   UNL     1      37.026 -22.387 -16.227  0.00  0.00    +0.032 C 
ATOM      8  C   UNL     1      34.520 -23.471 -15.679  0.00  0.00    -0.001 C 
ATOM      9  C   UNL     1      36.789 -23.008 -15.002  0.00  0.00    +0.139 C 
ATOM     10  C   UNL     1      35.536 -23.547 -14.727  0.00  0.00    +0.037 C 
ENDROOT
BRANCH   1  11
ATOM     11  N   UNL     1      35.406 -20.857 -20.665  0.00  0.00    +0.387 N 
ATOM     12  H   UNL     1      35.220 -21.637 -21.297  0.00  0.00    -0.084 HD
ATOM     13  H   UNL     1      36.396 -20.609 -20.691  0.00  0.00    -0.084 HD
BRANCH  11  14
ATOM     14  C   UNL     1      34.624 -19.706 -21.087  0.00  0.00    -0.047 C 
BRANCH  14  15
ATOM     15  C   UNL     1      35.539 -18.540 -21.484  0.00  0.00    +0.112 C 
BRANCH  15  17
ATOM     16 CL   UNL     1      33.971 -14.255 -24.015  0.00  0.00    -0.082 Cl
ATOM     17  C   UNL     1      35.081 -17.891 -22.771  0.00  0.00    +0.003 C 
ATOM     18  C   UNL     1      34.772 -16.531 -22.797  0.00  0.00    +0.009 C 
ATOM     19  C   UNL     1      34.967 -18.653 -23.934  0.00  0.00    -0.002 C 
ATOM     20  C   UNL     1      34.351 -15.933 -23.984  0.00  0.00    +0.057 C 
ATOM     21  C   UNL     1      34.544 -18.056 -25.121  0.00  0.00    +0.001 C 
ATOM     22  C   UNL     1      34.237 -16.696 -25.146  0.00  0.00    +0.011 C 
ENDBRANCH  15  17
BRANCH  15  23
ATOM     23  O   UNL     1      35.547 -17.545 -20.461  0.00  0.00    -0.382 OA
ATOM     24  H   UNL     1      34.931 -16.834 -20.697  0.00  0.00    +0.211 HD
ENDBRANCH  15  23
ENDBRANCH  14  15
ENDBRANCH  11  14
ENDBRANCH   1  11
BRANCH   9  25
ATOM     25  O   UNL     1      37.782 -23.087 -14.075  0.00  0.00    -0.464 OA
BRANCH  25  26
ATOM     26  C   UNL     1      37.853 -24.282 -13.299  0.00  0.00    +0.314 C 
BRANCH  26  28
ATOM     27  O   UNL     1      40.036 -24.724 -14.254  0.00  0.00    -0.246 OA
ATOM     28  C   UNL     1      38.967 -25.143 -13.831  0.00  0.00    +0.362 C 
BRANCH  28  29
ATOM     29  O   UNL     1      38.587 -26.453 -13.764  0.00  0.00    -0.446 OA
BRANCH  29  30
ATOM     30  C   UNL     1      37.182 -26.695 -13.892  0.00  0.00    +0.209 C 
ATOM     31  C   UNL     1      36.843 -26.863 -15.357  0.00  0.00    +0.051 C 
ENDBRANCH  29  30
ENDBRANCH  28  29
ENDBRANCH  26  28
ENDBRANCH  25  26
ENDBRANCH   9  25
TORSDOF 10
ENDMDL
MODEL 3
REMARK VINA RESULT:     -10.5      3.912      9.782
REMARK  Name = 3035442
REMARK  10 active torsions:
REMARK  status: ('A' for Active; 'I' for Inactive)
REMARK    1  A    between atoms: C_1  and  N_11
REMARK    2  A    between atoms: C_9  and  O_25
REMARK    3  A    between atoms: N_11  and  C_14
REMARK    4  A    between atoms: C_14  and  C_15
REMARK    5  A    between atoms: C_15  and  C_17
REMARK    6  A    between atoms: C_15  and  O_23
REMARK    7  A    between atoms: O_25  and  C_26
REMARK    8  A    between atoms: C_26  and  C_28
REMARK    9  A    between atoms: C_28  and  O_29
REMARK   10  A    between atoms: O_29  and  C_30
REMARK                            x       y       z     vdW  Elec       q    Type
REMARK                         _______ _______ _______ _____ _____    ______ ____
ROOT
ATOM      1  C   UNL     1      33.773 -21.706 -18.812  0.00  0.00    -0.057 C 
ATOM      2  C   UNL     1      35.103 -22.331 -19.241  0.00  0.00    -0.016 C 
ATOM      3  C   UNL     1      33.190 -20.872 -19.961  0.00  0.00    +0.005 C 
ATOM      4  C   UNL     1      36.127 -21.239 -19.551  0.00  0.00    +0.024 C 
ATOM      5  C   UNL     1      34.200 -19.939 -20.585  0.00  0.00    -0.025 C 
ATOM      6  C   UNL     1      35.583 -20.137 -20.425  0.00  0.00    -0.026 C 
ATOM      7  C   UNL     1      33.744 -18.885 -21.392  0.00  0.00    +0.032 C 
ATOM      8  C   UNL     1      36.481 -19.255 -21.045  0.00  0.00    -0.001 C 
ATOM      9  C   UNL     1      34.647 -18.022 -22.010  0.00  0.00    +0.139 C 
ATOM     10  C   UNL     1      36.015 -18.205 -21.835  0.00  0.00    +0.037 C 
ENDROOT
BRANCH   1  11
ATOM     11  N   UNL     1      32.832 -22.752 -18.414  0.00  0.00    +0.387 N 
ATOM     12  H   UNL     1      32.748 -23.432 -19.170  0.00  0.00    -0.084 HD
ATOM     13  H   UNL     1      31.927 -22.323 -18.221  0.00  0.00    -0.084 HD
BRANCH  11  14
ATOM     14  C   UNL     1      33.292 -23.431 -17.213  0.00  0.00    -0.047 C 
BRANCH  14  15
ATOM     15  C   UNL     1      32.655 -22.817 -15.960  0.00  0.00    +0.112 C 
BRANCH  15  17
ATOM     16 CL   UNL     1      27.445 -22.546 -15.890  0.00  0.00    -0.082 Cl
ATOM     17  C   UNL     1      31.329 -23.468 -15.637  0.00  0.00    +0.003 C 
ATOM     18  C   UNL     1      30.138 -22.786 -15.883  0.00  0.00    +0.009 C 
ATOM     19  C   UNL     1      31.297 -24.752 -15.093  0.00  0.00    -0.002 C 
ATOM     20  C   UNL     1      28.915 -23.387 -15.586  0.00  0.00    +0.057 C 
ATOM     21  C   UNL     1      30.075 -25.353 -14.795  0.00  0.00    +0.001 C 
ATOM     22  C   UNL     1      28.884 -24.671 -15.041  0.00  0.00    +0.011 C 
ENDBRANCH  15  17
BRANCH  15  23
ATOM     23  O   UNL     1      33.518 -22.979 -14.835  0.00  0.00    -0.382 OA
ATOM     24  H   UNL     1      33.101 -23.574 -14.192  0.00  0.00    +0.211 HD
ENDBRANCH  15  23
ENDBRANCH  14  15
ENDBRANCH  11  14
ENDBRANCH   1  11
BRANCH   9  25
ATOM     25  O   UNL     1      34.191 -17.000 -22.786  0.00  0.00    -0.464 OA
BRANCH  25  26
ATOM     26  C   UNL     1      35.045 -16.550 -23.836  0.00  0.00    +0.314 C 
BRANCH  26  28
ATOM     27  O   UNL     1      34.439 -18.303 -25.396  0.00  0.00    -0.246 OA
ATOM     28  C   UNL     1      34.548 -17.111 -25.142  0.00  0.00    +0.362 C 
BRANCH  28  29
ATOM     29  O   UNL     1      34.245 -16.078 -25.982  0.00  0.00    -0.446 OA
BRANCH  29  30
ATOM     30  C   UNL     1      33.349 -15.096 -25.454  0.00  0.00    +0.209 C 
ATOM     31  C   UNL     1      32.941 -14.152 -26.564  0.00  0.00    +0.051 C 
ENDBRANCH  29  30
ENDBRANCH  28  29
ENDBRANCH  26  28
ENDBRANCH  25  26
ENDBRANCH   9  25
TORSDOF 10
ENDMDL
MODEL 4
REMARK VINA RESULT:     -10.3      4.592     10.690
REMARK  Name = 3035442
REMARK  10 active torsions:
REMARK  status: ('A' for Active; 'I' for Inactive)
REMARK    1  A    between atoms: C_1  and  N_11
REMARK    2  A    between atoms: C_9  and  O_25
REMARK    3  A    between atoms: N_11  and  C_14
REMARK    4  A    between atoms: C_14  and  C_15
REMARK    5  A    between atoms: C_15  and  C_17
REMARK    6  A    between atoms: C_15  and  O_23
REMARK    7  A    between atoms: O_25  and  C_26
REMARK    8  A    between atoms: C_26  and  C_28
REMARK    9  A    between atoms: C_28  and  O_29
REMARK   10  A    between atoms: O_29  and  C_30
REMARK                            x       y       z     vdW  Elec       q    Type
REMARK                         _______ _______ _______ _____ _____    ______ ____
ROOT
ATOM      1  C   UNL     1      33.494 -15.554 -22.533  0.00  0.00    -0.057 C 
ATOM      2  C   UNL     1      33.854 -15.485 -21.048  0.00  0.00    -0.016 C 
ATOM      3  C   UNL     1      33.490 -14.143 -23.138  0.00  0.00    +0.005 C 
ATOM      4  C   UNL     1      32.799 -14.685 -20.282  0.00  0.00    +0.024 C 
ATOM      5  C   UNL     1      32.720 -13.145 -22.306  0.00  0.00    -0.025 C 
ATOM      6  C   UNL     1      32.431 -13.385 -20.950  0.00  0.00    -0.026 C 
ATOM      7  C   UNL     1      32.336 -11.927 -22.888  0.00  0.00    +0.032 C 
ATOM      8  C   UNL     1      31.733 -12.415 -20.214  0.00  0.00    -0.001 C 
ATOM      9  C   UNL     1      31.652 -10.968 -22.142  0.00  0.00    +0.139 C 
ATOM     10  C   UNL     1      31.348 -11.213 -20.806  0.00  0.00    +0.037 C 
ENDROOT
BRANCH   1  11
ATOM     11  N   UNL     1      34.445 -16.409 -23.242  0.00  0.00    +0.387 N 
ATOM     12  H   UNL     1      34.984 -15.840 -23.895  0.00  0.00    -0.084 HD
ATOM     13  H   UNL     1      33.927 -17.129 -23.745  0.00  0.00    -0.084 HD
BRANCH  11  14
ATOM     14  C   UNL     1      35.355 -17.053 -22.308  0.00  0.00    -0.047 C 
BRANCH  14  15
ATOM     15  C   UNL     1      35.511 -18.543 -22.638  0.00  0.00    +0.112 C 
BRANCH  15  17
ATOM     16 CL   UNL     1      36.054 -21.907 -18.686  0.00  0.00    -0.082 Cl
ATOM     17  C   UNL     1      34.869 -19.414 -21.581  0.00  0.00    +0.003 C 
ATOM     18  C   UNL     1      35.665 -20.171 -20.722  0.00  0.00    +0.009 C 
ATOM     19  C   UNL     1      33.479 -19.460 -21.466  0.00  0.00    -0.002 C 
ATOM     20  C   UNL     1      35.072 -20.974 -19.748  0.00  0.00    +0.057 C 
ATOM     21  C   UNL     1      32.886 -20.264 -20.492  0.00  0.00    +0.001 C 
ATOM     22  C   UNL     1      33.682 -21.020 -19.633  0.00  0.00    +0.011 C 
ENDBRANCH  15  17
BRANCH  15  23
ATOM     23  O   UNL     1      34.900 -18.840 -23.893  0.00  0.00    -0.382 OA
ATOM     24  H   UNL     1      35.478 -18.541 -24.612  0.00  0.00    +0.211 HD
ENDBRANCH  15  23
ENDBRANCH  14  15
ENDBRANCH  11  14
ENDBRANCH   1  11
BRANCH   9  25
ATOM     25  O   UNL     1      31.281  -9.793 -22.720  0.00  0.00    -0.464 OA
BRANCH  25  26
ATOM     26  C   UNL     1      32.213  -9.184 -23.611  0.00  0.00    +0.314 C 
BRANCH  26  28
ATOM     27  O   UNL     1      31.244  -7.074 -24.306  0.00  0.00    -0.246 OA
ATOM     28  C   UNL     1      32.013  -7.692 -23.582  0.00  0.00    +0.362 C 
BRANCH  28  29
ATOM     29  O   UNL     1      32.822  -7.154 -22.623  0.00  0.00    -0.446 OA
BRANCH  29  30
ATOM     30  C   UNL     1      32.156  -6.680 -21.448  0.00  0.00    +0.209 C 
ATOM     31  C   UNL     1      32.597  -7.511 -20.263  0.00  0.00    +0.051 C 
ENDBRANCH  29  30
ENDBRANCH  28  29
ENDBRANCH  26  28
ENDBRANCH  25  26
ENDBRANCH   9  25
TORSDOF 10
ENDMDL
MODEL 5
REMARK VINA RESULT:     -10.3      3.461      9.349
REMARK  Name = 3035442
REMARK  10 active torsions:
REMARK  status: ('A' for Active; 'I' for Inactive)
REMARK    1  A    between atoms: C_1  and  N_11
REMARK    2  A    between atoms: C_9  and  O_25
REMARK    3  A    between atoms: N_11  and  C_14
REMARK    4  A    between atoms: C_14  and  C_15
REMARK    5  A    between atoms: C_15  and  C_17
REMARK    6  A    between atoms: C_15  and  O_23
REMARK    7  A    between atoms: O_25  and  C_26
REMARK    8  A    between atoms: C_26  and  C_28
REMARK    9  A    between atoms: C_28  and  O_29
REMARK   10  A    between atoms: O_29  and  C_30
REMARK                            x       y       z     vdW  Elec       q    Type
REMARK                         _______ _______ _______ _____ _____    ______ ____
ROOT
ATOM      1  C   UNL     1      33.744 -21.632 -18.930  0.00  0.00    -0.057 C 
ATOM      2  C   UNL     1      35.073 -22.281 -19.323  0.00  0.00    -0.016 C 
ATOM      3  C   UNL     1      33.201 -20.798 -20.099  0.00  0.00    +0.005 C 
ATOM      4  C   UNL     1      36.121 -21.207 -19.618  0.00  0.00    +0.024 C 
ATOM      5  C   UNL     1      34.238 -19.886 -20.707  0.00  0.00    -0.025 C 
ATOM      6  C   UNL     1      35.615 -20.105 -20.513  0.00  0.00    -0.026 C 
ATOM      7  C   UNL     1      33.818 -18.832 -21.532  0.00  0.00    +0.032 C 
ATOM      8  C   UNL     1      36.541 -19.242 -21.120  0.00  0.00    -0.001 C 
ATOM      9  C   UNL     1      34.748 -17.988 -22.137  0.00  0.00    +0.139 C 
ATOM     10  C   UNL     1      36.109 -18.191 -21.929  0.00  0.00    +0.037 C 
ENDROOT
BRANCH   1  11
ATOM     11  N   UNL     1      32.778 -22.660 -18.545  0.00  0.00    +0.387 N 
ATOM     12  H   UNL     1      32.592 -23.262 -19.347  0.00  0.00    -0.084 HD
ATOM     13  H   UNL     1      31.918 -22.203 -18.239  0.00  0.00    -0.084 HD
BRANCH  11  14
ATOM     14  C   UNL     1      33.292 -23.469 -17.451  0.00  0.00    -0.047 C 
BRANCH  14  15
ATOM     15  C   UNL     1      32.776 -22.954 -16.102  0.00  0.00    +0.112 C 
BRANCH  15  17
ATOM     16 CL   UNL     1      27.587 -22.717 -16.590  0.00  0.00    -0.082 Cl
ATOM     17  C   UNL     1      31.417 -23.530 -15.773  0.00  0.00    +0.003 C 
ATOM     18  C   UNL     1      30.263 -22.928 -16.274  0.00  0.00    +0.009 C 
ATOM     19  C   UNL     1      31.317 -24.665 -14.968  0.00  0.00    -0.002 C 
ATOM     20  C   UNL     1      29.010 -23.460 -15.971  0.00  0.00    +0.057 C 
ATOM     21  C   UNL     1      30.064 -25.197 -14.664  0.00  0.00    +0.001 C 
ATOM     22  C   UNL     1      28.911 -24.595 -15.166  0.00  0.00    +0.011 C 
ENDBRANCH  15  17
BRANCH  15  23
ATOM     23  O   UNL     1      33.678 -23.315 -15.056  0.00  0.00    -0.382 OA
ATOM     24  H   UNL     1      34.450 -22.727 -15.079  0.00  0.00    +0.211 HD
ENDBRANCH  15  23
ENDBRANCH  14  15
ENDBRANCH  11  14
ENDBRANCH   1  11
BRANCH   9  25
ATOM     25  O   UNL     1      34.327 -16.966 -22.931  0.00  0.00    -0.464 OA
BRANCH  25  26
ATOM     26  C   UNL     1      34.847 -15.668 -22.651  0.00  0.00    +0.314 C 
BRANCH  26  28
ATOM     27  O   UNL     1      34.836 -15.025 -20.314  0.00  0.00    -0.246 OA
ATOM     28  C   UNL     1      34.236 -15.163 -21.371  0.00  0.00    +0.362 C 
BRANCH  28  29
ATOM     29  O   UNL     1      32.915 -14.890 -21.587  0.00  0.00    -0.446 OA
BRANCH  29  30
ATOM     30  C   UNL     1      32.648 -13.830 -22.511  0.00  0.00    +0.209 C 
ATOM     31  C   UNL     1      31.960 -12.699 -21.778  0.00  0.00    +0.051 C 
ENDBRANCH  29  30
ENDBRANCH  28  29
ENDBRANCH  26  28
ENDBRANCH  25  26
ENDBRANCH   9  25
TORSDOF 10
ENDMDL
MODEL 6
REMARK VINA RESULT:     -10.2      3.902      5.385
REMARK  Name = 3035442
REMARK  10 active torsions:
REMARK  status: ('A' for Active; 'I' for Inactive)
REMARK    1  A    between atoms: C_1  and  N_11
REMARK    2  A    between atoms: C_9  and  O_25
REMARK    3  A    between atoms: N_11  and  C_14
REMARK    4  A    between atoms: C_14  and  C_15
REMARK    5  A    between atoms: C_15  and  C_17
REMARK    6  A    between atoms: C_15  and  O_23
REMARK    7  A    between atoms: O_25  and  C_26
REMARK    8  A    between atoms: C_26  and  C_28
REMARK    9  A    between atoms: C_28  and  O_29
REMARK   10  A    between atoms: O_29  and  C_30
REMARK                            x       y       z     vdW  Elec       q    Type
REMARK                         _______ _______ _______ _____ _____    ______ ____
ROOT
ATOM      1  C   UNL     1      35.322 -20.647 -19.859  0.00  0.00    -0.057 C 
ATOM      2  C   UNL     1      34.303 -21.763 -20.098  0.00  0.00    -0.016 C 
ATOM      3  C   UNL     1      36.483 -21.171 -19.003  0.00  0.00    +0.005 C 
ATOM      4  C   UNL     1      33.695 -22.220 -18.771  0.00  0.00    +0.024 C 
ATOM      5  C   UNL     1      36.022 -21.930 -17.782  0.00  0.00    -0.025 C 
ATOM      6  C   UNL     1      34.721 -22.459 -17.692  0.00  0.00    -0.026 C 
ATOM      7  C   UNL     1      36.933 -22.162 -16.740  0.00  0.00    +0.032 C 
ATOM      8  C   UNL     1      34.348 -23.178 -16.546  0.00  0.00    -0.001 C 
ATOM      9  C   UNL     1      36.553 -22.886 -15.612  0.00  0.00    +0.139 C 
ATOM     10  C   UNL     1      35.260 -23.392 -15.513  0.00  0.00    +0.037 C 
ENDROOT
BRANCH   1  11
ATOM     11  N   UNL     1      35.820 -20.139 -21.137  0.00  0.00    +0.387 N 
ATOM     12  H   UNL     1      36.143 -20.923 -21.705  0.00  0.00    -0.084 HD
ATOM     13  H   UNL     1      36.588 -19.493 -20.956  0.00  0.00    -0.084 HD
BRANCH  11  14
ATOM     14  C   UNL     1      34.772 -19.431 -21.855  0.00  0.00    -0.047 C 
BRANCH  14  15
ATOM     15  C   UNL     1      35.366 -18.328 -22.740  0.00  0.00    +0.112 C 
BRANCH  15  17
ATOM     16 CL   UNL     1      33.979 -13.433 -23.896  0.00  0.00    -0.082 Cl
ATOM     17  C   UNL     1      34.952 -16.954 -22.265  0.00  0.00    +0.003 C 
ATOM     18  C   UNL     1      34.688 -15.945 -23.192  0.00  0.00    +0.009 C 
ATOM     19  C   UNL     1      34.832 -16.694 -20.900  0.00  0.00    -0.002 C 
ATOM     20  C   UNL     1      34.305 -14.678 -22.753  0.00  0.00    +0.057 C 
ATOM     21  C   UNL     1      34.450 -15.427 -20.461  0.00  0.00    +0.001 C 
ATOM     22  C   UNL     1      34.186 -14.419 -21.388  0.00  0.00    +0.011 C 
ENDBRANCH  15  17
BRANCH  15  23
ATOM     23  O   UNL     1      36.792 -18.394 -22.724  0.00  0.00    -0.382 OA
ATOM     24  H   UNL     1      37.142 -17.675 -22.175  0.00  0.00    +0.211 HD
ENDBRANCH  15  23
ENDBRANCH  14  15
ENDBRANCH  11  14
ENDBRANCH   1  11
BRANCH   9  25
ATOM     25  O   UNL     1      37.445 -23.099 -14.606  0.00  0.00    -0.464 OA
BRANCH  25  26
ATOM     26  C   UNL     1      36.913 -23.384 -13.314  0.00  0.00    +0.314 C 
BRANCH  26  28
ATOM     27  O   UNL     1      37.805 -24.500 -11.356  0.00  0.00    -0.246 OA
ATOM     28  C   UNL     1      37.958 -24.103 -12.504  0.00  0.00    +0.362 C 
BRANCH  28  29
ATOM     29  O   UNL     1      39.090 -24.237 -13.256  0.00  0.00    -0.446 OA
BRANCH  29  30
ATOM     30  C   UNL     1      39.484 -25.582 -13.543  0.00  0.00    +0.209 C 
ATOM     31  C   UNL     1      40.205 -25.611 -14.873  0.00  0.00    +0.051 C 
ENDBRANCH  29  30
ENDBRANCH  28  29
ENDBRANCH  26  28
ENDBRANCH  25  26
ENDBRANCH   9  25
TORSDOF 10
ENDMDL
MODEL 7
REMARK VINA RESULT:     -10.2      3.752      6.844
REMARK  Name = 3035442
REMARK  10 active torsions:
REMARK  status: ('A' for Active; 'I' for Inactive)
REMARK    1  A    between atoms: C_1  and  N_11
REMARK    2  A    between atoms: C_9  and  O_25
REMARK    3  A    between atoms: N_11  and  C_14
REMARK    4  A    between atoms: C_14  and  C_15
REMARK    5  A    between atoms: C_15  and  C_17
REMARK    6  A    between atoms: C_15  and  O_23
REMARK    7  A    between atoms: O_25  and  C_26
REMARK    8  A    between atoms: C_26  and  C_28
REMARK    9  A    between atoms: C_28  and  O_29
REMARK   10  A    between atoms: O_29  and  C_30
REMARK                            x       y       z     vdW  Elec       q    Type
REMARK                         _______ _______ _______ _____ _____    ______ ____
ROOT
ATOM      1  C   UNL     1      32.064 -12.961 -22.238  0.00  0.00    -0.057 C 
ATOM      2  C   UNL     1      32.996 -12.552 -23.381  0.00  0.00    -0.016 C 
ATOM      3  C   UNL     1      32.849 -13.745 -21.177  0.00  0.00    +0.005 C 
ATOM      4  C   UNL     1      33.556 -13.792 -24.079  0.00  0.00    +0.024 C 
ATOM      5  C   UNL     1      33.709 -14.837 -21.764  0.00  0.00    -0.025 C 
ATOM      6  C   UNL     1      34.076 -14.835 -23.123  0.00  0.00    -0.026 C 
ATOM      7  C   UNL     1      34.202 -15.844 -20.920  0.00  0.00    +0.032 C 
ATOM      8  C   UNL     1      34.898 -15.860 -23.616  0.00  0.00    -0.001 C 
ATOM      9  C   UNL     1      35.026 -16.850 -21.420  0.00  0.00    +0.139 C 
ATOM     10  C   UNL     1      35.372 -16.860 -22.768  0.00  0.00    +0.037 C 
ENDROOT
BRANCH   1  11
ATOM     11  N   UNL     1      31.447 -11.776 -21.644  0.00  0.00    +0.387 N 
ATOM     12  H   UNL     1      31.890 -11.584 -20.745  0.00  0.00    -0.084 HD
ATOM     13  H   UNL     1      30.451 -11.955 -21.516  0.00  0.00    -0.084 HD
BRANCH  11  14
ATOM     14  C   UNL     1      31.607 -10.620 -22.511  0.00  0.00    -0.047 C 
BRANCH  14  15
ATOM     15  C   UNL     1      32.449  -9.536 -21.827  0.00  0.00    +0.112 C 
BRANCH  15  17
ATOM     16 CL   UNL     1      30.939  -5.418 -24.653  0.00  0.00    -0.082 Cl
ATOM     17  C   UNL     1      32.806  -8.423 -22.787  0.00  0.00    +0.003 C 
ATOM     18  C   UNL     1      31.822  -7.538 -23.226  0.00  0.00    +0.009 C 
ATOM     19  C   UNL     1      34.120  -8.283 -23.233  0.00  0.00    -0.002 C 
ATOM     20  C   UNL     1      32.152  -6.512 -24.111  0.00  0.00    +0.057 C 
ATOM     21  C   UNL     1      34.450  -7.257 -24.119  0.00  0.00    +0.001 C 
ATOM     22  C   UNL     1      33.466  -6.371 -24.558  0.00  0.00    +0.011 C 
ENDBRANCH  15  17
BRANCH  15  23
ATOM     23  O   UNL     1      31.729  -8.968 -20.733  0.00  0.00    -0.382 OA
ATOM     24  H   UNL     1      30.814  -9.289 -20.747  0.00  0.00    +0.211 HD
ENDBRANCH  15  23
ENDBRANCH  14  15
ENDBRANCH  11  14
ENDBRANCH   1  11
BRANCH   9  25
ATOM     25  O   UNL     1      35.493 -17.824 -20.591  0.00  0.00    -0.464 OA
BRANCH  25  26
ATOM     26  C   UNL     1      36.093 -18.965 -21.201  0.00  0.00    +0.314 C 
BRANCH  26  28
ATOM     27  O   UNL     1      36.646 -20.363 -19.300  0.00  0.00    -0.246 OA
ATOM     28  C   UNL     1      35.944 -20.145 -20.279  0.00  0.00    +0.362 C 
BRANCH  28  29
ATOM     29  O   UNL     1      34.908 -20.922 -20.714  0.00  0.00    -0.446 OA
BRANCH  29  30
ATOM     30  C   UNL     1      33.721 -20.868 -19.917  0.00  0.00    +0.209 C 
ATOM     31  C   UNL     1      32.719 -19.953 -20.588  0.00  0.00    +0.051 C 
ENDBRANCH  29  30
ENDBRANCH  28  29
ENDBRANCH  26  28
ENDBRANCH  25  26
ENDBRANCH   9  25
TORSDOF 10
ENDMDL
MODEL 8
REMARK VINA RESULT:     -10.2      4.030      9.822
REMARK  Name = 3035442
REMARK  10 active torsions:
REMARK  status: ('A' for Active; 'I' for Inactive)
REMARK    1  A    between atoms: C_1  and  N_11
REMARK    2  A    between atoms: C_9  and  O_25
REMARK    3  A    between atoms: N_11  and  C_14
REMARK    4  A    between atoms: C_14  and  C_15
REMARK    5  A    between atoms: C_15  and  C_17
REMARK    6  A    between atoms: C_15  and  O_23
REMARK    7  A    between atoms: O_25  and  C_26
REMARK    8  A    between atoms: C_26  and  C_28
REMARK    9  A    between atoms: C_28  and  O_29
REMARK   10  A    between atoms: O_29  and  C_30
REMARK                            x       y       z     vdW  Elec       q    Type
REMARK                         _______ _______ _______ _____ _____    ______ ____
ROOT
ATOM      1  C   UNL     1      35.325 -16.803 -22.894  0.00  0.00    -0.057 C 
ATOM      2  C   UNL     1      34.437 -16.839 -24.139  0.00  0.00    -0.016 C 
ATOM      3  C   UNL     1      34.515 -16.317 -21.685  0.00  0.00    +0.005 C 
ATOM      4  C   UNL     1      33.945 -15.431 -24.480  0.00  0.00    +0.024 C 
ATOM      5  C   UNL     1      33.714 -15.070 -21.972  0.00  0.00    -0.025 C 
ATOM      6  C   UNL     1      33.411 -14.678 -23.289  0.00  0.00    -0.026 C 
ATOM      7  C   UNL     1      33.211 -14.321 -20.897  0.00  0.00    +0.032 C 
ATOM      8  C   UNL     1      32.643 -13.523 -23.503  0.00  0.00    -0.001 C 
ATOM      9  C   UNL     1      32.441 -13.182 -21.123  0.00  0.00    +0.139 C 
ATOM     10  C   UNL     1      32.158 -12.781 -22.426  0.00  0.00    +0.037 C 
ENDROOT
BRANCH   1  11
ATOM     11  N   UNL     1      35.880 -18.131 -22.635  0.00  0.00    +0.387 N 
ATOM     12  H   UNL     1      36.895 -18.094 -22.729  0.00  0.00    -0.084 HD
ATOM     13  H   UNL     1      35.486 -18.788 -23.309  0.00  0.00    -0.084 HD
BRANCH  11  14
ATOM     14  C   UNL     1      35.542 -18.579 -21.294  0.00  0.00    -0.047 C 
BRANCH  14  15
ATOM     15  C   UNL     1      34.802 -19.922 -21.336  0.00  0.00    +0.112 C 
BRANCH  15  17
ATOM     16 CL   UNL     1      33.117 -23.197 -17.640  0.00  0.00    -0.082 Cl
ATOM     17  C   UNL     1      35.102 -20.759 -20.112  0.00  0.00    +0.003 C 
ATOM     18  C   UNL     1      34.089 -21.504 -19.510  0.00  0.00    +0.009 C 
ATOM     19  C   UNL     1      36.394 -20.785 -19.586  0.00  0.00    -0.002 C 
ATOM     20  C   UNL     1      34.366 -22.276 -18.382  0.00  0.00    +0.057 C 
ATOM     21  C   UNL     1      36.671 -21.556 -18.457  0.00  0.00    +0.001 C 
ATOM     22  C   UNL     1      35.658 -22.301 -17.856  0.00  0.00    +0.011 C 
ENDBRANCH  15  17
BRANCH  15  23
ATOM     23  O   UNL     1      33.392 -19.709 -21.396  0.00  0.00    -0.382 OA
ATOM     24  H   UNL     1      33.210 -18.889 -21.882  0.00  0.00    +0.211 HD
ENDBRANCH  15  23
ENDBRANCH  14  15
ENDBRANCH  11  14
ENDBRANCH   1  11
BRANCH   9  25
ATOM     25  O   UNL     1      31.964 -12.462 -20.072  0.00  0.00    -0.464 OA
BRANCH  25  26
ATOM     26  C   UNL     1      31.117 -11.354 -20.373  0.00  0.00    +0.314 C 
BRANCH  26  28
ATOM     27  O   UNL     1      32.277  -9.902 -18.817  0.00  0.00    -0.246 OA
ATOM     28  C   UNL     1      31.797 -10.087 -19.927  0.00  0.00    +0.362 C 
BRANCH  28  29
ATOM     29  O   UNL     1      31.786  -9.190 -20.958  0.00  0.00    -0.446 OA
BRANCH  29  30
ATOM     30  C   UNL     1      32.589  -8.021 -20.766  0.00  0.00    +0.209 C 
ATOM     31  C   UNL     1      33.261  -7.665 -22.075  0.00  0.00    +0.051 C 
ENDBRANCH  29  30
ENDBRANCH  28  29
ENDBRANCH  26  28
ENDBRANCH  25  26
ENDBRANCH   9  25
TORSDOF 10
ENDMDL
MODEL 9
REMARK VINA RESULT:     -10.0      3.191      4.062
REMARK  Name = 3035442
REMARK  10 active torsions:
REMARK  status: ('A' for Active; 'I' for Inactive)
REMARK    1  A    between atoms: C_1  and  N_11
REMARK    2  A    between atoms: C_9  and  O_25
REMARK    3  A    between atoms: N_11  and  C_14
REMARK    4  A    between atoms: C_14  and  C_15
REMARK    5  A    between atoms: C_15  and  C_17
REMARK    6  A    between atoms: C_15  and  O_23
REMARK    7  A    between atoms: O_25  and  C_26
REMARK    8  A    between atoms: C_26  and  C_28
REMARK    9  A    between atoms: C_28  and  O_29
REMARK   10  A    between atoms: O_29  and  C_30
REMARK                            x       y       z     vdW  Elec       q    Type
REMARK                         _______ _______ _______ _____ _____    ______ ____
ROOT
ATOM      1  C   UNL     1      35.182 -18.106 -21.969  0.00  0.00    -0.057 C 
ATOM      2  C   UNL     1      34.035 -18.981 -22.477  0.00  0.00    -0.016 C 
ATOM      3  C   UNL     1      36.286 -18.987 -21.366  0.00  0.00    +0.005 C 
ATOM      4  C   UNL     1      33.398 -19.747 -21.317  0.00  0.00    +0.024 C 
ATOM      5  C   UNL     1      35.757 -20.024 -20.405  0.00  0.00    -0.025 C 
ATOM      6  C   UNL     1      34.404 -20.410 -20.412  0.00  0.00    -0.026 C 
ATOM      7  C   UNL     1      36.650 -20.656 -19.527  0.00  0.00    +0.032 C 
ATOM      8  C   UNL     1      33.966 -21.396 -19.514  0.00  0.00    -0.001 C 
ATOM      9  C   UNL     1      36.204 -21.641 -18.647  0.00  0.00    +0.139 C 
ATOM     10  C   UNL     1      34.862 -22.009 -18.639  0.00  0.00    +0.037 C 
ENDROOT
BRANCH   1  11
ATOM     11  N   UNL     1      35.718 -17.295 -23.061  0.00  0.00    +0.387 N 
ATOM     12  H   UNL     1      35.679 -17.833 -23.927  0.00  0.00    -0.084 HD
ATOM     13  H   UNL     1      36.682 -17.046 -22.842  0.00  0.00    -0.084 HD
BRANCH  11  14
ATOM     14  C   UNL     1      34.945 -16.074 -23.224  0.00  0.00    -0.047 C 
BRANCH  14  15
ATOM     15  C   UNL     1      34.003 -16.181 -24.430  0.00  0.00    +0.112 C 
BRANCH  15  17
ATOM     16 CL   UNL     1      33.882 -10.986 -23.955  0.00  0.00    -0.082 Cl
ATOM     17  C   UNL     1      33.754 -14.828 -25.060  0.00  0.00    +0.003 C 
ATOM     18  C   UNL     1      33.913 -13.667 -24.305  0.00  0.00    +0.009 C 
ATOM     19  C   UNL     1      33.365 -14.743 -26.397  0.00  0.00    -0.002 C 
ATOM     20  C   UNL     1      33.684 -12.420 -24.886  0.00  0.00    +0.057 C 
ATOM     21  C   UNL     1      33.135 -13.496 -26.978  0.00  0.00    +0.001 C 
ATOM     22  C   UNL     1      33.295 -12.335 -26.223  0.00  0.00    +0.011 C 
ENDBRANCH  15  17
BRANCH  15  23
ATOM     23  O   UNL     1      34.564 -17.039 -25.423  0.00  0.00    -0.382 OA
ATOM     24  H   UNL     1      34.993 -16.502 -26.108  0.00  0.00    +0.211 HD
ENDBRANCH  15  23
ENDBRANCH  14  15
ENDBRANCH  11  14
ENDBRANCH   1  11
BRANCH   9  25
ATOM     25  O   UNL     1      37.079 -22.243 -17.797  0.00  0.00    -0.464 OA
BRANCH  25  26
ATOM     26  C   UNL     1      36.949 -21.942 -16.408  0.00  0.00    +0.314 C 
BRANCH  26  28
ATOM     27  O   UNL     1      38.054 -23.423 -14.840  0.00  0.00    -0.246 OA
ATOM     28  C   UNL     1      37.132 -23.208 -15.616  0.00  0.00    +0.362 C 
BRANCH  28  29
ATOM     29  O   UNL     1      36.110 -24.067 -15.906  0.00  0.00    -0.446 OA
BRANCH  29  30
ATOM     30  C   UNL     1      34.890 -23.834 -15.195  0.00  0.00    +0.209 C 
ATOM     31  C   UNL     1      35.158 -23.938 -13.709  0.00  0.00    +0.051 C 
ENDBRANCH  29  30
ENDBRANCH  28  29
ENDBRANCH  26  28
ENDBRANCH  25  26
ENDBRANCH   9  25
TORSDOF 10
ENDMDL
