MODEL 1
REMARK VINA RESULT:     -10.0      0.000      0.000
REMARK  Name = 4659569
REMARK  5 active torsions:
REMARK  status: ('A' for Active; 'I' for Inactive)
REMARK    1  A    between atoms: C_1  and  C_11
REMARK    2  A    between atoms: C_4  and  N_9
REMARK    3  A    between atoms: C_5  and  O_19
REMARK    4  A    between atoms: C_6  and  O_21
REMARK    5  A    between atoms: C_11  and  C_12
REMARK                            x       y       z     vdW  Elec       q    Type
REMARK                         _______ _______ _______ _____ _____    ______ ____
ROOT
ATOM      1  C   UNL     1      35.383 -17.692 -22.015  0.00  0.00    +0.044 C 
ATOM      2  C   UNL     1      35.080 -17.765 -23.355  0.00  0.00    +0.031 C 
ATOM      3  C   UNL     1      35.031 -16.622 -21.227  0.00  0.00    +0.043 C 
ATOM      4  C   UNL     1      34.384 -16.708 -23.940  0.00  0.00    +0.179 C 
ATOM      5  C   UNL     1      34.335 -15.564 -21.812  0.00  0.00    +0.169 C 
ATOM      6  C   UNL     1      34.011 -15.607 -23.169  0.00  0.00    +0.190 C 
ENDROOT
BRANCH   4   9
ATOM      7  O   UNL     1      33.643 -17.851 -25.801  0.00  0.00    -0.126 OA
ATOM      8  O   UNL     1      34.208 -15.741 -26.025  0.00  0.00    -0.126 OA
ATOM      9  N   UNL     1      34.063 -16.769 -25.324  0.00  0.00    +0.061 N 
ENDBRANCH   4   9
BRANCH   1  11
ATOM     10  O   UNL     1      37.360 -18.849 -21.542  0.00  0.00    -0.287 OA
ATOM     11  C   UNL     1      36.130 -18.825 -21.389  0.00  0.00    +0.196 C 
BRANCH  11  12
ATOM     12  C   UNL     1      35.465 -19.869 -20.626  0.00  0.00    +0.039 C 
ATOM     13  C   UNL     1      34.190 -21.873 -19.161  0.00  0.00    -0.022 C 
ATOM     14  C   UNL     1      36.220 -20.781 -19.888  0.00  0.00    +0.003 C 
ATOM     15  C   UNL     1      34.074 -19.959 -20.631  0.00  0.00    +0.003 C 
ATOM     16  C   UNL     1      35.582 -21.783 -19.156  0.00  0.00    -0.004 C 
ATOM     17  C   UNL     1      33.435 -20.960 -19.899  0.00  0.00    -0.004 C 
ATOM     18  C   UNL     1      33.509 -22.944 -18.379  0.00  0.00    +0.031 C 
ENDBRANCH  11  12
ENDBRANCH   1  11
BRANCH   5  19
ATOM     19  O   UNL     1      33.976 -14.495 -21.047  0.00  0.00    -0.503 OA
ATOM     20  H   UNL     1      33.987 -14.563 -20.112  0.00  0.00    +0.292 HD
ENDBRANCH   5  19
BRANCH   6  21
ATOM     21  O   UNL     1      33.329 -14.566 -23.729  0.00  0.00    -0.502 OA
ATOM     22  H   UNL     1      32.906 -14.677 -24.558  0.00  0.00    +0.292 HD
ENDBRANCH   6  21
TORSDOF 5
ENDMDL
MODEL 2
REMARK VINA RESULT:     -10.0      5.884      8.775
REMARK  Name = 4659569
REMARK  5 active torsions:
REMARK  status: ('A' for Active; 'I' for Inactive)
REMARK    1  A    between atoms: C_1  and  C_11
REMARK    2  A    between atoms: C_4  and  N_9
REMARK    3  A    between atoms: C_5  and  O_19
REMARK    4  A    between atoms: C_6  and  O_21
REMARK    5  A    between atoms: C_11  and  C_12
REMARK                            x       y       z     vdW  Elec       q    Type
REMARK                         _______ _______ _______ _____ _____    ______ ____
ROOT
ATOM      1  C   UNL     1      33.469 -23.164 -17.236  0.00  0.00    +0.044 C 
ATOM      2  C   UNL     1      32.152 -23.251 -16.851  0.00  0.00    +0.031 C 
ATOM      3  C   UNL     1      34.507 -23.100 -16.338  0.00  0.00    +0.043 C 
ATOM      4  C   UNL     1      31.856 -23.275 -15.488  0.00  0.00    +0.179 C 
ATOM      5  C   UNL     1      34.212 -23.123 -14.974  0.00  0.00    +0.169 C 
ATOM      6  C   UNL     1      32.886 -23.211 -14.549  0.00  0.00    +0.190 C 
ENDROOT
BRANCH   4   9
ATOM      7  O   UNL     1      29.648 -22.621 -15.620  0.00  0.00    -0.126 OA
ATOM      8  O   UNL     1      30.192 -24.183 -14.176  0.00  0.00    -0.126 OA
ATOM      9  N   UNL     1      30.499 -23.364 -15.074  0.00  0.00    +0.061 N 
ENDBRANCH   4   9
BRANCH   1  11
ATOM     10  O   UNL     1      33.812 -24.226 -19.292  0.00  0.00    -0.287 OA
ATOM     11  C   UNL     1      33.786 -23.138 -18.696  0.00  0.00    +0.196 C 
BRANCH  11  12
ATOM     12  C   UNL     1      34.057 -21.903 -19.413  0.00  0.00    +0.039 C 
ATOM     13  C   UNL     1      34.577 -19.532 -20.790  0.00  0.00    -0.022 C 
ATOM     14  C   UNL     1      35.374 -21.518 -19.668  0.00  0.00    +0.003 C 
ATOM     15  C   UNL     1      33.001 -21.102 -19.848  0.00  0.00    +0.003 C 
ATOM     16  C   UNL     1      35.633 -20.333 -20.356  0.00  0.00    -0.004 C 
ATOM     17  C   UNL     1      33.260 -19.916 -20.536  0.00  0.00    -0.004 C 
ATOM     18  C   UNL     1      34.855 -18.264 -21.524  0.00  0.00    +0.031 C 
ENDBRANCH  11  12
ENDBRANCH   1  11
BRANCH   5  19
ATOM     19  O   UNL     1      35.228 -23.060 -14.069  0.00  0.00    -0.503 OA
ATOM     20  H   UNL     1      35.233 -23.636 -13.329  0.00  0.00    +0.292 HD
ENDBRANCH   5  19
BRANCH   6  21
ATOM     21  O   UNL     1      32.609 -23.234 -13.213  0.00  0.00    -0.502 OA
ATOM     22  H   UNL     1      31.939 -22.680 -12.865  0.00  0.00    +0.292 HD
ENDBRANCH   6  21
TORSDOF 5
ENDMDL
MODEL 3
REMARK VINA RESULT:     -10.0      0.051      1.285
REMARK  Name = 4659569
REMARK  5 active torsions:
REMARK  status: ('A' for Active; 'I' for Inactive)
REMARK    1  A    between atoms: C_1  and  C_11
REMARK    2  A    between atoms: C_4  and  N_9
REMARK    3  A    between atoms: C_5  and  O_19
REMARK    4  A    between atoms: C_6  and  O_21
REMARK    5  A    between atoms: C_11  and  C_12
REMARK                            x       y       z     vdW  Elec       q    Type
REMARK                         _______ _______ _______ _____ _____    ______ ____
ROOT
ATOM      1  C   UNL     1      35.346 -17.662 -22.025  0.00  0.00    +0.044 C 
ATOM      2  C   UNL     1      35.046 -17.725 -23.366  0.00  0.00    +0.031 C 
ATOM      3  C   UNL     1      34.987 -16.600 -21.229  0.00  0.00    +0.043 C 
ATOM      4  C   UNL     1      34.346 -16.666 -23.944  0.00  0.00    +0.179 C 
ATOM      5  C   UNL     1      34.287 -15.540 -21.807  0.00  0.00    +0.169 C 
ATOM      6  C   UNL     1      33.967 -15.573 -23.165  0.00  0.00    +0.190 C 
ENDROOT
BRANCH   4   9
ATOM      7  O   UNL     1      34.163 -15.679 -26.021  0.00  0.00    -0.126 OA
ATOM      8  O   UNL     1      33.625 -17.798 -25.818  0.00  0.00    -0.126 OA
ATOM      9  N   UNL     1      34.029 -16.717 -25.329  0.00  0.00    +0.061 N 
ENDBRANCH   4   9
BRANCH   1  11
ATOM     10  O   UNL     1      37.325 -18.820 -21.566  0.00  0.00    -0.287 OA
ATOM     11  C   UNL     1      36.095 -18.797 -21.406  0.00  0.00    +0.196 C 
BRANCH  11  12
ATOM     12  C   UNL     1      35.435 -19.843 -20.642  0.00  0.00    +0.039 C 
ATOM     13  C   UNL     1      34.168 -21.852 -19.177  0.00  0.00    -0.022 C 
ATOM     14  C   UNL     1      34.044 -19.945 -20.658  0.00  0.00    +0.003 C 
ATOM     15  C   UNL     1      36.192 -20.745 -19.895  0.00  0.00    +0.003 C 
ATOM     16  C   UNL     1      33.411 -20.949 -19.925  0.00  0.00    -0.004 C 
ATOM     17  C   UNL     1      35.559 -21.750 -19.162  0.00  0.00    -0.004 C 
ATOM     18  C   UNL     1      33.490 -22.924 -18.394  0.00  0.00    +0.031 C 
ENDBRANCH  11  12
ENDBRANCH   1  11
BRANCH   5  19
ATOM     19  O   UNL     1      33.923 -14.479 -21.034  0.00  0.00    -0.503 OA
ATOM     20  H   UNL     1      34.234 -13.620 -21.240  0.00  0.00    +0.292 HD
ENDBRANCH   5  19
BRANCH   6  21
ATOM     21  O   UNL     1      33.282 -14.531 -23.719  0.00  0.00    -0.502 OA
ATOM     22  H   UNL     1      32.347 -14.503 -23.662  0.00  0.00    +0.292 HD
ENDBRANCH   6  21
TORSDOF 5
ENDMDL
MODEL 4
REMARK VINA RESULT:      -9.9      1.083      2.785
REMARK  Name = 4659569
REMARK  5 active torsions:
REMARK  status: ('A' for Active; 'I' for Inactive)
REMARK    1  A    between atoms: C_1  and  C_11
REMARK    2  A    between atoms: C_4  and  N_9
REMARK    3  A    between atoms: C_5  and  O_19
REMARK    4  A    between atoms: C_6  and  O_21
REMARK    5  A    between atoms: C_11  and  C_12
REMARK                            x       y       z     vdW  Elec       q    Type
REMARK                         _______ _______ _______ _____ _____    ______ ____
ROOT
ATOM      1  C   UNL     1      35.512 -18.020 -22.304  0.00  0.00    +0.044 C 
ATOM      2  C   UNL     1      35.093 -16.822 -21.775  0.00  0.00    +0.031 C 
ATOM      3  C   UNL     1      35.337 -18.355 -23.625  0.00  0.00    +0.043 C 
ATOM      4  C   UNL     1      34.463 -15.905 -22.616  0.00  0.00    +0.179 C 
ATOM      5  C   UNL     1      34.706 -17.439 -24.467  0.00  0.00    +0.169 C 
ATOM      6  C   UNL     1      34.269 -16.213 -23.963  0.00  0.00    +0.190 C 
ENDROOT
BRANCH   4   9
ATOM      7  O   UNL     1      34.184 -13.621 -22.766  0.00  0.00    -0.126 OA
ATOM      8  O   UNL     1      33.490 -14.643 -20.951  0.00  0.00    -0.126 OA
ATOM      9  N   UNL     1      34.024 -14.662 -22.084  0.00  0.00    +0.061 N 
ENDBRANCH   4   9
BRANCH   1  11
ATOM     10  O   UNL     1      37.425 -18.966 -21.347  0.00  0.00    -0.287 OA
ATOM     11  C   UNL     1      36.187 -19.002 -21.402  0.00  0.00    +0.196 C 
BRANCH  11  12
ATOM     12  C   UNL     1      35.446 -19.971 -20.610  0.00  0.00    +0.039 C 
ATOM     13  C   UNL     1      34.024 -21.830 -19.091  0.00  0.00    -0.022 C 
ATOM     14  C   UNL     1      34.051 -19.975 -20.640  0.00  0.00    +0.003 C 
ATOM     15  C   UNL     1      36.129 -20.896 -19.821  0.00  0.00    +0.003 C 
ATOM     16  C   UNL     1      33.340 -20.904 -19.880  0.00  0.00    -0.004 C 
ATOM     17  C   UNL     1      35.418 -21.826 -19.061  0.00  0.00    -0.004 C 
ATOM     18  C   UNL     1      33.264 -22.822 -18.278  0.00  0.00    +0.031 C 
ENDBRANCH  11  12
ENDBRANCH   1  11
BRANCH   5  19
ATOM     19  O   UNL     1      34.524 -17.753 -25.781  0.00  0.00    -0.503 OA
ATOM     20  H   UNL     1      34.810 -18.583 -26.108  0.00  0.00    +0.292 HD
ENDBRANCH   5  19
BRANCH   6  21
ATOM     21  O   UNL     1      33.654 -15.325 -24.796  0.00  0.00    -0.502 OA
ATOM     22  H   UNL     1      33.324 -15.612 -25.625  0.00  0.00    +0.292 HD
ENDBRANCH   6  21
TORSDOF 5
ENDMDL
MODEL 5
REMARK VINA RESULT:      -9.8      5.848      8.930
REMARK  Name = 4659569
REMARK  5 active torsions:
REMARK  status: ('A' for Active; 'I' for Inactive)
REMARK    1  A    between atoms: C_1  and  C_11
REMARK    2  A    between atoms: C_4  and  N_9
REMARK    3  A    between atoms: C_5  and  O_19
REMARK    4  A    between atoms: C_6  and  O_21
REMARK    5  A    between atoms: C_11  and  C_12
REMARK                            x       y       z     vdW  Elec       q    Type
REMARK                         _______ _______ _______ _____ _____    ______ ____
ROOT
ATOM      1  C   UNL     1      33.393 -23.202 -17.213  0.00  0.00    +0.044 C 
ATOM      2  C   UNL     1      34.378 -23.413 -16.277  0.00  0.00    +0.031 C 
ATOM      3  C   UNL     1      32.076 -22.996 -16.877  0.00  0.00    +0.043 C 
ATOM      4  C   UNL     1      34.026 -23.418 -14.927  0.00  0.00    +0.179 C 
ATOM      5  C   UNL     1      31.723 -23.002 -15.527  0.00  0.00    +0.169 C 
ATOM      6  C   UNL     1      32.699 -23.212 -14.552  0.00  0.00    +0.190 C 
ENDROOT
BRANCH   4   9
ATOM      7  O   UNL     1      34.777 -24.373 -12.967  0.00  0.00    -0.126 OA
ATOM      8  O   UNL     1      36.149 -23.082 -14.094  0.00  0.00    -0.126 OA
ATOM      9  N   UNL     1      35.034 -23.634 -13.948  0.00  0.00    +0.061 N 
ENDBRANCH   4   9
BRANCH   1  11
ATOM     10  O   UNL     1      33.773 -24.288 -19.250  0.00  0.00    -0.287 OA
ATOM     11  C   UNL     1      33.770 -23.197 -18.659  0.00  0.00    +0.196 C 
BRANCH  11  12
ATOM     12  C   UNL     1      34.123 -21.978 -19.369  0.00  0.00    +0.039 C 
ATOM     13  C   UNL     1      34.800 -19.639 -20.731  0.00  0.00    -0.022 C 
ATOM     14  C   UNL     1      35.464 -21.645 -19.558  0.00  0.00    +0.003 C 
ATOM     15  C   UNL     1      33.121 -21.142 -19.860  0.00  0.00    +0.003 C 
ATOM     16  C   UNL     1      35.802 -20.476 -20.239  0.00  0.00    -0.004 C 
ATOM     17  C   UNL     1      33.458 -19.972 -20.542  0.00  0.00    -0.004 C 
ATOM     18  C   UNL     1      35.162 -18.389 -21.458  0.00  0.00    +0.031 C 
ENDBRANCH  11  12
ENDBRANCH   1  11
BRANCH   5  19
ATOM     19  O   UNL     1      30.423 -22.799 -15.175  0.00  0.00    -0.503 OA
ATOM     20  H   UNL     1      30.216 -22.295 -14.413  0.00  0.00    +0.292 HD
ENDBRANCH   5  19
BRANCH   6  21
ATOM     21  O   UNL     1      32.342 -23.214 -13.235  0.00  0.00    -0.502 OA
ATOM     22  H   UNL     1      32.366 -22.417 -12.743  0.00  0.00    +0.292 HD
ENDBRANCH   6  21
TORSDOF 5
ENDMDL
MODEL 6
REMARK VINA RESULT:      -9.7      7.631     11.378
REMARK  Name = 4659569
REMARK  5 active torsions:
REMARK  status: ('A' for Active; 'I' for Inactive)
REMARK    1  A    between atoms: C_1  and  C_11
REMARK    2  A    between atoms: C_4  and  N_9
REMARK    3  A    between atoms: C_5  and  O_19
REMARK    4  A    between atoms: C_6  and  O_21
REMARK    5  A    between atoms: C_11  and  C_12
REMARK                            x       y       z     vdW  Elec       q    Type
REMARK                         _______ _______ _______ _____ _____    ______ ____
ROOT
ATOM      1  C   UNL     1      35.312 -24.414 -14.558  0.00  0.00    +0.044 C 
ATOM      2  C   UNL     1      35.257 -24.056 -13.231  0.00  0.00    +0.031 C 
ATOM      3  C   UNL     1      36.155 -25.390 -15.034  0.00  0.00    +0.043 C 
ATOM      4  C   UNL     1      36.093 -24.713 -12.328  0.00  0.00    +0.179 C 
ATOM      5  C   UNL     1      36.992 -26.047 -14.131  0.00  0.00    +0.169 C 
ATOM      6  C   UNL     1      36.961 -25.708 -12.778  0.00  0.00    +0.190 C 
ENDROOT
BRANCH   4   9
ATOM      7  O   UNL     1      36.811 -23.450 -10.537  0.00  0.00    -0.126 OA
ATOM      8  O   UNL     1      35.246 -24.952 -10.198  0.00  0.00    -0.126 OA
ATOM      9  N   UNL     1      36.048 -24.355 -10.953  0.00  0.00    +0.061 N 
ENDBRANCH   4   9
BRANCH   1  11
ATOM     10  O   UNL     1      33.196 -23.768 -15.316  0.00  0.00    -0.287 OA
ATOM     11  C   UNL     1      34.417 -23.710 -15.526  0.00  0.00    +0.196 C 
BRANCH  11  12
ATOM     12  C   UNL     1      34.930 -22.981 -16.674  0.00  0.00    +0.039 C 
ATOM     13  C   UNL     1      35.915 -21.579 -18.877  0.00  0.00    -0.022 C 
ATOM     14  C   UNL     1      34.151 -22.854 -17.825  0.00  0.00    +0.003 C 
ATOM     15  C   UNL     1      36.200 -22.407 -16.625  0.00  0.00    +0.003 C 
ATOM     16  C   UNL     1      34.644 -22.154 -18.926  0.00  0.00    -0.004 C 
ATOM     17  C   UNL     1      36.693 -21.706 -17.726  0.00  0.00    -0.004 C 
ATOM     18  C   UNL     1      36.441 -20.832 -20.055  0.00  0.00    +0.031 C 
ENDBRANCH  11  12
ENDBRANCH   1  11
BRANCH   5  19
ATOM     19  O   UNL     1      37.834 -27.017 -14.585  0.00  0.00    -0.503 OA
ATOM     20  H   UNL     1      37.521 -27.669 -15.181  0.00  0.00    +0.292 HD
ENDBRANCH   5  19
BRANCH   6  21
ATOM     21  O   UNL     1      37.783 -26.358 -11.904  0.00  0.00    -0.502 OA
ATOM     22  H   UNL     1      38.677 -26.091 -11.817  0.00  0.00    +0.292 HD
ENDBRANCH   6  21
TORSDOF 5
ENDMDL
MODEL 7
REMARK VINA RESULT:      -9.6      1.482      2.735
REMARK  Name = 4659569
REMARK  5 active torsions:
REMARK  status: ('A' for Active; 'I' for Inactive)
REMARK    1  A    between atoms: C_1  and  C_11
REMARK    2  A    between atoms: C_4  and  N_9
REMARK    3  A    between atoms: C_5  and  O_19
REMARK    4  A    between atoms: C_6  and  O_21
REMARK    5  A    between atoms: C_11  and  C_12
REMARK                            x       y       z     vdW  Elec       q    Type
REMARK                         _______ _______ _______ _____ _____    ______ ____
ROOT
ATOM      1  C   UNL     1      34.549 -16.885 -22.576  0.00  0.00    +0.044 C 
ATOM      2  C   UNL     1      34.018 -15.624 -22.722  0.00  0.00    +0.031 C 
ATOM      3  C   UNL     1      34.788 -17.721 -23.640  0.00  0.00    +0.043 C 
ATOM      4  C   UNL     1      33.711 -15.174 -24.006  0.00  0.00    +0.179 C 
ATOM      5  C   UNL     1      34.480 -17.272 -24.925  0.00  0.00    +0.169 C 
ATOM      6  C   UNL     1      33.941 -15.998 -25.107  0.00  0.00    +0.190 C 
ENDROOT
BRANCH   4   9
ATOM      7  O   UNL     1      32.196 -13.526 -23.451  0.00  0.00    -0.126 OA
ATOM      8  O   UNL     1      33.660 -13.111 -25.034  0.00  0.00    -0.126 OA
ATOM      9  N   UNL     1      33.162 -13.873 -24.172  0.00  0.00    +0.061 N 
ENDBRANCH   4   9
BRANCH   1  11
ATOM     10  O   UNL     1      35.329 -16.535 -20.399  0.00  0.00    -0.287 OA
ATOM     11  C   UNL     1      34.878 -17.367 -21.201  0.00  0.00    +0.196 C 
BRANCH  11  12
ATOM     12  C   UNL     1      34.688 -18.749 -20.793  0.00  0.00    +0.039 C 
ATOM     13  C   UNL     1      34.321 -21.402 -20.009  0.00  0.00    -0.022 C 
ATOM     14  C   UNL     1      35.794 -19.561 -20.540  0.00  0.00    +0.003 C 
ATOM     15  C   UNL     1      33.399 -19.264 -20.653  0.00  0.00    +0.003 C 
ATOM     16  C   UNL     1      35.610 -20.887 -20.149  0.00  0.00    -0.004 C 
ATOM     17  C   UNL     1      33.215 -20.591 -20.261  0.00  0.00    -0.004 C 
ATOM     18  C   UNL     1      34.126 -22.820 -19.591  0.00  0.00    +0.031 C 
ENDBRANCH  11  12
ENDBRANCH   1  11
BRANCH   5  19
ATOM     19  O   UNL     1      34.711 -18.087 -25.992  0.00  0.00    -0.503 OA
ATOM     20  H   UNL     1      34.002 -18.344 -26.548  0.00  0.00    +0.292 HD
ENDBRANCH   5  19
BRANCH   6  21
ATOM     21  O   UNL     1      33.645 -15.569 -26.369  0.00  0.00    -0.502 OA
ATOM     22  H   UNL     1      34.313 -15.548 -27.025  0.00  0.00    +0.292 HD
ENDBRANCH   6  21
TORSDOF 5
ENDMDL
MODEL 8
REMARK VINA RESULT:      -9.6      5.604      8.711
REMARK  Name = 4659569
REMARK  5 active torsions:
REMARK  status: ('A' for Active; 'I' for Inactive)
REMARK    1  A    between atoms: C_1  and  C_11
REMARK    2  A    between atoms: C_4  and  N_9
REMARK    3  A    between atoms: C_5  and  O_19
REMARK    4  A    between atoms: C_6  and  O_21
REMARK    5  A    between atoms: C_11  and  C_12
REMARK                            x       y       z     vdW  Elec       q    Type
REMARK                         _______ _______ _______ _____ _____    ______ ____
ROOT
ATOM      1  C   UNL     1      34.581 -22.867 -17.376  0.00  0.00    +0.044 C 
ATOM      2  C   UNL     1      33.589 -23.175 -16.474  0.00  0.00    +0.031 C 
ATOM      3  C   UNL     1      35.881 -22.622 -17.000  0.00  0.00    +0.043 C 
ATOM      4  C   UNL     1      33.916 -23.244 -15.120  0.00  0.00    +0.179 C 
ATOM      5  C   UNL     1      36.208 -22.689 -15.646  0.00  0.00    +0.169 C 
ATOM      6  C   UNL     1      35.225 -23.001 -14.705  0.00  0.00    +0.190 C 
ENDROOT
BRANCH   4   9
ATOM      7  O   UNL     1      33.086 -24.520 -13.387  0.00  0.00    -0.126 OA
ATOM      8  O   UNL     1      31.853 -22.876 -14.160  0.00  0.00    -0.126 OA
ATOM      9  N   UNL     1      32.901 -23.562 -14.176  0.00  0.00    +0.061 N 
ENDBRANCH   4   9
BRANCH   1  11
ATOM     10  O   UNL     1      33.876 -23.845 -19.380  0.00  0.00    -0.287 OA
ATOM     11  C   UNL     1      34.231 -22.793 -18.826  0.00  0.00    +0.196 C 
BRANCH  11  12
ATOM     12  C   UNL     1      34.295 -21.553 -19.582  0.00  0.00    +0.039 C 
ATOM     13  C   UNL     1      34.417 -19.172 -21.033  0.00  0.00    -0.022 C 
ATOM     14  C   UNL     1      35.527 -21.062 -20.015  0.00  0.00    +0.003 C 
ATOM     15  C   UNL     1      33.124 -20.852 -19.874  0.00  0.00    +0.003 C 
ATOM     16  C   UNL     1      35.588 -19.873 -20.740  0.00  0.00    -0.004 C 
ATOM     17  C   UNL     1      33.185 -19.662 -20.599  0.00  0.00    -0.004 C 
ATOM     18  C   UNL     1      34.483 -17.899 -21.806  0.00  0.00    +0.031 C 
ENDBRANCH  11  12
ENDBRANCH   1  11
BRANCH   5  19
ATOM     19  O   UNL     1      37.491 -22.451 -15.255  0.00  0.00    -0.503 OA
ATOM     20  H   UNL     1      37.996 -21.788 -15.684  0.00  0.00    +0.292 HD
ENDBRANCH   5  19
BRANCH   6  21
ATOM     21  O   UNL     1      35.558 -23.065 -13.383  0.00  0.00    -0.502 OA
ATOM     22  H   UNL     1      34.885 -23.123 -12.734  0.00  0.00    +0.292 HD
ENDBRANCH   6  21
TORSDOF 5
ENDMDL
MODEL 9
REMARK VINA RESULT:      -9.5      8.499     11.439
REMARK  Name = 4659569
REMARK  5 active torsions:
REMARK  status: ('A' for Active; 'I' for Inactive)
REMARK    1  A    between atoms: C_1  and  C_11
REMARK    2  A    between atoms: C_4  and  N_9
REMARK    3  A    between atoms: C_5  and  O_19
REMARK    4  A    between atoms: C_6  and  O_21
REMARK    5  A    between atoms: C_11  and  C_12
REMARK                            x       y       z     vdW  Elec       q    Type
REMARK                         _______ _______ _______ _____ _____    ______ ____
ROOT
ATOM      1  C   UNL     1      35.670 -24.180 -14.648  0.00  0.00    +0.044 C 
ATOM      2  C   UNL     1      35.808 -23.549 -13.433  0.00  0.00    +0.031 C 
ATOM      3  C   UNL     1      36.224 -25.409 -14.918  0.00  0.00    +0.043 C 
ATOM      4  C   UNL     1      36.541 -24.185 -12.431  0.00  0.00    +0.179 C 
ATOM      5  C   UNL     1      36.958 -26.044 -13.916  0.00  0.00    +0.169 C 
ATOM      6  C   UNL     1      37.116 -25.433 -12.672  0.00  0.00    +0.190 C 
ENDROOT
BRANCH   4   9
ATOM      7  O   UNL     1      37.278 -22.439 -11.118  0.00  0.00    -0.126 OA
ATOM      8  O   UNL     1      36.233 -24.108 -10.147  0.00  0.00    -0.126 OA
ATOM      9  N   UNL     1      36.691 -23.546 -11.170  0.00  0.00    +0.061 N 
ENDBRANCH   4   9
BRANCH   1  11
ATOM     10  O   UNL     1      35.513 -23.079 -16.705  0.00  0.00    -0.287 OA
ATOM     11  C   UNL     1      34.885 -23.499 -15.721  0.00  0.00    +0.196 C 
BRANCH  11  12
ATOM     12  C   UNL     1      33.444 -23.323 -15.641  0.00  0.00    +0.039 C 
ATOM     13  C   UNL     1      30.679 -22.983 -15.487  0.00  0.00    -0.022 C 
ATOM     14  C   UNL     1      32.809 -23.326 -14.399  0.00  0.00    +0.003 C 
ATOM     15  C   UNL     1      32.697 -23.149 -16.805  0.00  0.00    +0.003 C 
ATOM     16  C   UNL     1      31.427 -23.157 -14.322  0.00  0.00    -0.004 C 
ATOM     17  C   UNL     1      31.314 -22.979 -16.729  0.00  0.00    -0.004 C 
ATOM     18  C   UNL     1      29.201 -22.804 -15.404  0.00  0.00    +0.031 C 
ENDBRANCH  11  12
ENDBRANCH   1  11
BRANCH   5  19
ATOM     19  O   UNL     1      37.514 -27.263 -14.166  0.00  0.00    -0.503 OA
ATOM     20  H   UNL     1      37.549 -27.910 -13.489  0.00  0.00    +0.292 HD
ENDBRANCH   5  19
BRANCH   6  21
ATOM     21  O   UNL     1      37.835 -26.065 -11.700  0.00  0.00    -0.502 OA
ATOM     22  H   UNL     1      38.770 -25.996 -11.690  0.00  0.00    +0.292 HD
ENDBRANCH   6  21
TORSDOF 5
ENDMDL
