MODEL 1
REMARK VINA RESULT:      -8.5      0.000      0.000
REMARK  Name = 2182
REMARK  0 active torsions:
REMARK  status: ('A' for Active; 'I' for Inactive)
REMARK                            x       y       z     vdW  Elec       q    Type
REMARK                         _______ _______ _______ _____ _____    ______ ____
ROOT
ATOM      1 CL   UNL     1      34.938 -16.322 -20.594  0.00  0.00    -0.082 Cl
ATOM      2 CL   UNL     1      35.676 -19.421 -20.453  0.00  0.00    -0.081 Cl
ATOM      3  O   UNL     1      32.721 -12.857 -27.243  0.00  0.00    -0.212 OA
ATOM      4  N   UNL     1      33.741 -14.904 -24.660  0.00  0.00    -0.251 N 
ATOM      5  N   UNL     1      34.017 -17.028 -25.630  0.00  0.00    -0.275 N 
ATOM      6  N   UNL     1      33.308 -15.082 -26.860  0.00  0.00    -0.304 NA
ATOM      7  C   UNL     1      34.117 -15.292 -23.321  0.00  0.00    +0.124 C 
ATOM      8  C   UNL     1      34.468 -16.761 -23.245  0.00  0.00    +0.023 C 
ATOM      9  C   UNL     1      33.685 -15.707 -25.770  0.00  0.00    +0.255 C 
ATOM     10  C   UNL     1      33.360 -13.557 -25.006  0.00  0.00    +0.231 C 
ATOM     11  C   UNL     1      34.408 -17.576 -24.394  0.00  0.00    +0.050 C 
ATOM     12  C   UNL     1      33.085 -13.757 -26.496  0.00  0.00    +0.204 C 
ATOM     13  C   UNL     1      34.858 -17.317 -22.021  0.00  0.00    +0.067 C 
ATOM     14  C   UNL     1      34.739 -18.933 -24.293  0.00  0.00    +0.015 C 
ATOM     15  C   UNL     1      35.185 -18.670 -21.934  0.00  0.00    +0.068 C 
ATOM     16  C   UNL     1      35.126 -19.477 -23.068  0.00  0.00    +0.014 C 
ATOM     17  H   UNL     1      33.981 -17.614 -26.420  0.00  0.00    +0.156 HD
ENDROOT
TORSDOF 0
ENDMDL
MODEL 2
REMARK VINA RESULT:      -8.4     10.118     12.286
REMARK  Name = 2182
REMARK  0 active torsions:
REMARK  status: ('A' for Active; 'I' for Inactive)
REMARK                            x       y       z     vdW  Elec       q    Type
REMARK                         _______ _______ _______ _____ _____    ______ ____
ROOT
ATOM      1 CL   UNL     1      32.574 -23.342 -17.050  0.00  0.00    -0.082 Cl
ATOM      2 CL   UNL     1      33.513 -21.948 -19.760  0.00  0.00    -0.081 Cl
ATOM      3  O   UNL     1      37.434 -24.466 -11.031  0.00  0.00    -0.212 OA
ATOM      4  N   UNL     1      35.788 -23.711 -13.967  0.00  0.00    -0.251 N 
ATOM      5  N   UNL     1      37.403 -22.684 -15.332  0.00  0.00    -0.275 N 
ATOM      6  N   UNL     1      37.852 -23.482 -13.104  0.00  0.00    -0.304 NA
ATOM      7  C   UNL     1      34.702 -23.625 -14.915  0.00  0.00    +0.124 C 
ATOM      8  C   UNL     1      35.140 -22.965 -16.204  0.00  0.00    +0.023 C 
ATOM      9  C   UNL     1      37.075 -23.272 -14.140  0.00  0.00    +0.255 C 
ATOM     10  C   UNL     1      35.639 -24.298 -12.658  0.00  0.00    +0.231 C 
ATOM     11  C   UNL     1      36.466 -22.519 -16.369  0.00  0.00    +0.050 C 
ATOM     12  C   UNL     1      37.064 -24.108 -12.142  0.00  0.00    +0.204 C 
ATOM     13  C   UNL     1      34.216 -22.795 -17.242  0.00  0.00    +0.067 C 
ATOM     14  C   UNL     1      36.842 -21.911 -17.574  0.00  0.00    +0.015 C 
ATOM     15  C   UNL     1      34.603 -22.188 -18.437  0.00  0.00    +0.068 C 
ATOM     16  C   UNL     1      35.914 -21.747 -18.602  0.00  0.00    +0.014 C 
ATOM     17  H   UNL     1      38.324 -22.366 -15.468  0.00  0.00    +0.156 HD
ENDROOT
TORSDOF 0
ENDMDL
MODEL 3
REMARK VINA RESULT:      -8.4     10.904     12.868
REMARK  Name = 2182
REMARK  0 active torsions:
REMARK  status: ('A' for Active; 'I' for Inactive)
REMARK                            x       y       z     vdW  Elec       q    Type
REMARK                         _______ _______ _______ _____ _____    ______ ____
ROOT
ATOM      1 CL   UNL     1      37.169 -21.735 -17.254  0.00  0.00    -0.082 Cl
ATOM      2 CL   UNL     1      34.854 -22.005 -19.430  0.00  0.00    -0.081 Cl
ATOM      3  O   UNL     1      36.286 -24.205  -9.890  0.00  0.00    -0.212 OA
ATOM      4  N   UNL     1      36.089 -23.321 -13.218  0.00  0.00    -0.251 N 
ATOM      5  N   UNL     1      33.932 -23.963 -13.899  0.00  0.00    -0.275 N 
ATOM      6  N   UNL     1      34.775 -24.282 -11.665  0.00  0.00    -0.304 NA
ATOM      7  C   UNL     1      36.505 -22.791 -14.495  0.00  0.00    +0.124 C 
ATOM      8  C   UNL     1      35.413 -22.916 -15.533  0.00  0.00    +0.023 C 
ATOM      9  C   UNL     1      34.876 -23.883 -12.910  0.00  0.00    +0.255 C 
ATOM     10  C   UNL     1      36.942 -23.325 -12.056  0.00  0.00    +0.231 C 
ATOM     11  C   UNL     1      34.170 -23.494 -15.204  0.00  0.00    +0.050 C 
ATOM     12  C   UNL     1      35.991 -23.983 -11.058  0.00  0.00    +0.204 C 
ATOM     13  C   UNL     1      35.639 -22.451 -16.835  0.00  0.00    +0.067 C 
ATOM     14  C   UNL     1      33.177 -23.596 -16.187  0.00  0.00    +0.015 C 
ATOM     15  C   UNL     1      34.642 -22.559 -17.804  0.00  0.00    +0.068 C 
ATOM     16  C   UNL     1      33.413 -23.130 -17.481  0.00  0.00    +0.014 C 
ATOM     17  H   UNL     1      33.057 -24.364 -13.690  0.00  0.00    +0.156 HD
ENDROOT
TORSDOF 0
ENDMDL
MODEL 4
REMARK VINA RESULT:      -8.1      9.879     11.545
REMARK  Name = 2182
REMARK  0 active torsions:
REMARK  status: ('A' for Active; 'I' for Inactive)
REMARK                            x       y       z     vdW  Elec       q    Type
REMARK                         _______ _______ _______ _____ _____    ______ ____
ROOT
ATOM      1 CL   UNL     1      33.657 -22.192 -19.631  0.00  0.00    -0.082 Cl
ATOM      2 CL   UNL     1      36.679 -21.223 -19.943  0.00  0.00    -0.081 Cl
ATOM      3  O   UNL     1      30.832 -24.945 -12.881  0.00  0.00    -0.212 OA
ATOM      4  N   UNL     1      32.615 -23.664 -15.542  0.00  0.00    -0.251 N 
ATOM      5  N   UNL     1      34.777 -23.273 -14.704  0.00  0.00    -0.275 N 
ATOM      6  N   UNL     1      32.976 -24.175 -13.382  0.00  0.00    -0.304 NA
ATOM      7  C   UNL     1      32.882 -23.203 -16.884  0.00  0.00    +0.124 C 
ATOM      8  C   UNL     1      34.313 -22.741 -17.041  0.00  0.00    +0.023 C 
ATOM      9  C   UNL     1      33.496 -23.706 -14.491  0.00  0.00    +0.255 C 
ATOM     10  C   UNL     1      31.327 -24.158 -15.126  0.00  0.00    +0.231 C 
ATOM     11  C   UNL     1      35.208 -22.791 -15.953  0.00  0.00    +0.050 C 
ATOM     12  C   UNL     1      31.649 -24.481 -13.668  0.00  0.00    +0.204 C 
ATOM     13  C   UNL     1      34.753 -22.258 -18.280  0.00  0.00    +0.067 C 
ATOM     14  C   UNL     1      36.528 -22.356 -16.128  0.00  0.00    +0.015 C 
ATOM     15  C   UNL     1      36.070 -21.829 -18.441  0.00  0.00    +0.068 C 
ATOM     16  C   UNL     1      36.956 -21.877 -17.367  0.00  0.00    +0.014 C 
ATOM     17  H   UNL     1      35.418 -23.300 -13.957  0.00  0.00    +0.156 HD
ENDROOT
TORSDOF 0
ENDMDL
MODEL 5
REMARK VINA RESULT:      -8.1     11.326     13.066
REMARK  Name = 2182
REMARK  0 active torsions:
REMARK  status: ('A' for Active; 'I' for Inactive)
REMARK                            x       y       z     vdW  Elec       q    Type
REMARK                         _______ _______ _______ _____ _____    ______ ____
ROOT
ATOM      1 CL   UNL     1      31.114 -24.112 -13.413  0.00  0.00    -0.082 Cl
ATOM      2 CL   UNL     1      30.020 -23.706 -16.380  0.00  0.00    -0.081 Cl
ATOM      3  O   UNL     1      38.700 -23.476 -11.635  0.00  0.00    -0.212 OA
ATOM      4  N   UNL     1      35.538 -23.625 -13.004  0.00  0.00    -0.251 N 
ATOM      5  N   UNL     1      35.834 -23.166 -15.290  0.00  0.00    -0.275 N 
ATOM      6  N   UNL     1      37.640 -23.229 -13.697  0.00  0.00    -0.304 NA
ATOM      7  C   UNL     1      34.105 -23.797 -13.062  0.00  0.00    +0.124 C 
ATOM      8  C   UNL     1      33.578 -23.605 -14.467  0.00  0.00    +0.023 C 
ATOM      9  C   UNL     1      36.379 -23.325 -14.045  0.00  0.00    +0.255 C 
ATOM     10  C   UNL     1      36.292 -23.754 -11.782  0.00  0.00    +0.231 C 
ATOM     11  C   UNL     1      34.454 -23.298 -15.528  0.00  0.00    +0.050 C 
ATOM     12  C   UNL     1      37.691 -23.476 -12.329  0.00  0.00    +0.204 C 
ATOM     13  C   UNL     1      32.206 -23.734 -14.715  0.00  0.00    +0.067 C 
ATOM     14  C   UNL     1      33.936 -23.126 -16.819  0.00  0.00    +0.015 C 
ATOM     15  C   UNL     1      31.704 -23.560 -16.005  0.00  0.00    +0.068 C 
ATOM     16  C   UNL     1      32.567 -23.256 -17.055  0.00  0.00    +0.014 C 
ATOM     17  H   UNL     1      36.428 -22.951 -16.045  0.00  0.00    +0.156 HD
ENDROOT
TORSDOF 0
ENDMDL
MODEL 6
REMARK VINA RESULT:      -8.1      1.368      2.412
REMARK  Name = 2182
REMARK  0 active torsions:
REMARK  status: ('A' for Active; 'I' for Inactive)
REMARK                            x       y       z     vdW  Elec       q    Type
REMARK                         _______ _______ _______ _____ _____    ______ ____
ROOT
ATOM      1 CL   UNL     1      34.961 -19.477 -23.961  0.00  0.00    -0.082 Cl
ATOM      2 CL   UNL     1      35.686 -19.670 -20.862  0.00  0.00    -0.081 Cl
ATOM      3  O   UNL     1      32.710 -12.782 -27.312  0.00  0.00    -0.212 OA
ATOM      4  N   UNL     1      33.742 -15.394 -25.310  0.00  0.00    -0.251 N 
ATOM      5  N   UNL     1      34.003 -14.461 -23.167  0.00  0.00    -0.275 N 
ATOM      6  N   UNL     1      33.295 -13.201 -25.093  0.00  0.00    -0.304 NA
ATOM      7  C   UNL     1      34.126 -16.737 -24.944  0.00  0.00    +0.124 C 
ATOM      8  C   UNL     1      34.472 -16.837 -23.475  0.00  0.00    +0.023 C 
ATOM      9  C   UNL     1      33.677 -14.298 -24.487  0.00  0.00    +0.255 C 
ATOM     10  C   UNL     1      33.363 -15.026 -26.651  0.00  0.00    +0.231 C 
ATOM     11  C   UNL     1      34.400 -15.704 -22.640  0.00  0.00    +0.050 C 
ATOM     12  C   UNL     1      33.078 -13.542 -26.425  0.00  0.00    +0.204 C 
ATOM     13  C   UNL     1      34.868 -18.070 -22.940  0.00  0.00    +0.067 C 
ATOM     14  C   UNL     1      34.727 -15.828 -21.283  0.00  0.00    +0.015 C 
ATOM     15  C   UNL     1      35.191 -18.179 -21.588  0.00  0.00    +0.068 C 
ATOM     16  C   UNL     1      35.120 -17.060 -20.761  0.00  0.00    +0.014 C 
ATOM     17  H   UNL     1      33.959 -13.682 -22.567  0.00  0.00    +0.156 HD
ENDROOT
TORSDOF 0
ENDMDL
MODEL 7
REMARK VINA RESULT:      -7.9     11.662     13.081
REMARK  Name = 2182
REMARK  0 active torsions:
REMARK  status: ('A' for Active; 'I' for Inactive)
REMARK                            x       y       z     vdW  Elec       q    Type
REMARK                         _______ _______ _______ _____ _____    ______ ____
ROOT
ATOM      1 CL   UNL     1      32.723 -22.665 -17.707  0.00  0.00    -0.082 Cl
ATOM      2 CL   UNL     1      29.755 -23.106 -16.627  0.00  0.00    -0.081 Cl
ATOM      3  O   UNL     1      39.025 -24.609 -13.510  0.00  0.00    -0.212 OA
ATOM      4  N   UNL     1      35.921 -23.966 -14.870  0.00  0.00    -0.251 N 
ATOM      5  N   UNL     1      34.378 -24.670 -13.242  0.00  0.00    -0.275 N 
ATOM      6  N   UNL     1      36.766 -24.822 -12.970  0.00  0.00    -0.304 NA
ATOM      7  C   UNL     1      34.941 -23.525 -15.835  0.00  0.00    +0.124 C 
ATOM      8  C   UNL     1      33.531 -23.731 -15.330  0.00  0.00    +0.023 C 
ATOM      9  C   UNL     1      35.679 -24.513 -13.635  0.00  0.00    +0.255 C 
ATOM     10  C   UNL     1      37.341 -23.881 -15.102  0.00  0.00    +0.231 C 
ATOM     11  C   UNL     1      33.296 -24.293 -14.059  0.00  0.00    +0.050 C 
ATOM     12  C   UNL     1      37.839 -24.473 -13.785  0.00  0.00    +0.204 C 
ATOM     13  C   UNL     1      32.446 -23.360 -16.135  0.00  0.00    +0.067 C 
ATOM     14  C   UNL     1      31.978 -24.472 -13.618  0.00  0.00    +0.015 C 
ATOM     15  C   UNL     1      31.139 -23.543 -15.685  0.00  0.00    +0.068 C 
ATOM     16  C   UNL     1      30.906 -24.098 -14.429  0.00  0.00    +0.014 C 
ATOM     17  H   UNL     1      34.192 -25.061 -12.357  0.00  0.00    +0.156 HD
ENDROOT
TORSDOF 0
ENDMDL
MODEL 8
REMARK VINA RESULT:      -7.9      7.841      9.877
REMARK  Name = 2182
REMARK  0 active torsions:
REMARK  status: ('A' for Active; 'I' for Inactive)
REMARK                            x       y       z     vdW  Elec       q    Type
REMARK                         _______ _______ _______ _____ _____    ______ ____
ROOT
ATOM      1 CL   UNL     1      37.063 -19.656 -20.548  0.00  0.00    -0.082 Cl
ATOM      2 CL   UNL     1      34.386 -19.222 -22.226  0.00  0.00    -0.081 Cl
ATOM      3  O   UNL     1      37.327 -24.248 -14.225  0.00  0.00    -0.212 OA
ATOM      4  N   UNL     1      36.606 -22.387 -17.039  0.00  0.00    -0.251 N 
ATOM      5  N   UNL     1      34.324 -22.765 -17.459  0.00  0.00    -0.275 N 
ATOM      6  N   UNL     1      35.526 -23.760 -15.624  0.00  0.00    -0.304 NA
ATOM      7  C   UNL     1      36.826 -21.497 -18.154  0.00  0.00    +0.124 C 
ATOM      8  C   UNL     1      35.561 -21.286 -18.956  0.00  0.00    +0.023 C 
ATOM      9  C   UNL     1      35.431 -23.002 -16.689  0.00  0.00    +0.255 C 
ATOM     10  C   UNL     1      37.649 -22.756 -16.115  0.00  0.00    +0.231 C 
ATOM     11  C   UNL     1      34.359 -21.923 -18.585  0.00  0.00    +0.050 C 
ATOM     12  C   UNL     1      36.847 -23.676 -15.197  0.00  0.00    +0.204 C 
ATOM     13  C   UNL     1      35.585 -20.449 -20.079  0.00  0.00    +0.067 C 
ATOM     14  C   UNL     1      33.204 -21.708 -19.347  0.00  0.00    +0.015 C 
ATOM     15  C   UNL     1      34.427 -20.244 -20.829  0.00  0.00    +0.068 C 
ATOM     16  C   UNL     1      33.238 -20.872 -20.464  0.00  0.00    +0.014 C 
ATOM     17  H   UNL     1      33.475 -23.201 -17.217  0.00  0.00    +0.156 HD
ENDROOT
TORSDOF 0
ENDMDL
MODEL 9
REMARK VINA RESULT:      -7.9      3.259      4.122
REMARK  Name = 2182
REMARK  0 active torsions:
REMARK  status: ('A' for Active; 'I' for Inactive)
REMARK                            x       y       z     vdW  Elec       q    Type
REMARK                         _______ _______ _______ _____ _____    ______ ____
ROOT
ATOM      1 CL   UNL     1      34.812 -17.389 -21.020  0.00  0.00    -0.082 Cl
ATOM      2 CL   UNL     1      35.604 -18.652 -23.839  0.00  0.00    -0.081 Cl
ATOM      3  O   UNL     1      30.899 -10.648 -20.416  0.00  0.00    -0.212 OA
ATOM      4  N   UNL     1      32.583 -13.526 -21.300  0.00  0.00    -0.251 N 
ATOM      5  N   UNL     1      32.626 -13.516 -23.651  0.00  0.00    -0.275 N 
ATOM      6  N   UNL     1      31.596 -11.786 -22.328  0.00  0.00    -0.304 NA
ATOM      7  C   UNL     1      33.299 -14.769 -21.135  0.00  0.00    +0.124 C 
ATOM      8  C   UNL     1      33.677 -15.375 -22.468  0.00  0.00    +0.023 C 
ATOM      9  C   UNL     1      32.251 -12.912 -22.481  0.00  0.00    +0.255 C 
ATOM     10  C   UNL     1      32.106 -12.744 -20.187  0.00  0.00    +0.231 C 
ATOM     11  C   UNL     1      33.331 -14.733 -23.674  0.00  0.00    +0.050 C 
ATOM     12  C   UNL     1      31.458 -11.595 -20.957  0.00  0.00    +0.204 C 
ATOM     13  C   UNL     1      34.379 -16.587 -22.503  0.00  0.00    +0.067 C 
ATOM     14  C   UNL     1      33.696 -15.319 -24.894  0.00  0.00    +0.015 C 
ATOM     15  C   UNL     1      34.736 -17.159 -23.724  0.00  0.00    +0.068 C 
ATOM     16  C   UNL     1      34.395 -16.526 -24.917  0.00  0.00    +0.014 C 
ATOM     17  H   UNL     1      32.394 -13.084 -24.504  0.00  0.00    +0.156 HD
ENDROOT
TORSDOF 0
ENDMDL
