MODEL 1
REMARK VINA RESULT:      -8.1      0.000      0.000
REMARK  Name = 6175
REMARK  5 active torsions:
REMARK  status: ('A' for Active; 'I' for Inactive)
REMARK    1  A    between atoms: C2*_2  and  O2*_16
REMARK    2  A    between atoms: C3*_3  and  O3*_18
REMARK    3  A    between atoms: C1*_4  and  N1_7
REMARK    4  A    between atoms: C4*_5  and  C5*_20
REMARK    5  A    between atoms: C5*_20  and  O5*_21
REMARK                            x       y       z     vdW  Elec       q    Type
REMARK                         _______ _______ _______ _____ _____    ______ ____
ROOT
ATOM      1  O4* C   A   1      35.119 -17.083 -20.755  0.00  0.00    -0.332 OA
ATOM      2  C2* C   A   1      34.421 -17.948 -22.847  0.00  0.00    +0.188 C 
ATOM      3  C3* C   A   1      34.572 -16.447 -22.970  0.00  0.00    +0.171 C 
ATOM      4  C1* C   A   1      35.226 -18.245 -21.593  0.00  0.00    +0.236 C 
ATOM      5  C4* C   A   1      34.534 -16.002 -21.514  0.00  0.00    +0.175 C 
ENDROOT
BRANCH   4   7
ATOM      6  O2  C   A   1      36.802 -20.066 -20.134  0.00  0.00    -0.193 OA
ATOM      7  N1  C   A   1      34.726 -19.383 -20.877  0.00  0.00    -0.178 N 
ATOM      8  N3  C   A   1      35.033 -21.337 -19.494  0.00  0.00    -0.306 NA
ATOM      9  N4  C   A   1      33.217 -22.636 -18.843  0.00  0.00    -0.332 N 
ATOM     10  C6  C   A   1      33.363 -19.632 -20.888  0.00  0.00    +0.083 C 
ATOM     11  C2  C   A   1      35.585 -20.258 -20.163  0.00  0.00    +0.276 C 
ATOM     12  C5  C   A   1      32.813 -20.665 -20.253  0.00  0.00    +0.065 C 
ATOM     13  C4  C   A   1      33.745 -21.558 -19.515  0.00  0.00    +0.193 C 
ATOM     14  H41 C   A   1      33.810 -23.244 -18.347  0.00  0.00    +0.145 HD
ATOM     15  H42 C   A   1      32.246 -22.800 -18.861  0.00  0.00    +0.145 HD
ENDBRANCH   4   7
BRANCH   2  16
ATOM     16  O2* C   A   1      34.912 -18.631 -23.982  0.00  0.00    -0.378 OA
ATOM     17  H2* C   A   1      34.170 -18.887 -24.552  0.00  0.00    +0.211 HD
ENDBRANCH   2  16
BRANCH   3  18
ATOM     18  O3* C   A   1      35.858 -16.120 -23.496  0.00  0.00    -0.379 OA
ATOM     19  H3* C   A   1      36.541 -16.603 -23.005  0.00  0.00    +0.211 HD
ENDBRANCH   3  18
BRANCH   5  20
ATOM     20  C5* C   A   1      33.122 -15.766 -20.994  0.00  0.00    +0.169 C 
BRANCH  20  21
ATOM     21  O5* C   A   1      32.403 -15.018 -21.959  0.00  0.00    -0.379 OA
ATOM     22  H5* C   A   1      32.244 -15.570 -22.742  0.00  0.00    +0.211 HD
ENDBRANCH  20  21
ENDBRANCH   5  20
TORSDOF 5
ENDMDL
MODEL 2
REMARK VINA RESULT:      -7.8      6.752     10.088
REMARK  Name = 6175
REMARK  5 active torsions:
REMARK  status: ('A' for Active; 'I' for Inactive)
REMARK    1  A    between atoms: C2*_2  and  O2*_16
REMARK    2  A    between atoms: C3*_3  and  O3*_18
REMARK    3  A    between atoms: C1*_4  and  N1_7
REMARK    4  A    between atoms: C4*_5  and  C5*_20
REMARK    5  A    between atoms: C5*_20  and  O5*_21
REMARK                            x       y       z     vdW  Elec       q    Type
REMARK                         _______ _______ _______ _____ _____    ______ ____
ROOT
ATOM      1  O4* C   A   1      37.869 -24.057 -13.690  0.00  0.00    -0.332 OA
ATOM      2  C2* C   A   1      36.857 -25.864 -14.840  0.00  0.00    +0.188 C 
ATOM      3  C3* C   A   1      37.677 -26.418 -13.694  0.00  0.00    +0.171 C 
ATOM      4  C1* C   A   1      36.693 -24.409 -14.436  0.00  0.00    +0.236 C 
ATOM      5  C4* C   A   1      38.611 -25.257 -13.380  0.00  0.00    +0.175 C 
ENDROOT
BRANCH   4   7
ATOM      6  O2  C   A   1      34.397 -24.111 -16.040  0.00  0.00    -0.193 OA
ATOM      7  N1  C   A   1      36.582 -23.535 -15.569  0.00  0.00    -0.178 N 
ATOM      8  N3  C   A   1      35.353 -22.574 -17.410  0.00  0.00    -0.306 NA
ATOM      9  N4  C   A   1      36.337 -21.000 -18.810  0.00  0.00    -0.332 N 
ATOM     10  C6  C   A   1      37.677 -22.764 -15.925  0.00  0.00    +0.083 C 
ATOM     11  C2  C   A   1      35.388 -23.439 -16.330  0.00  0.00    +0.276 C 
ATOM     12  C5  C   A   1      37.663 -21.927 -16.961  0.00  0.00    +0.065 C 
ATOM     13  C4  C   A   1      36.394 -21.854 -17.733  0.00  0.00    +0.193 C 
ATOM     14  H41 C   A   1      35.511 -20.931 -19.340  0.00  0.00    +0.145 HD
ATOM     15  H42 C   A   1      37.124 -20.459 -19.052  0.00  0.00    +0.145 HD
ENDBRANCH   4   7
BRANCH   2  16
ATOM     16  O2* C   A   1      35.619 -26.530 -14.985  0.00  0.00    -0.378 OA
ATOM     17  H2* C   A   1      34.894 -25.901 -14.843  0.00  0.00    +0.211 HD
ENDBRANCH   2  16
BRANCH   3  18
ATOM     18  O3* C   A   1      36.848 -26.637 -12.553  0.00  0.00    -0.379 OA
ATOM     19  H3* C   A   1      36.882 -25.858 -11.974  0.00  0.00    +0.211 HD
ENDBRANCH   3  18
BRANCH   5  20
ATOM     20  C5* C   A   1      39.880 -25.262 -14.223  0.00  0.00    +0.169 C 
BRANCH  20  21
ATOM     21  O5* C   A   1      40.182 -26.600 -14.580  0.00  0.00    -0.379 OA
ATOM     22  H5* C   A   1      40.053 -26.716 -15.535  0.00  0.00    +0.211 HD
ENDBRANCH  20  21
ENDBRANCH   5  20
TORSDOF 5
ENDMDL
MODEL 3
REMARK VINA RESULT:      -7.5      6.476      8.665
REMARK  Name = 6175
REMARK  5 active torsions:
REMARK  status: ('A' for Active; 'I' for Inactive)
REMARK    1  A    between atoms: C2*_2  and  O2*_16
REMARK    2  A    between atoms: C3*_3  and  O3*_18
REMARK    3  A    between atoms: C1*_4  and  N1_7
REMARK    4  A    between atoms: C4*_5  and  C5*_20
REMARK    5  A    between atoms: C5*_20  and  O5*_21
REMARK                            x       y       z     vdW  Elec       q    Type
REMARK                         _______ _______ _______ _____ _____    ______ ____
ROOT
ATOM      1  O4* C   A   1      35.117 -24.870 -14.709  0.00  0.00    -0.332 OA
ATOM      2  C2* C   A   1      35.948 -22.775 -15.438  0.00  0.00    +0.188 C 
ATOM      3  C3* C   A   1      36.972 -23.410 -14.521  0.00  0.00    +0.171 C 
ATOM      4  C1* C   A   1      35.090 -23.966 -15.825  0.00  0.00    +0.236 C 
ATOM      5  C4* C   A   1      36.138 -24.446 -13.779  0.00  0.00    +0.175 C 
ENDROOT
BRANCH   4   7
ATOM      6  O2  C   A   1      34.095 -23.126 -18.323  0.00  0.00    -0.193 OA
ATOM      7  N1  C   A   1      33.729 -23.598 -16.093  0.00  0.00    -0.178 N 
ATOM      8  N3  C   A   1      31.973 -22.843 -17.568  0.00  0.00    -0.306 NA
ATOM      9  N4  C   A   1      29.802 -22.555 -16.788  0.00  0.00    -0.332 N 
ATOM     10  C6  C   A   1      32.809 -23.650 -15.059  0.00  0.00    +0.083 C 
ATOM     11  C2  C   A   1      33.302 -23.184 -17.382  0.00  0.00    +0.276 C 
ATOM     12  C5  C   A   1      31.527 -23.325 -15.217  0.00  0.00    +0.065 C 
ATOM     13  C4  C   A   1      31.118 -22.897 -16.581  0.00  0.00    +0.193 C 
ATOM     14  H41 C   A   1      29.503 -22.267 -17.680  0.00  0.00    +0.145 HD
ATOM     15  H42 C   A   1      29.160 -22.596 -16.042  0.00  0.00    +0.145 HD
ENDBRANCH   4   7
BRANCH   2  16
ATOM     16  O2* C   A   1      36.544 -22.148 -16.555  0.00  0.00    -0.378 OA
ATOM     17  H2* C   A   1      35.918 -21.517 -16.944  0.00  0.00    +0.211 HD
ENDBRANCH   2  16
BRANCH   3  18
ATOM     18  O3* C   A   1      37.958 -24.104 -15.285  0.00  0.00    -0.379 OA
ATOM     19  H3* C   A   1      37.978 -25.036 -15.017  0.00  0.00    +0.211 HD
ENDBRANCH   3  18
BRANCH   5  20
ATOM     20  C5* C   A   1      35.450 -23.888 -12.540  0.00  0.00    +0.169 C 
BRANCH  20  21
ATOM     21  O5* C   A   1      34.905 -24.967 -11.801  0.00  0.00    -0.379 OA
ATOM     22  H5* C   A   1      35.504 -25.195 -11.072  0.00  0.00    +0.211 HD
ENDBRANCH  20  21
ENDBRANCH   5  20
TORSDOF 5
ENDMDL
MODEL 4
REMARK VINA RESULT:      -7.5      6.913     10.039
REMARK  Name = 6175
REMARK  5 active torsions:
REMARK  status: ('A' for Active; 'I' for Inactive)
REMARK    1  A    between atoms: C2*_2  and  O2*_16
REMARK    2  A    between atoms: C3*_3  and  O3*_18
REMARK    3  A    between atoms: C1*_4  and  N1_7
REMARK    4  A    between atoms: C4*_5  and  C5*_20
REMARK    5  A    between atoms: C5*_20  and  O5*_21
REMARK                            x       y       z     vdW  Elec       q    Type
REMARK                         _______ _______ _______ _____ _____    ______ ____
ROOT
ATOM      1  O4* C   A   1      35.736 -23.872 -13.088  0.00  0.00    -0.332 OA
ATOM      2  C2* C   A   1      37.651 -25.058 -13.823  0.00  0.00    +0.188 C 
ATOM      3  C3* C   A   1      37.490 -25.273 -12.333  0.00  0.00    +0.171 C 
ATOM      4  C1* C   A   1      36.267 -24.575 -14.223  0.00  0.00    +0.236 C 
ATOM      5  C4* C   A   1      36.577 -24.119 -11.941  0.00  0.00    +0.175 C 
ENDROOT
BRANCH   4   7
ATOM      6  O2  C   A   1      34.099 -24.044 -15.941  0.00  0.00    -0.193 OA
ATOM      7  N1  C   A   1      36.301 -23.685 -15.348  0.00  0.00    -0.178 N 
ATOM      8  N3  C   A   1      35.270 -22.594 -17.238  0.00  0.00    -0.306 NA
ATOM      9  N4  C   A   1      36.474 -21.112 -18.564  0.00  0.00    -0.332 N 
ATOM     10  C6  C   A   1      37.482 -23.020 -15.637  0.00  0.00    +0.083 C 
ATOM     11  C2  C   A   1      35.164 -23.468 -16.169  0.00  0.00    +0.276 C 
ATOM     12  C5  C   A   1      37.604 -22.178 -16.661  0.00  0.00    +0.065 C 
ATOM     13  C4  C   A   1      36.391 -21.975 -17.497  0.00  0.00    +0.193 C 
ATOM     14  H41 C   A   1      35.687 -20.959 -19.135  0.00  0.00    +0.145 HD
ATOM     15  H42 C   A   1      37.321 -20.647 -18.757  0.00  0.00    +0.145 HD
ENDBRANCH   4   7
BRANCH   2  16
ATOM     16  O2* C   A   1      38.030 -26.240 -14.498  0.00  0.00    -0.378 OA
ATOM     17  H2* C   A   1      37.975 -26.098 -15.456  0.00  0.00    +0.211 HD
ENDBRANCH   2  16
BRANCH   3  18
ATOM     18  O3* C   A   1      36.791 -26.492 -12.082  0.00  0.00    -0.379 OA
ATOM     19  H3* C   A   1      35.837 -26.317 -12.048  0.00  0.00    +0.211 HD
ENDBRANCH   3  18
BRANCH   5  20
ATOM     20  C5* C   A   1      37.333 -22.836 -11.622  0.00  0.00    +0.169 C 
BRANCH  20  21
ATOM     21  O5* C   A   1      38.720 -23.125 -11.587  0.00  0.00    -0.379 OA
ATOM     22  H5* C   A   1      39.197 -22.484 -12.138  0.00  0.00    +0.211 HD
ENDBRANCH  20  21
ENDBRANCH   5  20
TORSDOF 5
ENDMDL
MODEL 5
REMARK VINA RESULT:      -7.5      7.408      9.956
REMARK  Name = 6175
REMARK  5 active torsions:
REMARK  status: ('A' for Active; 'I' for Inactive)
REMARK    1  A    between atoms: C2*_2  and  O2*_16
REMARK    2  A    between atoms: C3*_3  and  O3*_18
REMARK    3  A    between atoms: C1*_4  and  N1_7
REMARK    4  A    between atoms: C4*_5  and  C5*_20
REMARK    5  A    between atoms: C5*_20  and  O5*_21
REMARK                            x       y       z     vdW  Elec       q    Type
REMARK                         _______ _______ _______ _____ _____    ______ ____
ROOT
ATOM      1  O4* C   A   1      36.866 -26.090 -14.463  0.00  0.00    -0.332 OA
ATOM      2  C2* C   A   1      37.870 -23.994 -14.926  0.00  0.00    +0.188 C 
ATOM      3  C3* C   A   1      38.956 -24.976 -14.542  0.00  0.00    +0.171 C 
ATOM      4  C1* C   A   1      36.719 -24.919 -15.284  0.00  0.00    +0.236 C 
ATOM      5  C4* C   A   1      38.164 -26.064 -13.829  0.00  0.00    +0.175 C 
ENDROOT
BRANCH   4   7
ATOM      6  O2  C   A   1      35.336 -23.204 -17.038  0.00  0.00    -0.193 OA
ATOM      7  N1  C   A   1      35.439 -24.327 -15.024  0.00  0.00    -0.178 N 
ATOM      8  N3  C   A   1      33.566 -22.934 -15.642  0.00  0.00    -0.306 NA
ATOM      9  N4  C   A   1      31.757 -22.661 -14.208  0.00  0.00    -0.332 N 
ATOM     10  C6  C   A   1      34.808 -24.602 -13.821  0.00  0.00    +0.083 C 
ATOM     11  C2  C   A   1      34.803 -23.470 -15.960  0.00  0.00    +0.276 C 
ATOM     12  C5  C   A   1      33.620 -24.096 -13.496  0.00  0.00    +0.065 C 
ATOM     13  C4  C   A   1      32.986 -23.204 -14.503  0.00  0.00    +0.193 C 
ATOM     14  H41 C   A   1      31.314 -22.067 -14.855  0.00  0.00    +0.145 HD
ATOM     15  H42 C   A   1      31.322 -22.866 -13.348  0.00  0.00    +0.145 HD
ENDBRANCH   4   7
BRANCH   2  16
ATOM     16  O2* C   A   1      38.254 -23.164 -16.004  0.00  0.00    -0.378 OA
ATOM     17  H2* C   A   1      37.783 -23.437 -16.806  0.00  0.00    +0.211 HD
ENDBRANCH   2  16
BRANCH   3  18
ATOM     18  O3* C   A   1      39.539 -25.552 -15.711  0.00  0.00    -0.379 OA
ATOM     19  H3* C   A   1      40.315 -25.032 -15.974  0.00  0.00    +0.211 HD
ENDBRANCH   3  18
BRANCH   5  20
ATOM     20  C5* C   A   1      37.962 -25.786 -12.345  0.00  0.00    +0.169 C 
BRANCH  20  21
ATOM     21  O5* C   A   1      36.854 -26.544 -11.889  0.00  0.00    -0.379 OA
ATOM     22  H5* C   A   1      37.162 -27.410 -11.578  0.00  0.00    +0.211 HD
ENDBRANCH  20  21
ENDBRANCH   5  20
TORSDOF 5
ENDMDL
MODEL 6
REMARK VINA RESULT:      -7.4      7.532      9.321
REMARK  Name = 6175
REMARK  5 active torsions:
REMARK  status: ('A' for Active; 'I' for Inactive)
REMARK    1  A    between atoms: C2*_2  and  O2*_16
REMARK    2  A    between atoms: C3*_3  and  O3*_18
REMARK    3  A    between atoms: C1*_4  and  N1_7
REMARK    4  A    between atoms: C4*_5  and  C5*_20
REMARK    5  A    between atoms: C5*_20  and  O5*_21
REMARK                            x       y       z     vdW  Elec       q    Type
REMARK                         _______ _______ _______ _____ _____    ______ ____
ROOT
ATOM      1  O4* C   A   1      35.848 -23.367 -13.893  0.00  0.00    -0.332 OA
ATOM      2  C2* C   A   1      35.950 -25.375 -15.147  0.00  0.00    +0.188 C 
ATOM      3  C3* C   A   1      37.335 -25.060 -14.622  0.00  0.00    +0.171 C 
ATOM      4  C1* C   A   1      35.071 -24.523 -14.248  0.00  0.00    +0.236 C 
ATOM      5  C4* C   A   1      37.221 -23.579 -14.288  0.00  0.00    +0.175 C 
ENDROOT
BRANCH   4   7
ATOM      6  O2  C   A   1      32.480 -24.668 -13.153  0.00  0.00    -0.193 OA
ATOM      7  N1  C   A   1      33.870 -24.093 -14.904  0.00  0.00    -0.178 N 
ATOM      8  N3  C   A   1      31.480 -23.762 -14.979  0.00  0.00    -0.306 NA
ATOM      9  N4  C   A   1      30.461 -22.836 -16.852  0.00  0.00    -0.332 N 
ATOM     10  C6  C   A   1      33.961 -23.560 -16.180  0.00  0.00    +0.083 C 
ATOM     11  C2  C   A   1      32.597 -24.198 -14.286  0.00  0.00    +0.276 C 
ATOM     12  C5  C   A   1      32.899 -23.137 -16.863  0.00  0.00    +0.065 C 
ATOM     13  C4  C   A   1      31.584 -23.262 -16.182  0.00  0.00    +0.193 C 
ATOM     14  H41 C   A   1      29.577 -22.907 -16.426  0.00  0.00    +0.145 HD
ATOM     15  H42 C   A   1      30.542 -22.459 -17.759  0.00  0.00    +0.145 HD
ENDBRANCH   4   7
BRANCH   2  16
ATOM     16  O2* C   A   1      35.643 -26.751 -15.060  0.00  0.00    -0.378 OA
ATOM     17  H2* C   A   1      36.101 -27.137 -14.297  0.00  0.00    +0.211 HD
ENDBRANCH   2  16
BRANCH   3  18
ATOM     18  O3* C   A   1      37.576 -25.768 -13.406  0.00  0.00    -0.379 OA
ATOM     19  H3* C   A   1      37.092 -25.341 -12.681  0.00  0.00    +0.211 HD
ENDBRANCH   3  18
BRANCH   5  20
ATOM     20  C5* C   A   1      37.520 -22.671 -15.473  0.00  0.00    +0.169 C 
BRANCH  20  21
ATOM     21  O5* C   A   1      38.625 -23.202 -16.183  0.00  0.00    -0.379 OA
ATOM     22  H5* C   A   1      38.581 -22.917 -17.110  0.00  0.00    +0.211 HD
ENDBRANCH  20  21
ENDBRANCH   5  20
TORSDOF 5
ENDMDL
MODEL 7
REMARK VINA RESULT:      -7.4      6.272      9.468
REMARK  Name = 6175
REMARK  5 active torsions:
REMARK  status: ('A' for Active; 'I' for Inactive)
REMARK    1  A    between atoms: C2*_2  and  O2*_16
REMARK    2  A    between atoms: C3*_3  and  O3*_18
REMARK    3  A    between atoms: C1*_4  and  N1_7
REMARK    4  A    between atoms: C4*_5  and  C5*_20
REMARK    5  A    between atoms: C5*_20  and  O5*_21
REMARK                            x       y       z     vdW  Elec       q    Type
REMARK                         _______ _______ _______ _____ _____    ______ ____
ROOT
ATOM      1  O4* C   A   1      37.947 -24.392 -15.110  0.00  0.00    -0.332 OA
ATOM      2  C2* C   A   1      36.473 -23.907 -13.320  0.00  0.00    +0.188 C 
ATOM      3  C3* C   A   1      37.639 -24.711 -12.783  0.00  0.00    +0.171 C 
ATOM      4  C1* C   A   1      37.022 -23.397 -14.640  0.00  0.00    +0.236 C 
ATOM      5  C4* C   A   1      38.203 -25.340 -14.050  0.00  0.00    +0.175 C 
ENDROOT
BRANCH   4   7
ATOM      6  O2  C   A   1      37.324 -21.975 -17.053  0.00  0.00    -0.193 OA
ATOM      7  N1  C   A   1      35.997 -23.213 -15.627  0.00  0.00    -0.178 N 
ATOM      8  N3  C   A   1      35.188 -22.344 -17.729  0.00  0.00    -0.306 NA
ATOM      9  N4  C   A   1      33.000 -22.725 -18.415  0.00  0.00    -0.332 N 
ATOM     10  C6  C   A   1      34.747 -23.768 -15.400  0.00  0.00    +0.083 C 
ATOM     11  C2  C   A   1      36.225 -22.481 -16.821  0.00  0.00    +0.276 C 
ATOM     12  C5  C   A   1      33.737 -23.645 -16.260  0.00  0.00    +0.065 C 
ATOM     13  C4  C   A   1      34.015 -22.873 -17.499  0.00  0.00    +0.193 C 
ATOM     14  H41 C   A   1      33.155 -22.218 -19.244  0.00  0.00    +0.145 HD
ATOM     15  H42 C   A   1      32.116 -23.124 -18.239  0.00  0.00    +0.145 HD
ENDBRANCH   4   7
BRANCH   2  16
ATOM     16  O2* C   A   1      36.096 -22.861 -12.448  0.00  0.00    -0.378 OA
ATOM     17  H2* C   A   1      36.041 -22.030 -12.944  0.00  0.00    +0.211 HD
ENDBRANCH   2  16
BRANCH   3  18
ATOM     18  O3* C   A   1      38.633 -23.840 -12.244  0.00  0.00    -0.379 OA
ATOM     19  H3* C   A   1      39.214 -24.341 -11.650  0.00  0.00    +0.211 HD
ENDBRANCH   3  18
BRANCH   5  20
ATOM     20  C5* C   A   1      37.531 -26.656 -14.418  0.00  0.00    +0.169 C 
BRANCH  20  21
ATOM     21  O5* C   A   1      37.325 -26.683 -15.820  0.00  0.00    -0.379 OA
ATOM     22  H5* C   A   1      37.820 -25.958 -16.234  0.00  0.00    +0.211 HD
ENDBRANCH  20  21
ENDBRANCH   5  20
TORSDOF 5
ENDMDL
MODEL 8
REMARK VINA RESULT:      -7.3      6.607      8.683
REMARK  Name = 6175
REMARK  5 active torsions:
REMARK  status: ('A' for Active; 'I' for Inactive)
REMARK    1  A    between atoms: C2*_2  and  O2*_16
REMARK    2  A    between atoms: C3*_3  and  O3*_18
REMARK    3  A    between atoms: C1*_4  and  N1_7
REMARK    4  A    between atoms: C4*_5  and  C5*_20
REMARK    5  A    between atoms: C5*_20  and  O5*_21
REMARK                            x       y       z     vdW  Elec       q    Type
REMARK                         _______ _______ _______ _____ _____    ______ ____
ROOT
ATOM      1  O4* C   A   1      30.959 -24.366 -15.827  0.00  0.00    -0.332 OA
ATOM      2  C2* C   A   1      31.937 -23.115 -14.069  0.00  0.00    +0.188 C 
ATOM      3  C3* C   A   1      30.546 -23.539 -13.646  0.00  0.00    +0.171 C 
ATOM      4  C1* C   A   1      32.224 -24.072 -15.213  0.00  0.00    +0.236 C 
ATOM      5  C4* C   A   1      29.896 -23.875 -14.981  0.00  0.00    +0.175 C 
ENDROOT
BRANCH   4   7
ATOM      6  O2  C   A   1      35.024 -23.876 -14.983  0.00  0.00    -0.193 OA
ATOM      7  N1  C   A   1      33.098 -23.502 -16.198  0.00  0.00    -0.178 N 
ATOM      8  N3  C   A   1      35.285 -22.876 -17.004  0.00  0.00    -0.306 NA
ATOM      9  N4  C   A   1      35.545 -21.850 -19.074  0.00  0.00    -0.332 N 
ATOM     10  C6  C   A   1      32.547 -22.999 -17.366  0.00  0.00    +0.083 C 
ATOM     11  C2  C   A   1      34.503 -23.439 -16.010  0.00  0.00    +0.276 C 
ATOM     12  C5  C   A   1      33.282 -22.452 -18.333  0.00  0.00    +0.065 C 
ATOM     13  C4  C   A   1      34.750 -22.406 -18.100  0.00  0.00    +0.193 C 
ATOM     14  H41 C   A   1      36.520 -21.805 -18.947  0.00  0.00    +0.145 HD
ATOM     15  H42 C   A   1      35.139 -21.496 -19.899  0.00  0.00    +0.145 HD
ENDBRANCH   4   7
BRANCH   2  16
ATOM     16  O2* C   A   1      32.875 -23.228 -13.018  0.00  0.00    -0.378 OA
ATOM     17  H2* C   A   1      32.909 -22.394 -12.524  0.00  0.00    +0.211 HD
ENDBRANCH   2  16
BRANCH   3  18
ATOM     18  O3* C   A   1      30.607 -24.737 -12.872  0.00  0.00    -0.379 OA
ATOM     19  H3* C   A   1      31.532 -25.017 -12.782  0.00  0.00    +0.211 HD
ENDBRANCH   3  18
BRANCH   5  20
ATOM     20  C5* C   A   1      29.265 -22.669 -15.664  0.00  0.00    +0.169 C 
BRANCH  20  21
ATOM     21  O5* C   A   1      29.088 -22.967 -17.038  0.00  0.00    -0.379 OA
ATOM     22  H5* C   A   1      29.895 -22.735 -17.525  0.00  0.00    +0.211 HD
ENDBRANCH  20  21
ENDBRANCH   5  20
TORSDOF 5
ENDMDL
MODEL 9
REMARK VINA RESULT:      -7.3      7.536      9.954
REMARK  Name = 6175
REMARK  5 active torsions:
REMARK  status: ('A' for Active; 'I' for Inactive)
REMARK    1  A    between atoms: C2*_2  and  O2*_16
REMARK    2  A    between atoms: C3*_3  and  O3*_18
REMARK    3  A    between atoms: C1*_4  and  N1_7
REMARK    4  A    between atoms: C4*_5  and  C5*_20
REMARK    5  A    between atoms: C5*_20  and  O5*_21
REMARK                            x       y       z     vdW  Elec       q    Type
REMARK                         _______ _______ _______ _____ _____    ______ ____
ROOT
ATOM      1  O4* C   A   1      35.921 -25.242 -13.016  0.00  0.00    -0.332 OA
ATOM      2  C2* C   A   1      36.857 -23.213 -13.803  0.00  0.00    +0.188 C 
ATOM      3  C3* C   A   1      37.774 -23.792 -12.747  0.00  0.00    +0.171 C 
ATOM      4  C1* C   A   1      36.020 -24.420 -14.190  0.00  0.00    +0.236 C 
ATOM      5  C4* C   A   1      36.853 -24.763 -12.021  0.00  0.00    +0.175 C 
ENDROOT
BRANCH   4   7
ATOM      6  O2  C   A   1      35.345 -23.468 -16.754  0.00  0.00    -0.193 OA
ATOM      7  N1  C   A   1      34.699 -24.058 -14.617  0.00  0.00    -0.178 N 
ATOM      8  N3  C   A   1      33.137 -23.253 -16.272  0.00  0.00    -0.306 NA
ATOM      9  N4  C   A   1      30.877 -23.034 -15.773  0.00  0.00    -0.332 N 
ATOM     10  C6  C   A   1      33.652 -24.174 -13.717  0.00  0.00    +0.083 C 
ATOM     11  C2  C   A   1      34.437 -23.585 -15.929  0.00  0.00    +0.276 C 
ATOM     12  C5  C   A   1      32.396 -23.859 -14.027  0.00  0.00    +0.065 C 
ATOM     13  C4  C   A   1      32.161 -23.369 -15.411  0.00  0.00    +0.193 C 
ATOM     14  H41 C   A   1      30.692 -22.706 -16.682  0.00  0.00    +0.145 HD
ATOM     15  H42 C   A   1      30.143 -23.122 -15.122  0.00  0.00    +0.145 HD
ENDBRANCH   4   7
BRANCH   2  16
ATOM     16  O2* C   A   1      37.571 -22.674 -14.897  0.00  0.00    -0.378 OA
ATOM     17  H2* C   A   1      38.212 -22.021 -14.574  0.00  0.00    +0.211 HD
ENDBRANCH   2  16
BRANCH   3  18
ATOM     18  O3* C   A   1      38.818 -24.550 -13.359  0.00  0.00    -0.379 OA
ATOM     19  H3* C   A   1      38.986 -24.207 -14.251  0.00  0.00    +0.211 HD
ENDBRANCH   3  18
BRANCH   5  20
ATOM     20  C5* C   A   1      36.056 -24.112 -10.899  0.00  0.00    +0.169 C 
BRANCH  20  21
ATOM     21  O5* C   A   1      35.236 -25.097 -10.295  0.00  0.00    -0.379 OA
ATOM     22  H5* C   A   1      35.781 -25.672  -9.734  0.00  0.00    +0.211 HD
ENDBRANCH  20  21
ENDBRANCH   5  20
TORSDOF 5
ENDMDL
