MODEL 1
REMARK VINA RESULT:     -11.0      0.000      0.000
REMARK  Name = 24963037
REMARK  7 active torsions:
REMARK  status: ('A' for Active; 'I' for Inactive)
REMARK    1  A    between atoms: N_2  and  C_19
REMARK    2  A    between atoms: C_3  and  C_7
REMARK    3  A    between atoms: C_11  and  C_12
REMARK    4  A    between atoms: C_12  and  C_13
REMARK    5  A    between atoms: C_13  and  C_14
REMARK    6  A    between atoms: C_19  and  C_20
REMARK    7  A    between atoms: C_25  and  C_28
REMARK                            x       y       z     vdW  Elec       q    Type
REMARK                         _______ _______ _______ _____ _____    ______ ____
ROOT
ATOM      1  O   UNL     1      32.234 -25.017 -13.377  0.00  0.00    -0.273 OA
ATOM      2  N   UNL     1      34.164 -23.729 -13.181  0.00  0.00    -0.299 N 
ATOM      3  C   UNL     1      32.880 -24.001 -13.623  0.00  0.00    +0.241 C 
ATOM      4  H   UNL     1      34.579 -22.876 -13.446  0.00  0.00    +0.150 HD
ENDROOT
BRANCH   3   7
ATOM      5  O   UNL     1      34.799 -22.725 -15.880  0.00  0.00    -0.275 OA
ATOM      6  N   UNL     1      32.540 -23.225 -15.846  0.00  0.00    -0.273 N 
ATOM      7  C   UNL     1      32.315 -22.884 -14.447  0.00  0.00    +0.152 C 
ATOM      8  C   UNL     1      30.800 -22.790 -14.309  0.00  0.00    +0.031 C 
ATOM      9  C   UNL     1      31.292 -23.604 -16.502  0.00  0.00    +0.094 C 
ATOM     10  C   UNL     1      30.287 -23.760 -15.371  0.00  0.00    +0.024 C 
ATOM     11  C   UNL     1      33.765 -23.046 -16.468  0.00  0.00    +0.226 C 
BRANCH  11  12
ATOM     12  C   UNL     1      33.777 -23.282 -17.957  0.00  0.00    +0.085 C 
BRANCH  12  13
ATOM     13  C   UNL     1      34.811 -22.393 -18.627  0.00  0.00    +0.010 C 
BRANCH  13  14
ATOM     14  C   UNL     1      34.259 -21.651 -19.832  0.00  0.00    +0.000 C 
ATOM     15  C   UNL     1      32.922 -20.967 -19.558  0.00  0.00    +0.000 C 
ATOM     16  C   UNL     1      35.136 -20.484 -20.274  0.00  0.00    +0.000 C 
ATOM     17  C   UNL     1      32.791 -19.945 -20.683  0.00  0.00    +0.000 C 
ATOM     18  C   UNL     1      34.215 -19.643 -21.151  0.00  0.00    +0.000 C 
ENDBRANCH  13  14
ENDBRANCH  12  13
ENDBRANCH  11  12
ENDBRANCH   3   7
BRANCH   2  19
ATOM     19  C   UNL     1      34.923 -24.635 -12.350  0.00  0.00    +0.116 C 
BRANCH  19  20
ATOM     20  C   UNL     1      36.239 -24.998 -12.974  0.00  0.00    -0.003 C 
ATOM     21  C   UNL     1      36.295 -25.369 -14.318  0.00  0.00    -0.003 C 
ATOM     22  C   UNL     1      37.406 -24.965 -12.210  0.00  0.00    -0.003 C 
ATOM     23  C   UNL     1      37.518 -25.707 -14.897  0.00  0.00    +0.002 C 
ATOM     24  C   UNL     1      38.629 -25.304 -12.790  0.00  0.00    +0.002 C 
ATOM     25  C   UNL     1      38.685 -25.675 -14.133  0.00  0.00    +0.031 C 
BRANCH  25  28
ATOM     26  N   UNL     1      40.954 -26.674 -14.009  0.00  0.00    -0.343 N 
ATOM     27  N   UNL     1      40.192 -25.727 -16.005  0.00  0.00    -0.285 NA
ATOM     28  C   UNL     1      39.960 -26.027 -14.739  0.00  0.00    +0.117 C 
ATOM     29  H   UNL     1      41.810 -26.904 -14.439  0.00  0.00    +0.144 HD
ATOM     30  H   UNL     1      40.801 -26.904 -13.064  0.00  0.00    +0.144 HD
ATOM     31  H   UNL     1      41.055 -25.964 -16.416  0.00  0.00    +0.188 HD
ENDBRANCH  25  28
ENDBRANCH  19  20
ENDBRANCH   2  19
TORSDOF 7
ENDMDL
MODEL 2
REMARK VINA RESULT:     -11.0      2.198      6.592
REMARK  Name = 24963037
REMARK  7 active torsions:
REMARK  status: ('A' for Active; 'I' for Inactive)
REMARK    1  A    between atoms: N_2  and  C_19
REMARK    2  A    between atoms: C_3  and  C_7
REMARK    3  A    between atoms: C_11  and  C_12
REMARK    4  A    between atoms: C_12  and  C_13
REMARK    5  A    between atoms: C_13  and  C_14
REMARK    6  A    between atoms: C_19  and  C_20
REMARK    7  A    between atoms: C_25  and  C_28
REMARK                            x       y       z     vdW  Elec       q    Type
REMARK                         _______ _______ _______ _____ _____    ______ ____
ROOT
ATOM      1  O   UNL     1      35.080 -23.847 -13.021  0.00  0.00    -0.273 OA
ATOM      2  N   UNL     1      33.491 -24.913 -14.347  0.00  0.00    -0.299 N 
ATOM      3  C   UNL     1      34.764 -24.470 -14.032  0.00  0.00    +0.241 C 
ATOM      4  H   UNL     1      33.361 -25.404 -15.191  0.00  0.00    +0.150 HD
ENDROOT
BRANCH   3   7
ATOM      5  O   UNL     1      34.242 -23.437 -17.043  0.00  0.00    -0.275 OA
ATOM      6  N   UNL     1      36.162 -23.637 -15.767  0.00  0.00    -0.273 N 
ATOM      7  C   UNL     1      35.773 -24.857 -15.071  0.00  0.00    +0.152 C 
ATOM      8  C   UNL     1      37.062 -25.373 -14.442  0.00  0.00    +0.031 C 
ATOM      9  C   UNL     1      37.515 -23.229 -15.397  0.00  0.00    +0.094 C 
ATOM     10  C   UNL     1      37.874 -24.102 -14.205  0.00  0.00    +0.024 C 
ATOM     11  C   UNL     1      35.382 -23.064 -16.758  0.00  0.00    +0.226 C 
BRANCH  11  12
ATOM     12  C   UNL     1      36.013 -21.911 -17.496  0.00  0.00    +0.085 C 
BRANCH  12  13
ATOM     13  C   UNL     1      35.706 -21.999 -18.981  0.00  0.00    +0.010 C 
BRANCH  13  14
ATOM     14  C   UNL     1      34.833 -20.857 -19.472  0.00  0.00    +0.000 C 
ATOM     15  C   UNL     1      35.296 -20.276 -20.805  0.00  0.00    +0.000 C 
ATOM     16  C   UNL     1      33.402 -21.284 -19.782  0.00  0.00    +0.000 C 
ATOM     17  C   UNL     1      34.079 -19.512 -21.319  0.00  0.00    +0.000 C 
ATOM     18  C   UNL     1      32.862 -20.154 -20.652  0.00  0.00    +0.000 C 
ENDBRANCH  13  14
ENDBRANCH  12  13
ENDBRANCH  11  12
ENDBRANCH   3   7
BRANCH   2  19
ATOM     19  C   UNL     1      32.343 -24.689 -13.499  0.00  0.00    +0.116 C 
BRANCH  19  20
ATOM     20  C   UNL     1      31.149 -24.223 -14.281  0.00  0.00    -0.003 C 
ATOM     21  C   UNL     1      31.081 -22.903 -14.729  0.00  0.00    -0.003 C 
ATOM     22  C   UNL     1      30.108 -25.109 -14.560  0.00  0.00    -0.003 C 
ATOM     23  C   UNL     1      29.972 -22.470 -15.455  0.00  0.00    +0.002 C 
ATOM     24  C   UNL     1      28.998 -24.675 -15.286  0.00  0.00    +0.002 C 
ATOM     25  C   UNL     1      28.931 -23.355 -15.733  0.00  0.00    +0.031 C 
BRANCH  25  28
ATOM     26  N   UNL     1      26.767 -22.148 -15.894  0.00  0.00    -0.343 N 
ATOM     27  N   UNL     1      27.665 -23.213 -17.771  0.00  0.00    -0.285 NA
ATOM     28  C   UNL     1      27.774 -22.903 -16.491  0.00  0.00    +0.117 C 
ATOM     29  H   UNL     1      25.994 -21.852 -16.427  0.00  0.00    +0.144 HD
ATOM     30  H   UNL     1      26.830 -21.910 -14.941  0.00  0.00    +0.144 HD
ATOM     31  H   UNL     1      26.883 -22.908 -18.286  0.00  0.00    +0.188 HD
ENDBRANCH  25  28
ENDBRANCH  19  20
ENDBRANCH   2  19
TORSDOF 7
ENDMDL
MODEL 3
REMARK VINA RESULT:     -10.7      8.649     13.831
REMARK  Name = 24963037
REMARK  7 active torsions:
REMARK  status: ('A' for Active; 'I' for Inactive)
REMARK    1  A    between atoms: N_2  and  C_19
REMARK    2  A    between atoms: C_3  and  C_7
REMARK    3  A    between atoms: C_11  and  C_12
REMARK    4  A    between atoms: C_12  and  C_13
REMARK    5  A    between atoms: C_13  and  C_14
REMARK    6  A    between atoms: C_19  and  C_20
REMARK    7  A    between atoms: C_25  and  C_28
REMARK                            x       y       z     vdW  Elec       q    Type
REMARK                         _______ _______ _______ _____ _____    ______ ____
ROOT
ATOM      1  O   UNL     1      32.286 -15.252 -21.703  0.00  0.00    -0.273 OA
ATOM      2  N   UNL     1      32.780 -13.081 -22.383  0.00  0.00    -0.299 N 
ATOM      3  C   UNL     1      33.046 -14.428 -22.205  0.00  0.00    +0.241 C 
ATOM      4  H   UNL     1      33.473 -12.517 -22.799  0.00  0.00    +0.150 HD
ENDROOT
BRANCH   3   7
ATOM      5  O   UNL     1      34.967 -16.095 -20.221  0.00  0.00    -0.275 OA
ATOM      6  N   UNL     1      34.557 -16.243 -22.493  0.00  0.00    -0.273 N 
ATOM      7  C   UNL     1      34.397 -14.813 -22.727  0.00  0.00    +0.152 C 
ATOM      8  C   UNL     1      34.484 -14.656 -24.240  0.00  0.00    +0.031 C 
ATOM      9  C   UNL     1      34.468 -16.993 -23.743  0.00  0.00    +0.094 C 
ATOM     10  C   UNL     1      33.960 -15.990 -24.767  0.00  0.00    +0.024 C 
ATOM     11  C   UNL     1      34.902 -16.761 -21.255  0.00  0.00    +0.226 C 
BRANCH  11  12
ATOM     12  C   UNL     1      35.198 -18.239 -21.230  0.00  0.00    +0.085 C 
BRANCH  12  13
ATOM     13  C   UNL     1      33.925 -19.031 -20.990  0.00  0.00    +0.010 C 
BRANCH  13  14
ATOM     14  C   UNL     1      34.191 -20.482 -20.630  0.00  0.00    +0.000 C 
ATOM     15  C   UNL     1      35.532 -20.693 -19.933  0.00  0.00    +0.000 C 
ATOM     16  C   UNL     1      33.204 -21.040 -19.611  0.00  0.00    +0.000 C 
ATOM     17  C   UNL     1      35.395 -22.060 -19.270  0.00  0.00    +0.000 C 
ATOM     18  C   UNL     1      33.896 -22.288 -19.073  0.00  0.00    +0.000 C 
ENDBRANCH  13  14
ENDBRANCH  12  13
ENDBRANCH  11  12
ENDBRANCH   3   7
BRANCH   2  19
ATOM     19  C   UNL     1      31.537 -12.461 -21.985  0.00  0.00    +0.116 C 
BRANCH  19  20
ATOM     20  C   UNL     1      31.730 -11.031 -21.570  0.00  0.00    -0.003 C 
ATOM     21  C   UNL     1      31.713 -10.689 -20.217  0.00  0.00    -0.003 C 
ATOM     22  C   UNL     1      31.925 -10.044 -22.536  0.00  0.00    -0.003 C 
ATOM     23  C   UNL     1      31.892  -9.361 -19.832  0.00  0.00    +0.002 C 
ATOM     24  C   UNL     1      32.102  -8.715 -22.151  0.00  0.00    +0.002 C 
ATOM     25  C   UNL     1      32.086  -8.374 -20.798  0.00  0.00    +0.031 C 
BRANCH  25  28
ATOM     26  N   UNL     1      31.658  -5.945 -21.084  0.00  0.00    -0.343 N 
ATOM     27  N   UNL     1      33.041  -6.703 -19.359  0.00  0.00    -0.285 NA
ATOM     28  C   UNL     1      32.272  -6.989 -20.395  0.00  0.00    +0.117 C 
ATOM     29  H   UNL     1      31.798  -5.015 -20.793  0.00  0.00    +0.144 HD
ATOM     30  H   UNL     1      31.084  -6.138 -21.860  0.00  0.00    +0.144 HD
ATOM     31  H   UNL     1      33.169  -5.766 -19.085  0.00  0.00    +0.188 HD
ENDBRANCH  25  28
ENDBRANCH  19  20
ENDBRANCH   2  19
TORSDOF 7
ENDMDL
MODEL 4
REMARK VINA RESULT:     -10.6      7.078     11.108
REMARK  Name = 24963037
REMARK  7 active torsions:
REMARK  status: ('A' for Active; 'I' for Inactive)
REMARK    1  A    between atoms: N_2  and  C_19
REMARK    2  A    between atoms: C_3  and  C_7
REMARK    3  A    between atoms: C_11  and  C_12
REMARK    4  A    between atoms: C_12  and  C_13
REMARK    5  A    between atoms: C_13  and  C_14
REMARK    6  A    between atoms: C_19  and  C_20
REMARK    7  A    between atoms: C_25  and  C_28
REMARK                            x       y       z     vdW  Elec       q    Type
REMARK                         _______ _______ _______ _____ _____    ______ ____
ROOT
ATOM      1  O   UNL     1      35.466 -15.304 -23.460  0.00  0.00    -0.273 OA
ATOM      2  N   UNL     1      34.223 -16.876 -22.276  0.00  0.00    -0.299 N 
ATOM      3  C   UNL     1      34.395 -15.735 -23.041  0.00  0.00    +0.241 C 
ATOM      4  H   UNL     1      33.310 -17.120 -21.998  0.00  0.00    +0.150 HD
ENDROOT
BRANCH   3   7
ATOM      5  O   UNL     1      32.484 -15.030 -20.540  0.00  0.00    -0.275 OA
ATOM      6  N   UNL     1      33.008 -13.885 -22.482  0.00  0.00    -0.273 N 
ATOM      7  C   UNL     1      33.095 -15.056 -23.347  0.00  0.00    +0.152 C 
ATOM      8  C   UNL     1      33.069 -14.494 -24.763  0.00  0.00    +0.031 C 
ATOM      9  C   UNL     1      33.198 -12.654 -23.244  0.00  0.00    +0.094 C 
ATOM     10  C   UNL     1      33.694 -13.110 -24.607  0.00  0.00    +0.024 C 
ATOM     11  C   UNL     1      32.635 -13.969 -21.150  0.00  0.00    +0.226 C 
BRANCH  11  12
ATOM     12  C   UNL     1      32.425 -12.651 -20.451  0.00  0.00    +0.085 C 
BRANCH  12  13
ATOM     13  C   UNL     1      31.123 -12.012 -20.902  0.00  0.00    +0.010 C 
BRANCH  13  14
ATOM     14  C   UNL     1      31.110 -10.504 -20.719  0.00  0.00    +0.000 C 
ATOM     15  C   UNL     1      31.859 -10.043 -19.472  0.00  0.00    +0.000 C 
ATOM     16  C   UNL     1      31.839  -9.757 -21.831  0.00  0.00    +0.000 C 
ATOM     17  C   UNL     1      32.118  -8.560 -19.722  0.00  0.00    +0.000 C 
ATOM     18  C   UNL     1      32.094  -8.375 -21.240  0.00  0.00    +0.000 C 
ENDBRANCH  13  14
ENDBRANCH  12  13
ENDBRANCH  11  12
ENDBRANCH   3   7
BRANCH   2  19
ATOM     19  C   UNL     1      35.318 -17.724 -21.863  0.00  0.00    +0.116 C 
BRANCH  19  20
ATOM     20  C   UNL     1      34.838 -18.947 -21.137  0.00  0.00    -0.003 C 
ATOM     21  C   UNL     1      35.760 -19.862 -20.628  0.00  0.00    -0.003 C 
ATOM     22  C   UNL     1      33.471 -19.170 -20.971  0.00  0.00    -0.003 C 
ATOM     23  C   UNL     1      35.315 -20.999 -19.954  0.00  0.00    +0.002 C 
ATOM     24  C   UNL     1      33.026 -20.308 -20.298  0.00  0.00    +0.002 C 
ATOM     25  C   UNL     1      33.948 -21.222 -19.789  0.00  0.00    +0.031 C 
BRANCH  25  28
ATOM     26  N   UNL     1      32.454 -22.340 -18.151  0.00  0.00    -0.343 N 
ATOM     27  N   UNL     1      34.050 -23.578 -19.326  0.00  0.00    -0.285 NA
ATOM     28  C   UNL     1      33.485 -22.408 -19.085  0.00  0.00    +0.117 C 
ATOM     29  H   UNL     1      32.156 -23.155 -17.687  0.00  0.00    +0.144 HD
ATOM     30  H   UNL     1      32.022 -21.476 -17.956  0.00  0.00    +0.144 HD
ATOM     31  H   UNL     1      33.738 -24.382 -18.851  0.00  0.00    +0.188 HD
ENDBRANCH  25  28
ENDBRANCH  19  20
ENDBRANCH   2  19
TORSDOF 7
ENDMDL
MODEL 5
REMARK VINA RESULT:     -10.6     10.007     15.327
REMARK  Name = 24963037
REMARK  7 active torsions:
REMARK  status: ('A' for Active; 'I' for Inactive)
REMARK    1  A    between atoms: N_2  and  C_19
REMARK    2  A    between atoms: C_3  and  C_7
REMARK    3  A    between atoms: C_11  and  C_12
REMARK    4  A    between atoms: C_12  and  C_13
REMARK    5  A    between atoms: C_13  and  C_14
REMARK    6  A    between atoms: C_19  and  C_20
REMARK    7  A    between atoms: C_25  and  C_28
REMARK                            x       y       z     vdW  Elec       q    Type
REMARK                         _______ _______ _______ _____ _____    ______ ____
ROOT
ATOM      1  O   UNL     1      33.441 -13.053 -26.063  0.00  0.00    -0.273 OA
ATOM      2  N   UNL     1      33.953 -12.104 -24.000  0.00  0.00    -0.299 N 
ATOM      3  C   UNL     1      33.434 -13.079 -24.835  0.00  0.00    +0.241 C 
ATOM      4  H   UNL     1      33.887 -12.237 -23.026  0.00  0.00    +0.150 HD
ENDROOT
BRANCH   3   7
ATOM      5  O   UNL     1      33.647 -15.995 -26.198  0.00  0.00    -0.275 OA
ATOM      6  N   UNL     1      33.887 -15.265 -24.014  0.00  0.00    -0.273 N 
ATOM      7  C   UNL     1      32.860 -14.233 -24.070  0.00  0.00    +0.152 C 
ATOM      8  C   UNL     1      32.595 -13.871 -22.614  0.00  0.00    +0.031 C 
ATOM      9  C   UNL     1      34.454 -15.371 -22.673  0.00  0.00    +0.094 C 
ATOM     10  C   UNL     1      33.931 -14.152 -21.930  0.00  0.00    +0.024 C 
ATOM     11  C   UNL     1      34.147 -16.116 -25.077  0.00  0.00    +0.226 C 
BRANCH  11  12
ATOM     12  C   UNL     1      35.114 -17.236 -24.791  0.00  0.00    +0.085 C 
BRANCH  12  13
ATOM     13  C   UNL     1      34.365 -18.492 -24.380  0.00  0.00    +0.010 C 
BRANCH  13  14
ATOM     14  C   UNL     1      34.982 -19.179 -23.173  0.00  0.00    +0.000 C 
ATOM     15  C   UNL     1      36.116 -18.379 -22.540  0.00  0.00    +0.000 C 
ATOM     16  C   UNL     1      34.009 -19.339 -22.010  0.00  0.00    +0.000 C 
ATOM     17  C   UNL     1      36.264 -18.983 -21.147  0.00  0.00    +0.000 C 
ATOM     18  C   UNL     1      34.910 -19.610 -20.811  0.00  0.00    +0.000 C 
ENDBRANCH  13  14
ENDBRANCH  12  13
ENDBRANCH  11  12
ENDBRANCH   3   7
BRANCH   2  19
ATOM     19  C   UNL     1      34.584 -10.899 -24.488  0.00  0.00    +0.116 C 
BRANCH  19  20
ATOM     20  C   UNL     1      33.953  -9.663 -23.914  0.00  0.00    -0.003 C 
ATOM     21  C   UNL     1      32.654  -9.715 -23.407  0.00  0.00    -0.003 C 
ATOM     22  C   UNL     1      34.665  -8.464 -23.888  0.00  0.00    -0.003 C 
ATOM     23  C   UNL     1      32.068  -8.567 -22.874  0.00  0.00    +0.002 C 
ATOM     24  C   UNL     1      34.078  -7.315 -23.355  0.00  0.00    +0.002 C 
ATOM     25  C   UNL     1      32.780  -7.367 -22.849  0.00  0.00    +0.031 C 
BRANCH  25  28
ATOM     26  N   UNL     1      32.040  -5.994 -20.916  0.00  0.00    -0.343 N 
ATOM     27  N   UNL     1      31.715  -5.228 -23.100  0.00  0.00    -0.285 NA
ATOM     28  C   UNL     1      32.167  -6.171 -22.292  0.00  0.00    +0.117 C 
ATOM     29  H   UNL     1      31.623  -5.176 -20.562  0.00  0.00    +0.144 HD
ATOM     30  H   UNL     1      32.369  -6.687 -20.299  0.00  0.00    +0.144 HD
ATOM     31  H   UNL     1      31.300  -4.417 -22.726  0.00  0.00    +0.188 HD
ENDBRANCH  25  28
ENDBRANCH  19  20
ENDBRANCH   2  19
TORSDOF 7
ENDMDL
MODEL 6
REMARK VINA RESULT:     -10.5      9.157     14.354
REMARK  Name = 24963037
REMARK  7 active torsions:
REMARK  status: ('A' for Active; 'I' for Inactive)
REMARK    1  A    between atoms: N_2  and  C_19
REMARK    2  A    between atoms: C_3  and  C_7
REMARK    3  A    between atoms: C_11  and  C_12
REMARK    4  A    between atoms: C_12  and  C_13
REMARK    5  A    between atoms: C_13  and  C_14
REMARK    6  A    between atoms: C_19  and  C_20
REMARK    7  A    between atoms: C_25  and  C_28
REMARK                            x       y       z     vdW  Elec       q    Type
REMARK                         _______ _______ _______ _____ _____    ______ ____
ROOT
ATOM      1  O   UNL     1      32.263 -14.897 -22.264  0.00  0.00    -0.273 OA
ATOM      2  N   UNL     1      32.590 -12.629 -22.678  0.00  0.00    -0.299 N 
ATOM      3  C   UNL     1      32.875 -13.979 -22.803  0.00  0.00    +0.241 C 
ATOM      4  H   UNL     1      33.157 -11.984 -23.161  0.00  0.00    +0.150 HD
ENDROOT
BRANCH   3   7
ATOM      5  O   UNL     1      35.157 -16.001 -21.750  0.00  0.00    -0.275 OA
ATOM      6  N   UNL     1      34.191 -15.675 -23.827  0.00  0.00    -0.273 N 
ATOM      7  C   UNL     1      34.038 -14.230 -23.715  0.00  0.00    +0.152 C 
ATOM      8  C   UNL     1      33.754 -13.759 -25.136  0.00  0.00    +0.031 C 
ATOM      9  C   UNL     1      33.764 -16.149 -25.141  0.00  0.00    +0.094 C 
ATOM     10  C   UNL     1      33.060 -14.959 -25.776  0.00  0.00    +0.024 C 
ATOM     11  C   UNL     1      34.811 -16.437 -22.849  0.00  0.00    +0.226 C 
BRANCH  11  12
ATOM     12  C   UNL     1      35.042 -17.884 -23.203  0.00  0.00    +0.085 C 
BRANCH  12  13
ATOM     13  C   UNL     1      35.672 -18.621 -22.035  0.00  0.00    +0.010 C 
BRANCH  13  14
ATOM     14  C   UNL     1      34.814 -19.768 -21.528  0.00  0.00    +0.000 C 
ATOM     15  C   UNL     1      35.445 -20.520 -20.359  0.00  0.00    +0.000 C 
ATOM     16  C   UNL     1      33.484 -19.310 -20.941  0.00  0.00    +0.000 C 
ATOM     17  C   UNL     1      34.277 -21.278 -19.734  0.00  0.00    +0.000 C 
ATOM     18  C   UNL     1      33.015 -20.505 -20.117  0.00  0.00    +0.000 C 
ENDBRANCH  13  14
ENDBRANCH  12  13
ENDBRANCH  11  12
ENDBRANCH   3   7
BRANCH   2  19
ATOM     19  C   UNL     1      31.503 -12.122 -21.873  0.00  0.00    +0.116 C 
BRANCH  19  20
ATOM     20  C   UNL     1      31.684 -10.671 -21.534  0.00  0.00    -0.003 C 
ATOM     21  C   UNL     1      31.819 -10.279 -20.202  0.00  0.00    -0.003 C 
ATOM     22  C   UNL     1      31.717  -9.715 -22.550  0.00  0.00    -0.003 C 
ATOM     23  C   UNL     1      31.987  -8.930 -19.886  0.00  0.00    +0.002 C 
ATOM     24  C   UNL     1      31.884  -8.367 -22.233  0.00  0.00    +0.002 C 
ATOM     25  C   UNL     1      32.019  -7.975 -20.901  0.00  0.00    +0.031 C 
BRANCH  25  28
ATOM     26  N   UNL     1      31.855  -5.565 -21.475  0.00  0.00    -0.343 N 
ATOM     27  N   UNL     1      32.690  -6.227 -19.395  0.00  0.00    -0.285 NA
ATOM     28  C   UNL     1      32.195  -6.569 -20.571  0.00  0.00    +0.117 C 
ATOM     29  H   UNL     1      31.982  -4.619 -21.230  0.00  0.00    +0.144 HD
ATOM     30  H   UNL     1      31.487  -5.800 -22.357  0.00  0.00    +0.144 HD
ATOM     31  H   UNL     1      32.810  -5.276 -19.169  0.00  0.00    +0.188 HD
ENDBRANCH  25  28
ENDBRANCH  19  20
ENDBRANCH   2  19
TORSDOF 7
ENDMDL
MODEL 7
REMARK VINA RESULT:     -10.3      8.997     14.182
REMARK  Name = 24963037
REMARK  7 active torsions:
REMARK  status: ('A' for Active; 'I' for Inactive)
REMARK    1  A    between atoms: N_2  and  C_19
REMARK    2  A    between atoms: C_3  and  C_7
REMARK    3  A    between atoms: C_11  and  C_12
REMARK    4  A    between atoms: C_12  and  C_13
REMARK    5  A    between atoms: C_13  and  C_14
REMARK    6  A    between atoms: C_19  and  C_20
REMARK    7  A    between atoms: C_25  and  C_28
REMARK                            x       y       z     vdW  Elec       q    Type
REMARK                         _______ _______ _______ _____ _____    ______ ____
ROOT
ATOM      1  O   UNL     1      34.946 -13.589 -23.064  0.00  0.00    -0.273 OA
ATOM      2  N   UNL     1      32.879 -12.791 -23.778  0.00  0.00    -0.299 N 
ATOM      3  C   UNL     1      33.729 -13.706 -23.179  0.00  0.00    +0.241 C 
ATOM      4  H   UNL     1      31.916 -12.997 -23.810  0.00  0.00    +0.150 HD
ENDROOT
BRANCH   3   7
ATOM      5  O   UNL     1      34.391 -16.571 -24.506  0.00  0.00    -0.275 OA
ATOM      6  N   UNL     1      33.989 -15.910 -22.324  0.00  0.00    -0.273 N 
ATOM      7  C   UNL     1      32.992 -14.894 -22.639  0.00  0.00    +0.152 C 
ATOM      8  C   UNL     1      32.320 -14.585 -21.307  0.00  0.00    +0.031 C 
ATOM      9  C   UNL     1      34.159 -16.051 -20.881  0.00  0.00    +0.094 C 
ATOM     10  C   UNL     1      33.416 -14.866 -20.282  0.00  0.00    +0.024 C 
ATOM     11  C   UNL     1      34.558 -16.721 -23.294  0.00  0.00    +0.226 C 
BRANCH  11  12
ATOM     12  C   UNL     1      35.435 -17.833 -22.777  0.00  0.00    +0.085 C 
BRANCH  12  13
ATOM     13  C   UNL     1      34.639 -19.121 -22.654  0.00  0.00    +0.010 C 
BRANCH  13  14
ATOM     14  C   UNL     1      34.433 -19.551 -21.211  0.00  0.00    +0.000 C 
ATOM     15  C   UNL     1      33.058 -20.163 -20.957  0.00  0.00    +0.000 C 
ATOM     16  C   UNL     1      35.373 -20.670 -20.776  0.00  0.00    +0.000 C 
ATOM     17  C   UNL     1      33.226 -20.917 -19.641  0.00  0.00    +0.000 C 
ATOM     18  C   UNL     1      34.717 -21.233 -19.520  0.00  0.00    +0.000 C 
ENDBRANCH  13  14
ENDBRANCH  12  13
ENDBRANCH  11  12
ENDBRANCH   3   7
BRANCH   2  19
ATOM     19  C   UNL     1      33.336 -11.549 -24.358  0.00  0.00    +0.116 C 
BRANCH  19  20
ATOM     20  C   UNL     1      33.130 -10.386 -23.430  0.00  0.00    -0.003 C 
ATOM     21  C   UNL     1      33.839  -9.201 -23.631  0.00  0.00    -0.003 C 
ATOM     22  C   UNL     1      32.231 -10.491 -22.369  0.00  0.00    -0.003 C 
ATOM     23  C   UNL     1      33.648  -8.121 -22.769  0.00  0.00    +0.002 C 
ATOM     24  C   UNL     1      32.041  -9.410 -21.507  0.00  0.00    +0.002 C 
ATOM     25  C   UNL     1      32.750  -8.225 -21.708  0.00  0.00    +0.031 C 
BRANCH  25  28
ATOM     26  N   UNL     1      32.008  -5.898 -21.263  0.00  0.00    -0.343 N 
ATOM     27  N   UNL     1      32.894  -7.203 -19.538  0.00  0.00    -0.285 NA
ATOM     28  C   UNL     1      32.551  -7.098 -20.809  0.00  0.00    +0.117 C 
ATOM     29  H   UNL     1      31.882  -5.148 -20.637  0.00  0.00    +0.144 HD
ATOM     30  H   UNL     1      31.749  -5.800 -22.207  0.00  0.00    +0.144 HD
ATOM     31  H   UNL     1      32.761  -6.441 -18.928  0.00  0.00    +0.188 HD
ENDBRANCH  25  28
ENDBRANCH  19  20
ENDBRANCH   2  19
TORSDOF 7
ENDMDL
MODEL 8
REMARK VINA RESULT:     -10.3      6.882     10.598
REMARK  Name = 24963037
REMARK  7 active torsions:
REMARK  status: ('A' for Active; 'I' for Inactive)
REMARK    1  A    between atoms: N_2  and  C_19
REMARK    2  A    between atoms: C_3  and  C_7
REMARK    3  A    between atoms: C_11  and  C_12
REMARK    4  A    between atoms: C_12  and  C_13
REMARK    5  A    between atoms: C_13  and  C_14
REMARK    6  A    between atoms: C_19  and  C_20
REMARK    7  A    between atoms: C_25  and  C_28
REMARK                            x       y       z     vdW  Elec       q    Type
REMARK                         _______ _______ _______ _____ _____    ______ ____
ROOT
ATOM      1  O   UNL     1      33.859 -16.967 -23.205  0.00  0.00    -0.273 OA
ATOM      2  N   UNL     1      35.430 -17.677 -21.641  0.00  0.00    -0.299 N 
ATOM      3  C   UNL     1      34.607 -16.749 -22.255  0.00  0.00    +0.241 C 
ATOM      4  H   UNL     1      35.988 -17.381 -20.885  0.00  0.00    +0.150 HD
ENDROOT
BRANCH   3   7
ATOM      5  O   UNL     1      34.977 -14.210 -24.211  0.00  0.00    -0.275 OA
ATOM      6  N   UNL     1      33.734 -14.536 -22.286  0.00  0.00    -0.273 N 
ATOM      7  C   UNL     1      34.695 -15.398 -21.611  0.00  0.00    +0.152 C 
ATOM      8  C   UNL     1      34.232 -15.433 -20.160  0.00  0.00    +0.031 C 
ATOM      9  C   UNL     1      32.583 -14.260 -21.431  0.00  0.00    +0.094 C 
ATOM     10  C   UNL     1      32.723 -15.225 -20.263  0.00  0.00    +0.024 C 
ATOM     11  C   UNL     1      33.993 -13.952 -23.516  0.00  0.00    +0.226 C 
BRANCH  11  12
ATOM     12  C   UNL     1      32.968 -12.952 -23.988  0.00  0.00    +0.085 C 
BRANCH  12  13
ATOM     13  C   UNL     1      33.636 -11.844 -24.785  0.00  0.00    +0.010 C 
BRANCH  13  14
ATOM     14  C   UNL     1      33.981 -10.633 -23.936  0.00  0.00    +0.000 C 
ATOM     15  C   UNL     1      34.958  -9.679 -24.618  0.00  0.00    +0.000 C 
ATOM     16  C   UNL     1      32.784  -9.730 -23.661  0.00  0.00    +0.000 C 
ATOM     17  C   UNL     1      34.806  -8.375 -23.841  0.00  0.00    +0.000 C 
ATOM     18  C   UNL     1      33.411  -8.412 -23.216  0.00  0.00    +0.000 C 
ENDBRANCH  13  14
ENDBRANCH  12  13
ENDBRANCH  11  12
ENDBRANCH   3   7
BRANCH   2  19
ATOM     19  C   UNL     1      35.514 -19.058 -22.058  0.00  0.00    +0.116 C 
BRANCH  19  20
ATOM     20  C   UNL     1      34.935 -19.990 -21.032  0.00  0.00    -0.003 C 
ATOM     21  C   UNL     1      33.563 -19.980 -20.778  0.00  0.00    -0.003 C 
ATOM     22  C   UNL     1      35.768 -20.864 -20.334  0.00  0.00    -0.003 C 
ATOM     23  C   UNL     1      33.025 -20.845 -19.825  0.00  0.00    +0.002 C 
ATOM     24  C   UNL     1      35.230 -21.728 -19.380  0.00  0.00    +0.002 C 
ATOM     25  C   UNL     1      33.858 -21.718 -19.126  0.00  0.00    +0.031 C 
BRANCH  25  28
ATOM     26  N   UNL     1      31.950 -22.563 -17.781  0.00  0.00    -0.343 N 
ATOM     27  N   UNL     1      34.072 -23.513 -17.542  0.00  0.00    -0.285 NA
ATOM     28  C   UNL     1      33.296 -22.620 -18.132  0.00  0.00    +0.117 C 
ATOM     29  H   UNL     1      31.591 -23.183 -17.106  0.00  0.00    +0.144 HD
ATOM     30  H   UNL     1      31.357 -21.903 -18.208  0.00  0.00    +0.144 HD
ATOM     31  H   UNL     1      33.694 -24.124 -16.868  0.00  0.00    +0.188 HD
ENDBRANCH  25  28
ENDBRANCH  19  20
ENDBRANCH   2  19
TORSDOF 7
ENDMDL
MODEL 9
REMARK VINA RESULT:     -10.2      9.362     14.580
REMARK  Name = 24963037
REMARK  7 active torsions:
REMARK  status: ('A' for Active; 'I' for Inactive)
REMARK    1  A    between atoms: N_2  and  C_19
REMARK    2  A    between atoms: C_3  and  C_7
REMARK    3  A    between atoms: C_11  and  C_12
REMARK    4  A    between atoms: C_12  and  C_13
REMARK    5  A    between atoms: C_13  and  C_14
REMARK    6  A    between atoms: C_19  and  C_20
REMARK    7  A    between atoms: C_25  and  C_28
REMARK                            x       y       z     vdW  Elec       q    Type
REMARK                         _______ _______ _______ _____ _____    ______ ____
ROOT
ATOM      1  O   UNL     1      32.225 -14.757 -22.302  0.00  0.00    -0.273 OA
ATOM      2  N   UNL     1      32.654 -12.498 -22.668  0.00  0.00    -0.299 N 
ATOM      3  C   UNL     1      32.876 -13.856 -22.825  0.00  0.00    +0.241 C 
ATOM      4  H   UNL     1      33.247 -11.869 -23.141  0.00  0.00    +0.150 HD
ENDROOT
BRANCH   3   7
ATOM      5  O   UNL     1      35.123 -15.927 -21.791  0.00  0.00    -0.275 OA
ATOM      6  N   UNL     1      34.137 -15.589 -23.857  0.00  0.00    -0.273 N 
ATOM      7  C   UNL     1      34.020 -14.140 -23.751  0.00  0.00    +0.152 C 
ATOM      8  C   UNL     1      33.729 -13.670 -25.171  0.00  0.00    +0.031 C 
ATOM      9  C   UNL     1      33.681 -16.060 -25.163  0.00  0.00    +0.094 C 
ATOM     10  C   UNL     1      32.998 -14.857 -25.795  0.00  0.00    +0.024 C 
ATOM     11  C   UNL     1      34.751 -16.360 -22.883  0.00  0.00    +0.226 C 
BRANCH  11  12
ATOM     12  C   UNL     1      34.943 -17.814 -23.232  0.00  0.00    +0.085 C 
BRANCH  12  13
ATOM     13  C   UNL     1      35.599 -18.554 -22.079  0.00  0.00    +0.010 C 
BRANCH  13  14
ATOM     14  C   UNL     1      34.756 -19.707 -21.561  0.00  0.00    +0.000 C 
ATOM     15  C   UNL     1      35.413 -20.464 -20.410  0.00  0.00    +0.000 C 
ATOM     16  C   UNL     1      33.437 -19.257 -20.943  0.00  0.00    +0.000 C 
ATOM     17  C   UNL     1      34.262 -21.229 -19.764  0.00  0.00    +0.000 C 
ATOM     18  C   UNL     1      32.989 -20.458 -20.116  0.00  0.00    +0.000 C 
ENDBRANCH  13  14
ENDBRANCH  12  13
ENDBRANCH  11  12
ENDBRANCH   3   7
BRANCH   2  19
ATOM     19  C   UNL     1      31.596 -11.960 -21.844  0.00  0.00    +0.116 C 
BRANCH  19  20
ATOM     20  C   UNL     1      31.690 -10.468 -21.714  0.00  0.00    -0.003 C 
ATOM     21  C   UNL     1      31.573  -9.661 -22.847  0.00  0.00    -0.003 C 
ATOM     22  C   UNL     1      31.894  -9.887 -20.463  0.00  0.00    -0.003 C 
ATOM     23  C   UNL     1      31.660  -8.274 -22.727  0.00  0.00    +0.002 C 
ATOM     24  C   UNL     1      31.982  -8.499 -20.343  0.00  0.00    +0.002 C 
ATOM     25  C   UNL     1      31.865  -7.694 -21.476  0.00  0.00    +0.031 C 
BRANCH  25  28
ATOM     26  N   UNL     1      31.568  -5.404 -22.391  0.00  0.00    -0.343 N 
ATOM     27  N   UNL     1      32.419  -5.711 -20.236  0.00  0.00    -0.285 NA
ATOM     28  C   UNL     1      31.956  -6.247 -21.351  0.00  0.00    +0.117 C 
ATOM     29  H   UNL     1      31.638  -4.428 -22.285  0.00  0.00    +0.144 HD
ATOM     30  H   UNL     1      31.223  -5.785 -23.231  0.00  0.00    +0.144 HD
ATOM     31  H   UNL     1      32.482  -4.732 -20.150  0.00  0.00    +0.188 HD
ENDBRANCH  25  28
ENDBRANCH  19  20
ENDBRANCH   2  19
TORSDOF 7
ENDMDL
