MODEL 1
REMARK VINA RESULT:      -8.3      0.000      0.000
REMARK  Name = 47953
REMARK  1 active torsions:
REMARK  status: ('A' for Active; 'I' for Inactive)
REMARK    1  A    between atoms: C_2  and  C_9
REMARK                            x       y       z     vdW  Elec       q    Type
REMARK                         _______ _______ _______ _____ _____    ______ ____
ROOT
ATOM      1  N   UNL     1      34.778 -17.722 -23.934  0.00  0.00    +0.384 N 
ATOM      2  C   UNL     1      35.278 -19.003 -22.028  0.00  0.00    -0.003 C 
ATOM      3  C   UNL     1      35.434 -17.571 -21.682  0.00  0.00    -0.019 C 
ATOM      4  C   UNL     1      36.660 -18.436 -21.832  0.00  0.00    +0.000 C 
ATOM      5  C   UNL     1      34.629 -19.073 -23.373  0.00  0.00    -0.078 C 
ATOM      6  C   UNL     1      34.882 -16.771 -22.817  0.00  0.00    -0.081 C 
ATOM      7  H   UNL     1      33.966 -17.494 -24.507  0.00  0.00    -0.085 HD
ATOM      8  H   UNL     1      35.613 -17.673 -24.518  0.00  0.00    -0.085 HD
ENDROOT
BRANCH   2   9
ATOM      9  C   UNL     1      34.791 -19.977 -21.016  0.00  0.00    -0.025 C 
ATOM     10  C   UNL     1      33.431 -20.045 -20.706  0.00  0.00    -0.005 C 
ATOM     11  C   UNL     1      35.692 -20.827 -20.370  0.00  0.00    -0.005 C 
ATOM     12  C   UNL     1      32.974 -20.959 -19.756  0.00  0.00    -0.005 C 
ATOM     13  C   UNL     1      35.235 -21.740 -19.420  0.00  0.00    -0.005 C 
ATOM     14  C   UNL     1      33.876 -21.806 -19.113  0.00  0.00    -0.022 C 
ATOM     15  C   UNL     1      33.387 -22.784 -18.098  0.00  0.00    +0.031 C 
ENDBRANCH   2   9
TORSDOF 1
ENDMDL
MODEL 2
REMARK VINA RESULT:      -8.3      0.058      1.341
REMARK  Name = 47953
REMARK  1 active torsions:
REMARK  status: ('A' for Active; 'I' for Inactive)
REMARK    1  A    between atoms: C_2  and  C_9
REMARK                            x       y       z     vdW  Elec       q    Type
REMARK                         _______ _______ _______ _____ _____    ______ ____
ROOT
ATOM      1  N   UNL     1      34.705 -17.690 -23.939  0.00  0.00    +0.384 N 
ATOM      2  C   UNL     1      35.222 -18.974 -22.040  0.00  0.00    -0.003 C 
ATOM      3  C   UNL     1      35.382 -17.543 -21.694  0.00  0.00    -0.019 C 
ATOM      4  C   UNL     1      36.606 -18.408 -21.856  0.00  0.00    +0.000 C 
ATOM      5  C   UNL     1      34.560 -19.042 -23.379  0.00  0.00    -0.078 C 
ATOM      6  C   UNL     1      34.819 -16.741 -22.821  0.00  0.00    -0.081 C 
ATOM      7  H   UNL     1      33.887 -17.461 -24.504  0.00  0.00    -0.085 HD
ATOM      8  H   UNL     1      35.535 -17.641 -24.531  0.00  0.00    -0.085 HD
ENDROOT
BRANCH   2   9
ATOM      9  C   UNL     1      34.744 -19.950 -21.025  0.00  0.00    -0.025 C 
ATOM     10  C   UNL     1      35.651 -20.798 -20.386  0.00  0.00    -0.005 C 
ATOM     11  C   UNL     1      33.386 -20.023 -20.706  0.00  0.00    -0.005 C 
ATOM     12  C   UNL     1      35.203 -21.713 -19.434  0.00  0.00    -0.005 C 
ATOM     13  C   UNL     1      32.938 -20.938 -19.754  0.00  0.00    -0.005 C 
ATOM     14  C   UNL     1      33.847 -21.783 -19.118  0.00  0.00    -0.022 C 
ATOM     15  C   UNL     1      33.368 -22.761 -18.097  0.00  0.00    +0.031 C 
ENDBRANCH   2   9
TORSDOF 1
ENDMDL
MODEL 3
REMARK VINA RESULT:      -8.1      1.111      1.426
REMARK  Name = 47953
REMARK  1 active torsions:
REMARK  status: ('A' for Active; 'I' for Inactive)
REMARK    1  A    between atoms: C_2  and  C_9
REMARK                            x       y       z     vdW  Elec       q    Type
REMARK                         _______ _______ _______ _____ _____    ______ ____
ROOT
ATOM      1  N   UNL     1      35.340 -16.498 -23.780  0.00  0.00    +0.384 N 
ATOM      2  C   UNL     1      34.960 -17.611 -21.746  0.00  0.00    -0.003 C 
ATOM      3  C   UNL     1      33.901 -16.591 -21.925  0.00  0.00    -0.019 C 
ATOM      4  C   UNL     1      34.979 -16.368 -20.896  0.00  0.00    +0.000 C 
ATOM      5  C   UNL     1      35.713 -17.708 -23.033  0.00  0.00    -0.078 C 
ATOM      6  C   UNL     1      34.012 -16.067 -23.320  0.00  0.00    -0.081 C 
ATOM      7  H   UNL     1      35.309 -16.704 -24.779  0.00  0.00    -0.085 HD
ATOM      8  H   UNL     1      36.026 -15.760 -23.621  0.00  0.00    -0.085 HD
ENDROOT
BRANCH   2   9
ATOM      9  C   UNL     1      34.662 -18.898 -21.064  0.00  0.00    -0.025 C 
ATOM     10  C   UNL     1      33.339 -19.275 -20.824  0.00  0.00    -0.005 C 
ATOM     11  C   UNL     1      35.705 -19.736 -20.659  0.00  0.00    -0.005 C 
ATOM     12  C   UNL     1      33.059 -20.482 -20.183  0.00  0.00    -0.005 C 
ATOM     13  C   UNL     1      35.425 -20.943 -20.019  0.00  0.00    -0.005 C 
ATOM     14  C   UNL     1      34.103 -21.316 -19.781  0.00  0.00    -0.022 C 
ATOM     15  C   UNL     1      33.803 -22.609 -19.098  0.00  0.00    +0.031 C 
ENDBRANCH   2   9
TORSDOF 1
ENDMDL
MODEL 4
REMARK VINA RESULT:      -8.1      1.138      1.992
REMARK  Name = 47953
REMARK  1 active torsions:
REMARK  status: ('A' for Active; 'I' for Inactive)
REMARK    1  A    between atoms: C_2  and  C_9
REMARK                            x       y       z     vdW  Elec       q    Type
REMARK                         _______ _______ _______ _____ _____    ______ ____
ROOT
ATOM      1  N   UNL     1      35.333 -16.409 -23.735  0.00  0.00    +0.384 N 
ATOM      2  C   UNL     1      34.938 -17.556 -21.722  0.00  0.00    -0.003 C 
ATOM      3  C   UNL     1      33.855 -16.564 -21.915  0.00  0.00    -0.019 C 
ATOM      4  C   UNL     1      34.902 -16.322 -20.859  0.00  0.00    +0.000 C 
ATOM      5  C   UNL     1      35.723 -17.617 -22.992  0.00  0.00    -0.078 C 
ATOM      6  C   UNL     1      33.983 -16.021 -23.301  0.00  0.00    -0.081 C 
ATOM      7  H   UNL     1      35.332 -16.605 -24.736  0.00  0.00    -0.085 HD
ATOM      8  H   UNL     1      35.994 -15.654 -23.552  0.00  0.00    -0.085 HD
ENDROOT
BRANCH   2   9
ATOM      9  C   UNL     1      34.661 -18.858 -21.061  0.00  0.00    -0.025 C 
ATOM     10  C   UNL     1      35.716 -19.699 -20.698  0.00  0.00    -0.005 C 
ATOM     11  C   UNL     1      33.345 -19.248 -20.801  0.00  0.00    -0.005 C 
ATOM     12  C   UNL     1      35.457 -20.921 -20.078  0.00  0.00    -0.005 C 
ATOM     13  C   UNL     1      33.086 -20.471 -20.181  0.00  0.00    -0.005 C 
ATOM     14  C   UNL     1      34.142 -21.306 -19.820  0.00  0.00    -0.022 C 
ATOM     15  C   UNL     1      33.864 -22.613 -19.155  0.00  0.00    +0.031 C 
ENDBRANCH   2   9
TORSDOF 1
ENDMDL
MODEL 5
REMARK VINA RESULT:      -7.6      2.115      5.672
REMARK  Name = 47953
REMARK  1 active torsions:
REMARK  status: ('A' for Active; 'I' for Inactive)
REMARK    1  A    between atoms: C_2  and  C_9
REMARK                            x       y       z     vdW  Elec       q    Type
REMARK                         _______ _______ _______ _____ _____    ______ ____
ROOT
ATOM      1  N   UNL     1      35.946 -19.843 -20.444  0.00  0.00    +0.384 N 
ATOM      2  C   UNL     1      35.122 -18.370 -22.081  0.00  0.00    -0.003 C 
ATOM      3  C   UNL     1      34.072 -19.371 -21.782  0.00  0.00    -0.019 C 
ATOM      4  C   UNL     1      34.810 -19.441 -23.093  0.00  0.00    +0.000 C 
ATOM      5  C   UNL     1      36.200 -18.531 -21.058  0.00  0.00    -0.078 C 
ATOM      6  C   UNL     1      34.512 -20.140 -20.578  0.00  0.00    -0.081 C 
ATOM      7  H   UNL     1      36.202 -19.818 -19.457  0.00  0.00    -0.085 HD
ATOM      8  H   UNL     1      36.501 -20.562 -20.908  0.00  0.00    -0.085 HD
ENDROOT
BRANCH   2   9
ATOM      9  C   UNL     1      34.758 -16.973 -22.432  0.00  0.00    -0.025 C 
ATOM     10  C   UNL     1      34.514 -16.625 -23.763  0.00  0.00    -0.005 C 
ATOM     11  C   UNL     1      34.658 -16.001 -21.434  0.00  0.00    -0.005 C 
ATOM     12  C   UNL     1      34.172 -15.314 -24.093  0.00  0.00    -0.005 C 
ATOM     13  C   UNL     1      34.316 -14.689 -21.764  0.00  0.00    -0.005 C 
ATOM     14  C   UNL     1      34.073 -14.346 -23.094  0.00  0.00    -0.022 C 
ATOM     15  C   UNL     1      33.705 -12.944 -23.447  0.00  0.00    +0.031 C 
ENDBRANCH   2   9
TORSDOF 1
ENDMDL
MODEL 6
REMARK VINA RESULT:      -7.2      2.629      5.322
REMARK  Name = 47953
REMARK  1 active torsions:
REMARK  status: ('A' for Active; 'I' for Inactive)
REMARK    1  A    between atoms: C_2  and  C_9
REMARK                            x       y       z     vdW  Elec       q    Type
REMARK                         _______ _______ _______ _____ _____    ______ ____
ROOT
ATOM      1  N   UNL     1      35.032 -22.982 -16.897  0.00  0.00    +0.384 N 
ATOM      2  C   UNL     1      34.814 -22.055 -19.046  0.00  0.00    -0.003 C 
ATOM      3  C   UNL     1      33.489 -22.563 -18.619  0.00  0.00    -0.019 C 
ATOM      4  C   UNL     1      34.258 -23.302 -19.684  0.00  0.00    +0.000 C 
ATOM      5  C   UNL     1      35.718 -22.104 -17.856  0.00  0.00    -0.078 C 
ATOM      6  C   UNL     1      33.589 -22.921 -17.172  0.00  0.00    -0.081 C 
ATOM      7  H   UNL     1      35.216 -22.664 -15.945  0.00  0.00    -0.085 HD
ATOM      8  H   UNL     1      35.370 -23.940 -16.992  0.00  0.00    -0.085 HD
ENDROOT
BRANCH   2   9
ATOM      9  C   UNL     1      34.920 -20.842 -19.898  0.00  0.00    -0.025 C 
ATOM     10  C   UNL     1      33.767 -20.234 -20.400  0.00  0.00    -0.005 C 
ATOM     11  C   UNL     1      36.174 -20.305 -20.203  0.00  0.00    -0.005 C 
ATOM     12  C   UNL     1      33.866 -19.097 -21.201  0.00  0.00    -0.005 C 
ATOM     13  C   UNL     1      36.273 -19.168 -21.003  0.00  0.00    -0.005 C 
ATOM     14  C   UNL     1      35.119 -18.564 -21.502  0.00  0.00    -0.022 C 
ATOM     15  C   UNL     1      35.226 -17.345 -22.357  0.00  0.00    +0.031 C 
ENDBRANCH   2   9
TORSDOF 1
ENDMDL
MODEL 7
REMARK VINA RESULT:      -7.1      3.635      5.239
REMARK  Name = 47953
REMARK  1 active torsions:
REMARK  status: ('A' for Active; 'I' for Inactive)
REMARK    1  A    between atoms: C_2  and  C_9
REMARK                            x       y       z     vdW  Elec       q    Type
REMARK                         _______ _______ _______ _____ _____    ______ ____
ROOT
ATOM      1  N   UNL     1      33.180 -12.767 -22.873  0.00  0.00    +0.384 N 
ATOM      2  C   UNL     1      34.057 -14.927 -22.578  0.00  0.00    -0.003 C 
ATOM      3  C   UNL     1      32.965 -14.729 -21.597  0.00  0.00    -0.019 C 
ATOM      4  C   UNL     1      34.395 -14.748 -21.121  0.00  0.00    +0.000 C 
ATOM      5  C   UNL     1      34.017 -13.779 -23.534  0.00  0.00    -0.078 C 
ATOM      6  C   UNL     1      32.262 -13.460 -21.956  0.00  0.00    -0.081 C 
ATOM      7  H   UNL     1      32.646 -12.251 -23.572  0.00  0.00    -0.085 HD
ATOM      8  H   UNL     1      33.764 -12.108 -22.357  0.00  0.00    -0.085 HD
ENDROOT
BRANCH   2   9
ATOM      9  C   UNL     1      34.303 -16.266 -23.175  0.00  0.00    -0.025 C 
ATOM     10  C   UNL     1      34.589 -17.359 -22.353  0.00  0.00    -0.005 C 
ATOM     11  C   UNL     1      34.250 -16.438 -24.560  0.00  0.00    -0.005 C 
ATOM     12  C   UNL     1      34.821 -18.615 -22.912  0.00  0.00    -0.005 C 
ATOM     13  C   UNL     1      34.482 -17.695 -25.120  0.00  0.00    -0.005 C 
ATOM     14  C   UNL     1      34.767 -18.783 -24.295  0.00  0.00    -0.022 C 
ATOM     15  C   UNL     1      35.013 -20.128 -24.894  0.00  0.00    +0.031 C 
ENDBRANCH   2   9
TORSDOF 1
ENDMDL
MODEL 8
REMARK VINA RESULT:      -7.1      3.376      5.550
REMARK  Name = 47953
REMARK  1 active torsions:
REMARK  status: ('A' for Active; 'I' for Inactive)
REMARK    1  A    between atoms: C_2  and  C_9
REMARK                            x       y       z     vdW  Elec       q    Type
REMARK                         _______ _______ _______ _____ _____    ______ ____
ROOT
ATOM      1  N   UNL     1      32.247 -12.074 -22.752  0.00  0.00    +0.384 N 
ATOM      2  C   UNL     1      33.209 -14.165 -23.230  0.00  0.00    -0.003 C 
ATOM      3  C   UNL     1      33.878 -13.141 -24.066  0.00  0.00    -0.019 C 
ATOM      4  C   UNL     1      32.927 -14.117 -24.710  0.00  0.00    +0.000 C 
ATOM      5  C   UNL     1      32.358 -13.446 -22.234  0.00  0.00    -0.078 C 
ATOM      6  C   UNL     1      33.433 -11.800 -23.578  0.00  0.00    -0.081 C 
ATOM      7  H   UNL     1      32.208 -11.414 -21.975  0.00  0.00    -0.085 HD
ATOM      8  H   UNL     1      31.398 -11.975 -23.308  0.00  0.00    -0.085 HD
ENDROOT
BRANCH   2   9
ATOM      9  C   UNL     1      33.967 -15.336 -22.718  0.00  0.00    -0.025 C 
ATOM     10  C   UNL     1      34.144 -15.511 -21.344  0.00  0.00    -0.005 C 
ATOM     11  C   UNL     1      34.506 -16.268 -23.610  0.00  0.00    -0.005 C 
ATOM     12  C   UNL     1      34.856 -16.610 -20.864  0.00  0.00    -0.005 C 
ATOM     13  C   UNL     1      35.218 -17.366 -23.129  0.00  0.00    -0.005 C 
ATOM     14  C   UNL     1      35.393 -17.538 -21.757  0.00  0.00    -0.022 C 
ATOM     15  C   UNL     1      36.152 -18.715 -21.242  0.00  0.00    +0.031 C 
ENDBRANCH   2   9
TORSDOF 1
ENDMDL
MODEL 9
REMARK VINA RESULT:      -7.1      6.010      9.756
REMARK  Name = 47953
REMARK  1 active torsions:
REMARK  status: ('A' for Active; 'I' for Inactive)
REMARK    1  A    between atoms: C_2  and  C_9
REMARK                            x       y       z     vdW  Elec       q    Type
REMARK                         _______ _______ _______ _____ _____    ______ ____
ROOT
ATOM      1  N   UNL     1      33.449 -15.031 -25.056  0.00  0.00    +0.384 N 
ATOM      2  C   UNL     1      33.238 -12.951 -23.982  0.00  0.00    -0.003 C 
ATOM      3  C   UNL     1      33.883 -13.898 -23.043  0.00  0.00    -0.019 C 
ATOM      4  C   UNL     1      32.456 -13.476 -22.806  0.00  0.00    +0.000 C 
ATOM      5  C   UNL     1      33.195 -13.608 -25.324  0.00  0.00    -0.078 C 
ATOM      6  C   UNL     1      34.230 -15.131 -23.813  0.00  0.00    -0.081 C 
ATOM      7  H   UNL     1      33.975 -15.440 -25.828  0.00  0.00    -0.085 HD
ATOM      8  H   UNL     1      32.567 -15.535 -24.960  0.00  0.00    -0.085 HD
ENDROOT
BRANCH   2   9
ATOM      9  C   UNL     1      33.602 -11.510 -23.970  0.00  0.00    -0.025 C 
ATOM     10  C   UNL     1      32.890 -10.613 -23.170  0.00  0.00    -0.005 C 
ATOM     11  C   UNL     1      34.656 -11.046 -24.761  0.00  0.00    -0.005 C 
ATOM     12  C   UNL     1      33.231  -9.261 -23.159  0.00  0.00    -0.005 C 
ATOM     13  C   UNL     1      34.997  -9.693 -24.750  0.00  0.00    -0.005 C 
ATOM     14  C   UNL     1      34.284  -8.801 -23.950  0.00  0.00    -0.022 C 
ATOM     15  C   UNL     1      34.650  -7.355 -23.936  0.00  0.00    +0.031 C 
ENDBRANCH   2   9
TORSDOF 1
ENDMDL
