MODEL 1
REMARK VINA RESULT:     -11.3      0.000      0.000
REMARK  Name = 5326928
REMARK  3 active torsions:
REMARK  status: ('A' for Active; 'I' for Inactive)
REMARK    1  A    between atoms: C_7  and  C_21
REMARK    2  A    between atoms: C_21  and  C_22
REMARK    3  A    between atoms: C_22  and  C_23
REMARK                            x       y       z     vdW  Elec       q    Type
REMARK                         _______ _______ _______ _____ _____    ______ ____
ROOT
ATOM      1  O   UNL     1      34.436 -24.240 -12.055  0.00  0.00    -0.209 OA
ATOM      2  N   UNL     1      35.457 -23.974 -15.919  0.00  0.00    -0.275 N 
ATOM      3  N   UNL     1      30.175 -22.900 -14.820  0.00  0.00    -0.315 N 
ATOM      4  N   UNL     1      30.773 -22.759 -16.955  0.00  0.00    -0.316 N 
ATOM      5  N   UNL     1      36.062 -24.407 -13.659  0.00  0.00    -0.302 NA
ATOM      6  N   UNL     1      37.620 -24.538 -15.404  0.00  0.00    -0.320 N 
ATOM      7  C   UNL     1      33.188 -23.366 -16.575  0.00  0.00    +0.007 C 
ATOM      8  C   UNL     1      34.124 -23.710 -15.588  0.00  0.00    +0.060 C 
ATOM      9  C   UNL     1      31.861 -23.110 -16.191  0.00  0.00    +0.056 C 
ATOM     10  C   UNL     1      31.512 -23.204 -14.846  0.00  0.00    +0.060 C 
ATOM     11  C   UNL     1      33.733 -23.795 -14.242  0.00  0.00    +0.109 C 
ATOM     12  C   UNL     1      32.414 -23.544 -13.838  0.00  0.00    +0.029 C 
ATOM     13  C   UNL     1      34.769 -24.164 -13.235  0.00  0.00    +0.208 C 
ATOM     14  C   UNL     1      29.780 -22.641 -16.103  0.00  0.00    +0.182 C 
ATOM     15  C   UNL     1      36.352 -24.309 -14.929  0.00  0.00    +0.248 C 
ATOM     16  H   UNL     1      35.753 -23.921 -16.857  0.00  0.00    +0.156 HD
ATOM     17  H   UNL     1      29.602 -22.872 -14.020  0.00  0.00    +0.148 HD
ATOM     18  H   UNL     1      30.744 -22.626 -17.931  0.00  0.00    +0.148 HD
ATOM     19  H   UNL     1      37.806 -24.457 -16.367  0.00  0.00    +0.146 HD
ATOM     20  H   UNL     1      38.342 -24.786 -14.783  0.00  0.00    +0.146 HD
ENDROOT
BRANCH   7  21
ATOM     21  C   UNL     1      33.598 -23.274 -18.012  0.00  0.00    +0.034 C 
BRANCH  21  22
ATOM     22  C   UNL     1      34.738 -22.273 -18.272  0.00  0.00    +0.031 C 
BRANCH  22  23
ATOM     23  C   UNL     1      34.443 -21.313 -19.398  0.00  0.00    -0.022 C 
ATOM     24  C   UNL     1      33.126 -20.982 -19.682  0.00  0.00    -0.004 C 
ATOM     25  C   UNL     1      35.492 -20.780 -20.130  0.00  0.00    -0.004 C 
ATOM     26  C   UNL     1      32.853 -20.095 -20.722  0.00  0.00    -0.000 C 
ATOM     27  C   UNL     1      35.219 -19.892 -21.172  0.00  0.00    -0.000 C 
ATOM     28  C   UNL     1      33.900 -19.550 -21.468  0.00  0.00    -0.000 C 
ENDBRANCH  22  23
ENDBRANCH  21  22
ENDBRANCH   7  21
TORSDOF 3
ENDMDL
MODEL 2
REMARK VINA RESULT:     -11.1      1.018      4.062
REMARK  Name = 5326928
REMARK  3 active torsions:
REMARK  status: ('A' for Active; 'I' for Inactive)
REMARK    1  A    between atoms: C_7  and  C_21
REMARK    2  A    between atoms: C_21  and  C_22
REMARK    3  A    between atoms: C_22  and  C_23
REMARK                            x       y       z     vdW  Elec       q    Type
REMARK                         _______ _______ _______ _____ _____    ______ ____
ROOT
ATOM      1  O   UNL     1      30.830 -23.674 -12.773  0.00  0.00    -0.209 OA
ATOM      2  N   UNL     1      31.318 -23.047 -16.698  0.00  0.00    -0.275 N 
ATOM      3  N   UNL     1      35.942 -24.100 -13.909  0.00  0.00    -0.315 N 
ATOM      4  N   UNL     1      36.180 -23.749 -16.090  0.00  0.00    -0.316 N 
ATOM      5  N   UNL     1      29.886 -23.202 -14.804  0.00  0.00    -0.302 NA
ATOM      6  N   UNL     1      29.061 -22.728 -16.946  0.00  0.00    -0.320 N 
ATOM      7  C   UNL     1      33.732 -23.369 -16.546  0.00  0.00    +0.007 C 
ATOM      8  C   UNL     1      32.465 -23.319 -15.944  0.00  0.00    +0.060 C 
ATOM      9  C   UNL     1      34.852 -23.646 -15.745  0.00  0.00    +0.056 C 
ATOM     10  C   UNL     1      34.676 -23.863 -14.381  0.00  0.00    +0.060 C 
ATOM     11  C   UNL     1      32.329 -23.543 -14.565  0.00  0.00    +0.109 C 
ATOM     12  C   UNL     1      33.434 -23.821 -13.748  0.00  0.00    +0.029 C 
ATOM     13  C   UNL     1      30.959 -23.478 -13.978  0.00  0.00    +0.208 C 
ATOM     14  C   UNL     1      36.805 -24.021 -14.967  0.00  0.00    +0.182 C 
ATOM     15  C   UNL     1      30.090 -23.005 -16.080  0.00  0.00    +0.248 C 
ATOM     16  H   UNL     1      31.391 -22.886 -17.667  0.00  0.00    +0.156 HD
ATOM     17  H   UNL     1      36.186 -24.292 -12.975  0.00  0.00    +0.148 HD
ATOM     18  H   UNL     1      36.576 -23.641 -16.985  0.00  0.00    +0.148 HD
ATOM     19  H   UNL     1      29.248 -22.584 -17.901  0.00  0.00    +0.146 HD
ATOM     20  H   UNL     1      28.137 -22.673 -16.611  0.00  0.00    +0.146 HD
ENDROOT
BRANCH   7  21
ATOM     21  C   UNL     1      33.885 -23.130 -18.016  0.00  0.00    +0.034 C 
BRANCH  21  22
ATOM     22  C   UNL     1      35.007 -22.140 -18.373  0.00  0.00    +0.031 C 
BRANCH  22  23
ATOM     23  C   UNL     1      34.636 -21.197 -19.492  0.00  0.00    -0.022 C 
ATOM     24  C   UNL     1      35.641 -20.591 -20.231  0.00  0.00    -0.004 C 
ATOM     25  C   UNL     1      33.299 -20.953 -19.760  0.00  0.00    -0.004 C 
ATOM     26  C   UNL     1      35.298 -19.720 -21.265  0.00  0.00    -0.000 C 
ATOM     27  C   UNL     1      32.956 -20.081 -20.795  0.00  0.00    -0.000 C 
ATOM     28  C   UNL     1      33.955 -19.465 -21.547  0.00  0.00    -0.000 C 
ENDBRANCH  22  23
ENDBRANCH  21  22
ENDBRANCH   7  21
TORSDOF 3
ENDMDL
MODEL 3
REMARK VINA RESULT:     -10.7      1.446      2.222
REMARK  Name = 5326928
REMARK  3 active torsions:
REMARK  status: ('A' for Active; 'I' for Inactive)
REMARK    1  A    between atoms: C_7  and  C_21
REMARK    2  A    between atoms: C_21  and  C_22
REMARK    3  A    between atoms: C_22  and  C_23
REMARK                            x       y       z     vdW  Elec       q    Type
REMARK                         _______ _______ _______ _____ _____    ______ ____
ROOT
ATOM      1  O   UNL     1      36.695 -25.920 -11.860  0.00  0.00    -0.209 OA
ATOM      2  N   UNL     1      37.375 -24.187 -15.406  0.00  0.00    -0.275 N 
ATOM      3  N   UNL     1      32.233 -23.694 -13.513  0.00  0.00    -0.315 N 
ATOM      4  N   UNL     1      32.642 -22.742 -15.478  0.00  0.00    -0.316 N 
ATOM      5  N   UNL     1      38.169 -25.439 -13.545  0.00  0.00    -0.302 NA
ATOM      6  N   UNL     1      39.563 -24.871 -15.341  0.00  0.00    -0.320 N 
ATOM      7  C   UNL     1      35.069 -23.410 -15.575  0.00  0.00    +0.007 C 
ATOM      8  C   UNL     1      36.082 -24.090 -14.881  0.00  0.00    +0.060 C 
ATOM      9  C   UNL     1      33.786 -23.340 -15.005  0.00  0.00    +0.056 C 
ATOM     10  C   UNL     1      33.557 -23.945 -13.772  0.00  0.00    +0.060 C 
ATOM     11  C   UNL     1      35.810 -24.687 -13.640  0.00  0.00    +0.109 C 
ATOM     12  C   UNL     1      34.537 -24.629 -13.054  0.00  0.00    +0.029 C 
ATOM     13  C   UNL     1      36.923 -25.396 -12.946  0.00  0.00    +0.208 C 
ATOM     14  C   UNL     1      31.731 -22.972 -14.560  0.00  0.00    +0.182 C 
ATOM     15  C   UNL     1      38.347 -24.860 -14.702  0.00  0.00    +0.248 C 
ATOM     16  H   UNL     1      37.587 -23.777 -16.275  0.00  0.00    +0.156 HD
ATOM     17  H   UNL     1      31.734 -23.982 -12.715  0.00  0.00    +0.148 HD
ATOM     18  H   UNL     1      32.529 -22.247 -16.322  0.00  0.00    +0.148 HD
ATOM     19  H   UNL     1      39.664 -24.426 -16.213  0.00  0.00    +0.146 HD
ATOM     20  H   UNL     1      40.332 -25.326 -14.927  0.00  0.00    +0.146 HD
ENDROOT
BRANCH   7  21
ATOM     21  C   UNL     1      35.351 -22.771 -16.899  0.00  0.00    +0.034 C 
BRANCH  21  22
ATOM     22  C   UNL     1      34.203 -22.908 -17.914  0.00  0.00    +0.031 C 
BRANCH  22  23
ATOM     23  C   UNL     1      34.214 -21.834 -18.975  0.00  0.00    -0.022 C 
ATOM     24  C   UNL     1      35.426 -21.406 -19.496  0.00  0.00    -0.004 C 
ATOM     25  C   UNL     1      33.014 -21.294 -19.410  0.00  0.00    -0.004 C 
ATOM     26  C   UNL     1      35.437 -20.414 -20.476  0.00  0.00    -0.000 C 
ATOM     27  C   UNL     1      33.025 -20.302 -20.391  0.00  0.00    -0.000 C 
ATOM     28  C   UNL     1      34.236 -19.862 -20.924  0.00  0.00    -0.000 C 
ENDBRANCH  22  23
ENDBRANCH  21  22
ENDBRANCH   7  21
TORSDOF 3
ENDMDL
MODEL 4
REMARK VINA RESULT:     -10.7      7.649     10.872
REMARK  Name = 5326928
REMARK  3 active torsions:
REMARK  status: ('A' for Active; 'I' for Inactive)
REMARK    1  A    between atoms: C_7  and  C_21
REMARK    2  A    between atoms: C_21  and  C_22
REMARK    3  A    between atoms: C_22  and  C_23
REMARK                            x       y       z     vdW  Elec       q    Type
REMARK                         _______ _______ _______ _____ _____    ______ ____
ROOT
ATOM      1  O   UNL     1      34.941 -19.726 -24.901  0.00  0.00    -0.209 OA
ATOM      2  N   UNL     1      35.007 -17.172 -21.817  0.00  0.00    -0.275 N 
ATOM      3  N   UNL     1      33.176 -15.063 -26.557  0.00  0.00    -0.315 N 
ATOM      4  N   UNL     1      33.223 -13.671 -24.826  0.00  0.00    -0.316 N 
ATOM      5  N   UNL     1      35.405 -19.349 -22.691  0.00  0.00    -0.302 NA
ATOM      6  N   UNL     1      35.832 -18.818 -20.449  0.00  0.00    -0.320 N 
ATOM      7  C   UNL     1      34.131 -15.351 -23.183  0.00  0.00    +0.007 C 
ATOM      8  C   UNL     1      34.549 -16.683 -23.045  0.00  0.00    +0.060 C 
ATOM      9  C   UNL     1      33.679 -14.909 -24.438  0.00  0.00    +0.056 C 
ATOM     10  C   UNL     1      33.659 -15.801 -25.506  0.00  0.00    +0.060 C 
ATOM     11  C   UNL     1      34.514 -17.553 -24.147  0.00  0.00    +0.109 C 
ATOM     12  C   UNL     1      34.067 -17.132 -25.407  0.00  0.00    +0.029 C 
ATOM     13  C   UNL     1      34.969 -18.958 -23.944  0.00  0.00    +0.208 C 
ATOM     14  C   UNL     1      32.930 -13.797 -26.100  0.00  0.00    +0.182 C 
ATOM     15  C   UNL     1      35.410 -18.483 -21.712  0.00  0.00    +0.248 C 
ATOM     16  H   UNL     1      35.041 -16.579 -21.031  0.00  0.00    +0.156 HD
ATOM     17  H   UNL     1      33.031 -15.386 -27.475  0.00  0.00    +0.148 HD
ATOM     18  H   UNL     1      33.135 -12.863 -24.269  0.00  0.00    +0.148 HD
ATOM     19  H   UNL     1      35.824 -18.142 -19.733  0.00  0.00    +0.146 HD
ATOM     20  H   UNL     1      36.143 -19.732 -20.260  0.00  0.00    +0.146 HD
ENDROOT
BRANCH   7  21
ATOM     21  C   UNL     1      34.166 -14.418 -22.012  0.00  0.00    +0.034 C 
BRANCH  21  22
ATOM     22  C   UNL     1      32.873 -14.415 -21.179  0.00  0.00    +0.031 C 
BRANCH  22  23
ATOM     23  C   UNL     1      32.260 -13.043 -21.036  0.00  0.00    -0.022 C 
ATOM     24  C   UNL     1      31.850 -12.359 -22.171  0.00  0.00    -0.004 C 
ATOM     25  C   UNL     1      32.117 -12.490 -19.773  0.00  0.00    -0.004 C 
ATOM     26  C   UNL     1      31.284 -11.092 -22.038  0.00  0.00    -0.000 C 
ATOM     27  C   UNL     1      31.550 -11.222 -19.640  0.00  0.00    -0.000 C 
ATOM     28  C   UNL     1      31.134 -10.523 -20.773  0.00  0.00    -0.000 C 
ENDBRANCH  22  23
ENDBRANCH  21  22
ENDBRANCH   7  21
TORSDOF 3
ENDMDL
MODEL 5
REMARK VINA RESULT:     -10.7      7.645     10.892
REMARK  Name = 5326928
REMARK  3 active torsions:
REMARK  status: ('A' for Active; 'I' for Inactive)
REMARK    1  A    between atoms: C_7  and  C_21
REMARK    2  A    between atoms: C_21  and  C_22
REMARK    3  A    between atoms: C_22  and  C_23
REMARK                            x       y       z     vdW  Elec       q    Type
REMARK                         _______ _______ _______ _____ _____    ______ ____
ROOT
ATOM      1  O   UNL     1      34.935 -19.711 -24.906  0.00  0.00    -0.209 OA
ATOM      2  N   UNL     1      34.968 -17.158 -21.820  0.00  0.00    -0.275 N 
ATOM      3  N   UNL     1      33.192 -15.047 -26.581  0.00  0.00    -0.315 N 
ATOM      4  N   UNL     1      33.221 -13.655 -24.849  0.00  0.00    -0.316 N 
ATOM      5  N   UNL     1      35.374 -19.335 -22.690  0.00  0.00    -0.302 NA
ATOM      6  N   UNL     1      35.776 -18.804 -20.443  0.00  0.00    -0.320 N 
ATOM      7  C   UNL     1      34.109 -15.336 -23.196  0.00  0.00    +0.007 C 
ATOM      8  C   UNL     1      34.524 -16.669 -23.054  0.00  0.00    +0.060 C 
ATOM      9  C   UNL     1      33.672 -14.894 -24.456  0.00  0.00    +0.056 C 
ATOM     10  C   UNL     1      33.663 -15.786 -25.525  0.00  0.00    +0.060 C 
ATOM     11  C   UNL     1      34.501 -17.538 -24.156  0.00  0.00    +0.109 C 
ATOM     12  C   UNL     1      34.069 -17.117 -25.422  0.00  0.00    +0.029 C 
ATOM     13  C   UNL     1      34.953 -18.944 -23.948  0.00  0.00    +0.208 C 
ATOM     14  C   UNL     1      32.942 -13.782 -26.127  0.00  0.00    +0.182 C 
ATOM     15  C   UNL     1      35.369 -18.469 -21.711  0.00  0.00    +0.248 C 
ATOM     16  H   UNL     1      34.993 -16.565 -21.035  0.00  0.00    +0.156 HD
ATOM     17  H   UNL     1      33.058 -15.370 -27.500  0.00  0.00    +0.148 HD
ATOM     18  H   UNL     1      33.127 -12.847 -24.293  0.00  0.00    +0.148 HD
ATOM     19  H   UNL     1      35.760 -18.129 -19.728  0.00  0.00    +0.146 HD
ATOM     20  H   UNL     1      36.085 -19.719 -20.251  0.00  0.00    +0.146 HD
ENDROOT
BRANCH   7  21
ATOM     21  C   UNL     1      34.131 -14.403 -22.025  0.00  0.00    +0.034 C 
BRANCH  21  22
ATOM     22  C   UNL     1      32.824 -14.393 -21.213  0.00  0.00    +0.031 C 
BRANCH  22  23
ATOM     23  C   UNL     1      32.233 -13.013 -21.054  0.00  0.00    -0.022 C 
ATOM     24  C   UNL     1      32.089 -12.476 -19.784  0.00  0.00    -0.004 C 
ATOM     25  C   UNL     1      31.842 -12.307 -22.182  0.00  0.00    -0.004 C 
ATOM     26  C   UNL     1      31.543 -11.202 -19.637  0.00  0.00    -0.000 C 
ATOM     27  C   UNL     1      31.295 -11.032 -22.035  0.00  0.00    -0.000 C 
ATOM     28  C   UNL     1      31.145 -10.479 -20.763  0.00  0.00    -0.000 C 
ENDBRANCH  22  23
ENDBRANCH  21  22
ENDBRANCH   7  21
TORSDOF 3
ENDMDL
MODEL 6
REMARK VINA RESULT:     -10.3      2.753      5.835
REMARK  Name = 5326928
REMARK  3 active torsions:
REMARK  status: ('A' for Active; 'I' for Inactive)
REMARK    1  A    between atoms: C_7  and  C_21
REMARK    2  A    between atoms: C_21  and  C_22
REMARK    3  A    between atoms: C_22  and  C_23
REMARK                            x       y       z     vdW  Elec       q    Type
REMARK                         _______ _______ _______ _____ _____    ______ ____
ROOT
ATOM      1  O   UNL     1      37.312 -21.882 -17.304  0.00  0.00    -0.209 OA
ATOM      2  N   UNL     1      33.603 -23.311 -16.810  0.00  0.00    -0.275 N 
ATOM      3  N   UNL     1      36.931 -23.902 -12.469  0.00  0.00    -0.315 N 
ATOM      4  N   UNL     1      34.866 -24.684 -12.225  0.00  0.00    -0.316 N 
ATOM      5  N   UNL     1      35.225 -22.235 -18.178  0.00  0.00    -0.302 NA
ATOM      6  N   UNL     1      33.050 -22.661 -18.938  0.00  0.00    -0.320 N 
ATOM      7  C   UNL     1      34.086 -24.041 -14.533  0.00  0.00    +0.007 C 
ATOM      8  C   UNL     1      34.488 -23.437 -15.734  0.00  0.00    +0.060 C 
ATOM      9  C   UNL     1      35.013 -24.144 -13.482  0.00  0.00    +0.056 C 
ATOM     10  C   UNL     1      36.300 -23.646 -13.660  0.00  0.00    +0.060 C 
ATOM     11  C   UNL     1      35.796 -22.947 -15.874  0.00  0.00    +0.109 C 
ATOM     12  C   UNL     1      36.737 -23.040 -14.838  0.00  0.00    +0.029 C 
ATOM     13  C   UNL     1      36.171 -22.314 -17.172  0.00  0.00    +0.208 C 
ATOM     14  C   UNL     1      36.033 -24.522 -11.645  0.00  0.00    +0.182 C 
ATOM     15  C   UNL     1      34.027 -22.714 -17.974  0.00  0.00    +0.248 C 
ATOM     16  H   UNL     1      32.681 -23.648 -16.733  0.00  0.00    +0.156 HD
ATOM     17  H   UNL     1      37.864 -23.679 -12.247  0.00  0.00    +0.148 HD
ATOM     18  H   UNL     1      34.060 -25.101 -11.843  0.00  0.00    +0.148 HD
ATOM     19  H   UNL     1      32.157 -23.031 -18.753  0.00  0.00    +0.146 HD
ATOM     20  H   UNL     1      33.243 -22.254 -19.813  0.00  0.00    +0.146 HD
ENDROOT
BRANCH   7  21
ATOM     21  C   UNL     1      32.692 -24.566 -14.375  0.00  0.00    +0.034 C 
BRANCH  21  22
ATOM     22  C   UNL     1      31.663 -23.493 -13.978  0.00  0.00    +0.031 C 
BRANCH  22  23
ATOM     23  C   UNL     1      30.422 -23.511 -14.836  0.00  0.00    -0.022 C 
ATOM     24  C   UNL     1      30.074 -24.676 -15.503  0.00  0.00    -0.004 C 
ATOM     25  C   UNL     1      29.652 -22.363 -14.942  0.00  0.00    -0.004 C 
ATOM     26  C   UNL     1      28.926 -24.692 -16.296  0.00  0.00    -0.000 C 
ATOM     27  C   UNL     1      28.504 -22.380 -15.736  0.00  0.00    -0.000 C 
ATOM     28  C   UNL     1      28.141 -23.544 -16.412  0.00  0.00    -0.000 C 
ENDBRANCH  22  23
ENDBRANCH  21  22
ENDBRANCH   7  21
TORSDOF 3
ENDMDL
MODEL 7
REMARK VINA RESULT:     -10.2      7.761     10.913
REMARK  Name = 5326928
REMARK  3 active torsions:
REMARK  status: ('A' for Active; 'I' for Inactive)
REMARK    1  A    between atoms: C_7  and  C_21
REMARK    2  A    between atoms: C_21  and  C_22
REMARK    3  A    between atoms: C_22  and  C_23
REMARK                            x       y       z     vdW  Elec       q    Type
REMARK                         _______ _______ _______ _____ _____    ______ ____
ROOT
ATOM      1  O   UNL     1      32.965 -13.798 -26.651  0.00  0.00    -0.209 OA
ATOM      2  N   UNL     1      34.034 -16.485 -23.881  0.00  0.00    -0.275 N 
ATOM      3  N   UNL     1      31.808 -11.857 -21.908  0.00  0.00    -0.315 N 
ATOM      4  N   UNL     1      32.410 -13.369 -20.396  0.00  0.00    -0.316 N 
ATOM      5  N   UNL     1      33.872 -15.843 -26.167  0.00  0.00    -0.302 NA
ATOM      6  N   UNL     1      34.777 -17.907 -25.521  0.00  0.00    -0.320 N 
ATOM      7  C   UNL     1      33.275 -15.051 -22.060  0.00  0.00    +0.007 C 
ATOM      8  C   UNL     1      33.463 -15.291 -23.430  0.00  0.00    +0.060 C 
ATOM      9  C   UNL     1      32.696 -13.836 -21.658  0.00  0.00    +0.056 C 
ATOM     10  C   UNL     1      32.327 -12.905 -22.625  0.00  0.00    +0.060 C 
ATOM     11  C   UNL     1      33.077 -14.327 -24.375  0.00  0.00    +0.109 C 
ATOM     12  C   UNL     1      32.499 -13.108 -23.995  0.00  0.00    +0.029 C 
ATOM     13  C   UNL     1      33.300 -14.634 -25.817  0.00  0.00    +0.208 C 
ATOM     14  C   UNL     1      31.879 -12.182 -20.582  0.00  0.00    +0.182 C 
ATOM     15  C   UNL     1      34.206 -16.692 -25.230  0.00  0.00    +0.248 C 
ATOM     16  H   UNL     1      34.313 -17.174 -23.235  0.00  0.00    +0.156 HD
ATOM     17  H   UNL     1      31.448 -11.021 -22.282  0.00  0.00    +0.148 HD
ATOM     18  H   UNL     1      32.569 -13.826 -19.538  0.00  0.00    +0.148 HD
ATOM     19  H   UNL     1      35.017 -18.523 -24.792  0.00  0.00    +0.146 HD
ATOM     20  H   UNL     1      34.946 -18.160 -26.456  0.00  0.00    +0.146 HD
ENDROOT
BRANCH   7  21
ATOM     21  C   UNL     1      33.684 -16.074 -21.046  0.00  0.00    +0.034 C 
BRANCH  21  22
ATOM     22  C   UNL     1      34.972 -16.833 -21.411  0.00  0.00    +0.031 C 
BRANCH  22  23
ATOM     23  C   UNL     1      34.941 -18.287 -21.009  0.00  0.00    -0.022 C 
ATOM     24  C   UNL     1      36.134 -18.952 -20.769  0.00  0.00    -0.004 C 
ATOM     25  C   UNL     1      33.721 -18.934 -20.887  0.00  0.00    -0.004 C 
ATOM     26  C   UNL     1      36.106 -20.296 -20.398  0.00  0.00    -0.000 C 
ATOM     27  C   UNL     1      33.692 -20.278 -20.515  0.00  0.00    -0.000 C 
ATOM     28  C   UNL     1      34.884 -20.959 -20.270  0.00  0.00    -0.000 C 
ENDBRANCH  22  23
ENDBRANCH  21  22
ENDBRANCH   7  21
TORSDOF 3
ENDMDL
MODEL 8
REMARK VINA RESULT:      -9.6      2.988      6.369
REMARK  Name = 5326928
REMARK  3 active torsions:
REMARK  status: ('A' for Active; 'I' for Inactive)
REMARK    1  A    between atoms: C_7  and  C_21
REMARK    2  A    between atoms: C_21  and  C_22
REMARK    3  A    between atoms: C_22  and  C_23
REMARK                            x       y       z     vdW  Elec       q    Type
REMARK                         _______ _______ _______ _____ _____    ______ ____
ROOT
ATOM      1  O   UNL     1      32.772 -22.199 -19.929  0.00  0.00    -0.209 OA
ATOM      2  N   UNL     1      36.354 -21.587 -18.244  0.00  0.00    -0.275 N 
ATOM      3  N   UNL     1      32.615 -23.967 -14.984  0.00  0.00    -0.315 N 
ATOM      4  N   UNL     1      34.613 -23.615 -14.078  0.00  0.00    -0.316 N 
ATOM      5  N   UNL     1      34.914 -21.413 -20.130  0.00  0.00    -0.302 NA
ATOM      6  N   UNL     1      37.130 -20.653 -20.189  0.00  0.00    -0.320 N 
ATOM      7  C   UNL     1      35.631 -22.562 -16.128  0.00  0.00    +0.007 C 
ATOM      8  C   UNL     1      35.368 -22.190 -17.455  0.00  0.00    +0.060 C 
ATOM      9  C   UNL     1      34.607 -23.165 -15.378  0.00  0.00    +0.056 C 
ATOM     10  C   UNL     1      33.364 -23.375 -15.969  0.00  0.00    +0.060 C 
ATOM     11  C   UNL     1      34.101 -22.418 -18.015  0.00  0.00    +0.109 C 
ATOM     12  C   UNL     1      33.066 -23.017 -17.284  0.00  0.00    +0.029 C 
ATOM     13  C   UNL     1      33.877 -22.003 -19.430  0.00  0.00    +0.208 C 
ATOM     14  C   UNL     1      33.405 -24.089 -13.874  0.00  0.00    +0.182 C 
ATOM     15  C   UNL     1      36.066 -21.232 -19.541  0.00  0.00    +0.248 C 
ATOM     16  H   UNL     1      37.249 -21.417 -17.870  0.00  0.00    +0.156 HD
ATOM     17  H   UNL     1      31.677 -24.253 -15.062  0.00  0.00    +0.148 HD
ATOM     18  H   UNL     1      35.361 -23.587 -13.438  0.00  0.00    +0.148 HD
ATOM     19  H   UNL     1      37.985 -20.531 -19.718  0.00  0.00    +0.146 HD
ATOM     20  H   UNL     1      37.036 -20.360 -21.124  0.00  0.00    +0.146 HD
ENDROOT
BRANCH   7  21
ATOM     21  C   UNL     1      36.980 -22.322 -15.523  0.00  0.00    +0.034 C 
BRANCH  21  22
ATOM     22  C   UNL     1      37.942 -23.515 -15.653  0.00  0.00    +0.031 C 
BRANCH  22  23
ATOM     23  C   UNL     1      37.764 -24.545 -14.565  0.00  0.00    -0.022 C 
ATOM     24  C   UNL     1      38.030 -24.197 -13.249  0.00  0.00    -0.004 C 
ATOM     25  C   UNL     1      37.338 -25.822 -14.899  0.00  0.00    -0.004 C 
ATOM     26  C   UNL     1      37.865 -25.149 -12.243  0.00  0.00    -0.000 C 
ATOM     27  C   UNL     1      37.173 -26.774 -13.892  0.00  0.00    -0.000 C 
ATOM     28  C   UNL     1      37.437 -26.438 -12.565  0.00  0.00    -0.000 C 
ENDBRANCH  22  23
ENDBRANCH  21  22
ENDBRANCH   7  21
TORSDOF 3
ENDMDL
MODEL 9
REMARK VINA RESULT:      -9.5      8.818     11.963
REMARK  Name = 5326928
REMARK  3 active torsions:
REMARK  status: ('A' for Active; 'I' for Inactive)
REMARK    1  A    between atoms: C_7  and  C_21
REMARK    2  A    between atoms: C_21  and  C_22
REMARK    3  A    between atoms: C_22  and  C_23
REMARK                            x       y       z     vdW  Elec       q    Type
REMARK                         _______ _______ _______ _____ _____    ______ ____
ROOT
ATOM      1  O   UNL     1      31.954  -9.238 -22.730  0.00  0.00    -0.209 OA
ATOM      2  N   UNL     1      31.925 -12.425 -20.304  0.00  0.00    -0.275 N 
ATOM      3  N   UNL     1      33.378 -13.464 -25.508  0.00  0.00    -0.315 N 
ATOM      4  N   UNL     1      33.353 -15.212 -24.137  0.00  0.00    -0.316 N 
ATOM      5  N   UNL     1      31.594 -10.092 -20.636  0.00  0.00    -0.302 NA
ATOM      6  N   UNL     1      31.265 -11.105 -18.549  0.00  0.00    -0.320 N 
ATOM      7  C   UNL     1      32.627 -13.918 -22.101  0.00  0.00    +0.007 C 
ATOM      8  C   UNL     1      32.288 -12.637 -21.638  0.00  0.00    +0.060 C 
ATOM      9  C   UNL     1      32.985 -14.078 -23.450  0.00  0.00    +0.056 C 
ATOM     10  C   UNL     1      32.993 -12.967 -24.288  0.00  0.00    +0.060 C 
ATOM     11  C   UNL     1      32.308 -11.541 -22.515  0.00  0.00    +0.109 C 
ATOM     12  C   UNL     1      32.661 -11.679 -23.865  0.00  0.00    +0.029 C 
ATOM     13  C   UNL     1      31.939 -10.203 -21.971  0.00  0.00    +0.208 C 
ATOM     14  C   UNL     1      33.582 -14.808 -25.366  0.00  0.00    +0.182 C 
ATOM     15  C   UNL     1      31.598 -11.158 -19.880  0.00  0.00    +0.248 C 
ATOM     16  H   UNL     1      31.904 -13.180 -19.672  0.00  0.00    +0.156 HD
ATOM     17  H   UNL     1      33.488 -12.945 -26.337  0.00  0.00    +0.148 HD
ATOM     18  H   UNL     1      33.430 -16.128 -23.783  0.00  0.00    +0.148 HD
ATOM     19  H   UNL     1      31.277 -11.926 -18.006  0.00  0.00    +0.146 HD
ATOM     20  H   UNL     1      31.013 -10.247 -18.138  0.00  0.00    +0.146 HD
ENDROOT
BRANCH   7  21
ATOM     21  C   UNL     1      32.608 -15.092 -21.171  0.00  0.00    +0.034 C 
BRANCH  21  22
ATOM     22  C   UNL     1      34.007 -15.577 -20.752  0.00  0.00    +0.031 C 
BRANCH  22  23
ATOM     23  C   UNL     1      34.364 -16.928 -21.321  0.00  0.00    -0.022 C 
ATOM     24  C   UNL     1      35.408 -17.030 -22.228  0.00  0.00    -0.004 C 
ATOM     25  C   UNL     1      33.642 -18.044 -20.927  0.00  0.00    -0.004 C 
ATOM     26  C   UNL     1      35.739 -18.279 -22.753  0.00  0.00    -0.000 C 
ATOM     27  C   UNL     1      33.973 -19.294 -21.453  0.00  0.00    -0.000 C 
ATOM     28  C   UNL     1      35.020 -19.411 -22.366  0.00  0.00    -0.000 C 
ENDBRANCH  22  23
ENDBRANCH  21  22
ENDBRANCH   7  21
TORSDOF 3
ENDMDL
