MODEL 1
REMARK VINA RESULT:      -7.3      0.000      0.000
REMARK  Name = 2164
REMARK  4 active torsions:
REMARK  status: ('A' for Active; 'I' for Inactive)
REMARK    1  A    between atoms: C_6  and  C_12
REMARK    2  A    between atoms: C_6  and  C_14
REMARK    3  A    between atoms: C_14  and  C_15
REMARK    4  A    between atoms: C_15  and  C_16
REMARK                            x       y       z     vdW  Elec       q    Type
REMARK                         _______ _______ _______ _____ _____    ______ ____
ROOT
ATOM      1  O   UNL     1      35.837 -25.497 -14.209  0.00  0.00    -0.274 OA
ATOM      2  O   UNL     1      38.427 -22.273 -11.985  0.00  0.00    -0.274 OA
ATOM      3  O   UNL     1      35.168 -24.612  -9.756  0.00  0.00    -0.252 OA
ATOM      4  N   UNL     1      35.572 -25.124 -11.961  0.00  0.00    -0.239 N 
ATOM      5  N   UNL     1      36.865 -23.513 -10.850  0.00  0.00    -0.239 N 
ATOM      6  C   UNL     1      37.593 -24.278 -13.065  0.00  0.00    +0.138 C 
ATOM      7  C   UNL     1      36.253 -25.001 -13.163  0.00  0.00    +0.237 C 
ATOM      8  C   UNL     1      37.667 -23.241 -11.949  0.00  0.00    +0.237 C 
ATOM      9  C   UNL     1      35.833 -24.440 -10.780  0.00  0.00    +0.312 C 
ATOM     10  H   UNL     1      34.823 -25.763 -11.944  0.00  0.00    +0.159 HD
ATOM     11  H   UNL     1      37.046 -22.993 -10.034  0.00  0.00    +0.159 HD
ENDROOT
BRANCH   6  12
ATOM     12  C   UNL     1      38.659 -25.344 -12.760  0.00  0.00    +0.017 C 
ATOM     13  C   UNL     1      39.546 -25.583 -13.962  0.00  0.00    +0.001 C 
ENDBRANCH   6  12
BRANCH   6  14
ATOM     14  C   UNL     1      37.914 -23.609 -14.409  0.00  0.00    +0.017 C 
BRANCH  14  15
ATOM     15  C   UNL     1      36.802 -22.646 -14.834  0.00  0.00    +0.001 C 
BRANCH  15  16
ATOM     16  C   UNL     1      36.384 -22.804 -16.308  0.00  0.00    +0.000 C 
ATOM     17  C   UNL     1      36.891 -21.610 -17.121  0.00  0.00    +0.000 C 
ATOM     18  C   UNL     1      34.869 -22.935 -16.475  0.00  0.00    +0.000 C 
ENDBRANCH  15  16
ENDBRANCH  14  15
ENDBRANCH   6  14
TORSDOF 4
ENDMDL
MODEL 2
REMARK VINA RESULT:      -7.3      2.567      4.082
REMARK  Name = 2164
REMARK  4 active torsions:
REMARK  status: ('A' for Active; 'I' for Inactive)
REMARK    1  A    between atoms: C_6  and  C_12
REMARK    2  A    between atoms: C_6  and  C_14
REMARK    3  A    between atoms: C_14  and  C_15
REMARK    4  A    between atoms: C_15  and  C_16
REMARK                            x       y       z     vdW  Elec       q    Type
REMARK                         _______ _______ _______ _____ _____    ______ ____
ROOT
ATOM      1  O   UNL     1      37.537 -22.779 -15.158  0.00  0.00    -0.274 OA
ATOM      2  O   UNL     1      36.900 -26.852 -12.910  0.00  0.00    -0.274 OA
ATOM      3  O   UNL     1      40.625 -26.157 -15.498  0.00  0.00    -0.252 OA
ATOM      4  N   UNL     1      39.127 -24.431 -15.246  0.00  0.00    -0.239 N 
ATOM      5  N   UNL     1      38.807 -26.466 -14.124  0.00  0.00    -0.239 N 
ATOM      6  C   UNL     1      37.393 -24.556 -13.515  0.00  0.00    +0.138 C 
ATOM      7  C   UNL     1      37.988 -23.838 -14.722  0.00  0.00    +0.237 C 
ATOM      8  C   UNL     1      37.640 -26.061 -13.495  0.00  0.00    +0.237 C 
ATOM      9  C   UNL     1      39.600 -25.710 -14.978  0.00  0.00    +0.312 C 
ATOM     10  H   UNL     1      39.655 -23.889 -15.876  0.00  0.00    +0.159 HD
ATOM     11  H   UNL     1      39.107 -27.387 -13.947  0.00  0.00    +0.159 HD
ENDROOT
BRANCH   6  12
ATOM     12  C   UNL     1      38.072 -23.972 -12.263  0.00  0.00    +0.017 C 
ATOM     13  C   UNL     1      37.185 -22.947 -11.594  0.00  0.00    +0.001 C 
ENDBRANCH   6  12
BRANCH   6  14
ATOM     14  C   UNL     1      35.883 -24.282 -13.447  0.00  0.00    +0.017 C 
BRANCH  14  15
ATOM     15  C   UNL     1      35.207 -24.549 -14.795  0.00  0.00    +0.001 C 
BRANCH  15  16
ATOM     16  C   UNL     1      34.164 -23.483 -15.179  0.00  0.00    +0.000 C 
ATOM     17  C   UNL     1      32.832 -23.790 -14.489  0.00  0.00    +0.000 C 
ATOM     18  C   UNL     1      33.953 -23.390 -16.691  0.00  0.00    +0.000 C 
ENDBRANCH  15  16
ENDBRANCH  14  15
ENDBRANCH   6  14
TORSDOF 4
ENDMDL
MODEL 3
REMARK VINA RESULT:      -7.1      7.694     10.205
REMARK  Name = 2164
REMARK  4 active torsions:
REMARK  status: ('A' for Active; 'I' for Inactive)
REMARK    1  A    between atoms: C_6  and  C_12
REMARK    2  A    between atoms: C_6  and  C_14
REMARK    3  A    between atoms: C_14  and  C_15
REMARK    4  A    between atoms: C_15  and  C_16
REMARK                            x       y       z     vdW  Elec       q    Type
REMARK                         _______ _______ _______ _____ _____    ______ ____
ROOT
ATOM      1  O   UNL     1      32.615 -18.857 -20.853  0.00  0.00    -0.274 OA
ATOM      2  O   UNL     1      37.252 -18.594 -21.546  0.00  0.00    -0.274 OA
ATOM      3  O   UNL     1      35.425 -22.079 -19.184  0.00  0.00    -0.252 OA
ATOM      4  N   UNL     1      34.011 -20.517 -20.106  0.00  0.00    -0.239 N 
ATOM      5  N   UNL     1      36.327 -20.385 -20.452  0.00  0.00    -0.239 N 
ATOM      6  C   UNL     1      34.860 -18.925 -21.767  0.00  0.00    +0.138 C 
ATOM      7  C   UNL     1      33.724 -19.392 -20.863  0.00  0.00    +0.237 C 
ATOM      8  C   UNL     1      36.255 -19.248 -21.242  0.00  0.00    +0.237 C 
ATOM      9  C   UNL     1      35.264 -21.073 -19.880  0.00  0.00    +0.312 C 
ATOM     10  H   UNL     1      33.246 -20.969 -19.682  0.00  0.00    +0.159 HD
ATOM     11  H   UNL     1      37.228 -20.743 -20.276  0.00  0.00    +0.159 HD
ENDROOT
BRANCH   6  12
ATOM     12  C   UNL     1      34.702 -19.664 -23.108  0.00  0.00    +0.017 C 
ATOM     13  C   UNL     1      34.666 -18.689 -24.264  0.00  0.00    +0.001 C 
ENDBRANCH   6  12
BRANCH   6  14
ATOM     14  C   UNL     1      34.738 -17.412 -22.005  0.00  0.00    +0.017 C 
BRANCH  14  15
ATOM     15  C   UNL     1      34.852 -16.631 -20.693  0.00  0.00    +0.001 C 
BRANCH  15  16
ATOM     16  C   UNL     1      34.307 -15.193 -20.786  0.00  0.00    +0.000 C 
ATOM     17  C   UNL     1      32.840 -15.165 -20.349  0.00  0.00    +0.000 C 
ATOM     18  C   UNL     1      34.438 -14.609 -22.194  0.00  0.00    +0.000 C 
ENDBRANCH  15  16
ENDBRANCH  14  15
ENDBRANCH   6  14
TORSDOF 4
ENDMDL
MODEL 4
REMARK VINA RESULT:      -7.0      2.725      3.866
REMARK  Name = 2164
REMARK  4 active torsions:
REMARK  status: ('A' for Active; 'I' for Inactive)
REMARK    1  A    between atoms: C_6  and  C_12
REMARK    2  A    between atoms: C_6  and  C_14
REMARK    3  A    between atoms: C_14  and  C_15
REMARK    4  A    between atoms: C_15  and  C_16
REMARK                            x       y       z     vdW  Elec       q    Type
REMARK                         _______ _______ _______ _____ _____    ______ ____
ROOT
ATOM      1  O   UNL     1      37.076 -26.063 -12.096  0.00  0.00    -0.274 OA
ATOM      2  O   UNL     1      37.468 -23.068 -15.691  0.00  0.00    -0.274 OA
ATOM      3  O   UNL     1      40.927 -25.873 -14.585  0.00  0.00    -0.252 OA
ATOM      4  N   UNL     1      38.961 -26.036 -13.403  0.00  0.00    -0.239 N 
ATOM      5  N   UNL     1      39.157 -24.539 -15.199  0.00  0.00    -0.239 N 
ATOM      6  C   UNL     1      36.935 -24.934 -14.237  0.00  0.00    +0.138 C 
ATOM      7  C   UNL     1      37.643 -25.704 -13.128  0.00  0.00    +0.237 C 
ATOM      8  C   UNL     1      37.857 -24.069 -15.090  0.00  0.00    +0.237 C 
ATOM      9  C   UNL     1      39.757 -25.520 -14.418  0.00  0.00    +0.312 C 
ATOM     10  H   UNL     1      39.377 -26.709 -12.817  0.00  0.00    +0.159 HD
ATOM     11  H   UNL     1      39.714 -24.135 -15.903  0.00  0.00    +0.159 HD
ENDROOT
BRANCH   6  12
ATOM     12  C   UNL     1      36.302 -25.977 -15.176  0.00  0.00    +0.017 C 
ATOM     13  C   UNL     1      36.937 -27.336 -14.982  0.00  0.00    +0.001 C 
ENDBRANCH   6  12
BRANCH   6  14
ATOM     14  C   UNL     1      35.827 -24.060 -13.630  0.00  0.00    +0.017 C 
BRANCH  14  15
ATOM     15  C   UNL     1      34.460 -24.394 -14.233  0.00  0.00    +0.001 C 
BRANCH  15  16
ATOM     16  C   UNL     1      33.833 -23.225 -15.016  0.00  0.00    +0.000 C 
ATOM     17  C   UNL     1      32.330 -23.161 -14.737  0.00  0.00    +0.000 C 
ATOM     18  C   UNL     1      34.074 -23.336 -16.523  0.00  0.00    +0.000 C 
ENDBRANCH  15  16
ENDBRANCH  14  15
ENDBRANCH   6  14
TORSDOF 4
ENDMDL
MODEL 5
REMARK VINA RESULT:      -6.9     16.712     19.140
REMARK  Name = 2164
REMARK  4 active torsions:
REMARK  status: ('A' for Active; 'I' for Inactive)
REMARK    1  A    between atoms: C_6  and  C_12
REMARK    2  A    between atoms: C_6  and  C_14
REMARK    3  A    between atoms: C_14  and  C_15
REMARK    4  A    between atoms: C_15  and  C_16
REMARK                            x       y       z     vdW  Elec       q    Type
REMARK                         _______ _______ _______ _____ _____    ______ ____
ROOT
ATOM      1  O   UNL     1      32.607  -7.621 -19.819  0.00  0.00    -0.274 OA
ATOM      2  O   UNL     1      31.109  -8.318 -24.215  0.00  0.00    -0.274 OA
ATOM      3  O   UNL     1      30.291  -4.351 -22.058  0.00  0.00    -0.252 OA
ATOM      4  N   UNL     1      31.537  -5.952 -20.975  0.00  0.00    -0.239 N 
ATOM      5  N   UNL     1      30.788  -6.301 -23.170  0.00  0.00    -0.239 N 
ATOM      6  C   UNL     1      32.419  -7.870 -22.224  0.00  0.00    +0.138 C 
ATOM      7  C   UNL     1      32.189  -7.173 -20.887  0.00  0.00    +0.237 C 
ATOM      8  C   UNL     1      31.371  -7.554 -23.286  0.00  0.00    +0.237 C 
ATOM      9  C   UNL     1      30.848  -5.451 -22.073  0.00  0.00    +0.312 C 
ATOM     10  H   UNL     1      31.564  -5.380 -20.174  0.00  0.00    +0.159 HD
ATOM     11  H   UNL     1      30.276  -5.980 -23.948  0.00  0.00    +0.159 HD
ENDROOT
BRANCH   6  12
ATOM     12  C   UNL     1      33.772  -7.374 -22.764  0.00  0.00    +0.017 C 
ATOM     13  C   UNL     1      34.451  -8.444 -23.590  0.00  0.00    +0.001 C 
ENDBRANCH   6  12
BRANCH   6  14
ATOM     14  C   UNL     1      32.486  -9.389 -22.006  0.00  0.00    +0.017 C 
BRANCH  14  15
ATOM     15  C   UNL     1      31.092  -9.984 -21.790  0.00  0.00    +0.001 C 
BRANCH  15  16
ATOM     16  C   UNL     1      31.099 -11.271 -20.945  0.00  0.00    +0.000 C 
ATOM     17  C   UNL     1      31.640 -10.971 -19.545  0.00  0.00    +0.000 C 
ATOM     18  C   UNL     1      31.924 -12.388 -21.588  0.00  0.00    +0.000 C 
ENDBRANCH  15  16
ENDBRANCH  14  15
ENDBRANCH   6  14
TORSDOF 4
ENDMDL
MODEL 6
REMARK VINA RESULT:      -6.6     17.472     19.788
REMARK  Name = 2164
REMARK  4 active torsions:
REMARK  status: ('A' for Active; 'I' for Inactive)
REMARK    1  A    between atoms: C_6  and  C_12
REMARK    2  A    between atoms: C_6  and  C_14
REMARK    3  A    between atoms: C_14  and  C_15
REMARK    4  A    between atoms: C_15  and  C_16
REMARK                            x       y       z     vdW  Elec       q    Type
REMARK                         _______ _______ _______ _____ _____    ______ ____
ROOT
ATOM      1  O   UNL     1      32.012  -9.674 -23.725  0.00  0.00    -0.274 OA
ATOM      2  O   UNL     1      32.111  -5.452 -21.673  0.00  0.00    -0.274 OA
ATOM      3  O   UNL     1      32.328  -9.287 -19.163  0.00  0.00    -0.252 OA
ATOM      4  N   UNL     1      32.270  -9.477 -21.454  0.00  0.00    -0.239 N 
ATOM      5  N   UNL     1      32.319  -7.368 -20.430  0.00  0.00    -0.239 N 
ATOM      6  C   UNL     1      32.643  -7.500 -22.858  0.00  0.00    +0.138 C 
ATOM      7  C   UNL     1      32.255  -8.971 -22.745  0.00  0.00    +0.237 C 
ATOM      8  C   UNL     1      32.308  -6.666 -21.625  0.00  0.00    +0.237 C 
ATOM      9  C   UNL     1      32.323  -8.748 -20.272  0.00  0.00    +0.312 C 
ATOM     10  H   UNL     1      32.239 -10.457 -21.366  0.00  0.00    +0.159 HD
ATOM     11  H   UNL     1      32.322  -6.831 -19.604  0.00  0.00    +0.159 HD
ENDROOT
BRANCH   6  12
ATOM     12  C   UNL     1      34.171  -7.450 -23.033  0.00  0.00    +0.017 C 
ATOM     13  C   UNL     1      34.663  -8.633 -23.837  0.00  0.00    +0.001 C 
ENDBRANCH   6  12
BRANCH   6  14
ATOM     14  C   UNL     1      31.970  -6.884 -24.093  0.00  0.00    +0.017 C 
BRANCH  14  15
ATOM     15  C   UNL     1      32.938  -5.982 -24.864  0.00  0.00    +0.001 C 
BRANCH  15  16
ATOM     16  C   UNL     1      32.351  -4.598 -25.200  0.00  0.00    +0.000 C 
ATOM     17  C   UNL     1      30.856  -4.576 -24.873  0.00  0.00    +0.000 C 
ATOM     18  C   UNL     1      32.566  -4.213 -26.664  0.00  0.00    +0.000 C 
ENDBRANCH  15  16
ENDBRANCH  14  15
ENDBRANCH   6  14
TORSDOF 4
ENDMDL
MODEL 7
REMARK VINA RESULT:      -6.5      2.056      2.789
REMARK  Name = 2164
REMARK  4 active torsions:
REMARK  status: ('A' for Active; 'I' for Inactive)
REMARK    1  A    between atoms: C_6  and  C_12
REMARK    2  A    between atoms: C_6  and  C_14
REMARK    3  A    between atoms: C_14  and  C_15
REMARK    4  A    between atoms: C_15  and  C_16
REMARK                            x       y       z     vdW  Elec       q    Type
REMARK                         _______ _______ _______ _____ _____    ______ ____
ROOT
ATOM      1  O   UNL     1      33.289 -23.972 -13.132  0.00  0.00    -0.274 OA
ATOM      2  O   UNL     1      37.417 -22.609 -14.906  0.00  0.00    -0.274 OA
ATOM      3  O   UNL     1      37.140 -24.331 -10.662  0.00  0.00    -0.252 OA
ATOM      4  N   UNL     1      35.228 -24.243 -11.937  0.00  0.00    -0.239 N 
ATOM      5  N   UNL     1      37.290 -23.561 -12.823  0.00  0.00    -0.239 N 
ATOM      6  C   UNL     1      35.381 -23.801 -14.345  0.00  0.00    +0.138 C 
ATOM      7  C   UNL     1      34.519 -23.984 -13.100  0.00  0.00    +0.237 C 
ATOM      8  C   UNL     1      36.772 -23.240 -14.069  0.00  0.00    +0.237 C 
ATOM      9  C   UNL     1      36.594 -24.078 -11.738  0.00  0.00    +0.312 C 
ATOM     10  H   UNL     1      34.709 -24.577 -11.170  0.00  0.00    +0.159 HD
ATOM     11  H   UNL     1      38.254 -23.405 -12.693  0.00  0.00    +0.159 HD
ENDROOT
BRANCH   6  12
ATOM     12  C   UNL     1      35.574 -25.195 -14.969  0.00  0.00    +0.017 C 
ATOM     13  C   UNL     1      37.030 -25.603 -14.942  0.00  0.00    +0.001 C 
ENDBRANCH   6  12
BRANCH   6  14
ATOM     14  C   UNL     1      34.651 -22.894 -15.346  0.00  0.00    +0.017 C 
BRANCH  14  15
ATOM     15  C   UNL     1      34.636 -23.510 -16.748  0.00  0.00    +0.001 C 
BRANCH  15  16
ATOM     16  C   UNL     1      33.262 -23.427 -17.439  0.00  0.00    +0.000 C 
ATOM     17  C   UNL     1      33.278 -22.317 -18.493  0.00  0.00    +0.000 C 
ATOM     18  C   UNL     1      32.123 -23.181 -16.448  0.00  0.00    +0.000 C 
ENDBRANCH  15  16
ENDBRANCH  14  15
ENDBRANCH   6  14
TORSDOF 4
ENDMDL
MODEL 8
REMARK VINA RESULT:      -6.5     10.031     12.606
REMARK  Name = 2164
REMARK  4 active torsions:
REMARK  status: ('A' for Active; 'I' for Inactive)
REMARK    1  A    between atoms: C_6  and  C_12
REMARK    2  A    between atoms: C_6  and  C_14
REMARK    3  A    between atoms: C_14  and  C_15
REMARK    4  A    between atoms: C_15  and  C_16
REMARK                            x       y       z     vdW  Elec       q    Type
REMARK                         _______ _______ _______ _____ _____    ______ ____
ROOT
ATOM      1  O   UNL     1      34.479 -17.392 -24.118  0.00  0.00    -0.274 OA
ATOM      2  O   UNL     1      35.138 -14.742 -20.298  0.00  0.00    -0.274 OA
ATOM      3  O   UNL     1      33.834 -12.851 -24.271  0.00  0.00    -0.252 OA
ATOM      4  N   UNL     1      34.061 -15.137 -24.166  0.00  0.00    -0.239 N 
ATOM      5  N   UNL     1      34.391 -13.813 -22.258  0.00  0.00    -0.239 N 
ATOM      6  C   UNL     1      34.273 -16.249 -21.990  0.00  0.00    +0.138 C 
ATOM      7  C   UNL     1      34.310 -16.334 -23.512  0.00  0.00    +0.237 C 
ATOM      8  C   UNL     1      34.670 -14.888 -21.427  0.00  0.00    +0.237 C 
ATOM      9  C   UNL     1      34.062 -13.864 -23.607  0.00  0.00    +0.312 C 
ATOM     10  H   UNL     1      33.864 -15.194 -25.129  0.00  0.00    +0.159 HD
ATOM     11  H   UNL     1      34.431 -12.918 -21.849  0.00  0.00    +0.159 HD
ENDROOT
BRANCH   6  12
ATOM     12  C   UNL     1      32.818 -16.507 -21.559  0.00  0.00    +0.017 C 
ATOM     13  C   UNL     1      32.376 -15.505 -20.515  0.00  0.00    +0.001 C 
ENDBRANCH   6  12
BRANCH   6  14
ATOM     14  C   UNL     1      35.179 -17.335 -21.392  0.00  0.00    +0.017 C 
BRANCH  14  15
ATOM     15  C   UNL     1      34.380 -18.590 -21.030  0.00  0.00    +0.001 C 
BRANCH  15  16
ATOM     16  C   UNL     1      35.239 -19.867 -20.969  0.00  0.00    +0.000 C 
ATOM     17  C   UNL     1      34.592 -20.882 -20.023  0.00  0.00    +0.000 C 
ATOM     18  C   UNL     1      36.674 -19.586 -20.521  0.00  0.00    +0.000 C 
ENDBRANCH  15  16
ENDBRANCH  14  15
ENDBRANCH   6  14
TORSDOF 4
ENDMDL
MODEL 9
REMARK VINA RESULT:      -6.4     17.085     19.342
REMARK  Name = 2164
REMARK  4 active torsions:
REMARK  status: ('A' for Active; 'I' for Inactive)
REMARK    1  A    between atoms: C_6  and  C_12
REMARK    2  A    between atoms: C_6  and  C_14
REMARK    3  A    between atoms: C_14  and  C_15
REMARK    4  A    between atoms: C_15  and  C_16
REMARK                            x       y       z     vdW  Elec       q    Type
REMARK                         _______ _______ _______ _____ _____    ______ ____
ROOT
ATOM      1  O   UNL     1      31.347  -8.286 -23.979  0.00  0.00    -0.274 OA
ATOM      2  O   UNL     1      33.065  -6.964 -19.814  0.00  0.00    -0.274 OA
ATOM      3  O   UNL     1      31.207 -11.122 -20.374  0.00  0.00    -0.252 OA
ATOM      4  N   UNL     1      31.368  -9.737 -22.202  0.00  0.00    -0.239 N 
ATOM      5  N   UNL     1      32.226  -9.076 -20.121  0.00  0.00    -0.239 N 
ATOM      6  C   UNL     1      32.769  -7.726 -22.097  0.00  0.00    +0.138 C 
ATOM      7  C   UNL     1      31.750  -8.574 -22.852  0.00  0.00    +0.237 C 
ATOM      8  C   UNL     1      32.688  -7.851 -20.579  0.00  0.00    +0.237 C 
ATOM      9  C   UNL     1      31.589 -10.060 -20.869  0.00  0.00    +0.312 C 
ATOM     10  H   UNL     1      30.888 -10.406 -22.743  0.00  0.00    +0.159 HD
ATOM     11  H   UNL     1      32.363  -9.270 -19.166  0.00  0.00    +0.159 HD
ENDROOT
BRANCH   6  12
ATOM     12  C   UNL     1      34.165  -8.222 -22.515  0.00  0.00    +0.017 C 
ATOM     13  C   UNL     1      34.712  -7.397 -23.659  0.00  0.00    +0.001 C 
ENDBRANCH   6  12
BRANCH   6  14
ATOM     14  C   UNL     1      32.612  -6.253 -22.500  0.00  0.00    +0.017 C 
BRANCH  14  15
ATOM     15  C   UNL     1      31.146  -5.813 -22.444  0.00  0.00    +0.001 C 
BRANCH  15  16
ATOM     16  C   UNL     1      30.792  -4.726 -23.477  0.00  0.00    +0.000 C 
ATOM     17  C   UNL     1      31.489  -5.028 -24.806  0.00  0.00    +0.000 C 
ATOM     18  C   UNL     1      31.173  -3.323 -23.001  0.00  0.00    +0.000 C 
ENDBRANCH  15  16
ENDBRANCH  14  15
ENDBRANCH   6  14
TORSDOF 4
ENDMDL
