MODEL 1
REMARK VINA RESULT:      -9.8      0.000      0.000
REMARK  Name = 5287495
REMARK  4 active torsions:
REMARK  status: ('A' for Active; 'I' for Inactive)
REMARK    1  A    between atoms: C_1  and  C_9
REMARK    2  A    between atoms: C_4  and  C_18
REMARK    3  A    between atoms: C_5  and  O_15
REMARK    4  A    between atoms: C_18  and  O_19
REMARK                            x       y       z     vdW  Elec       q    Type
REMARK                         _______ _______ _______ _____ _____    ______ ____
ROOT
ATOM      1  C   UNL     1      35.265 -19.378 -21.400  0.00  0.00    +0.001 C 
ATOM      2  C   UNL     1      34.286 -20.216 -20.866  0.00  0.00    +0.010 C 
ATOM      3  C   UNL     1      36.573 -19.438 -20.918  0.00  0.00    +0.003 C 
ATOM      4  C   UNL     1      34.615 -21.115 -19.851  0.00  0.00    +0.109 C 
ATOM      5  C   UNL     1      35.922 -21.176 -19.370  0.00  0.00    +0.140 C 
ATOM      6  C   UNL     1      36.901 -20.338 -19.904  0.00  0.00    +0.037 C 
ENDROOT
BRANCH   1   9
ATOM      7 CL   UNL     1      34.847 -16.428 -20.604  0.00  0.00    -0.082 Cl
ATOM      8 CL   UNL     1      33.868 -15.643 -25.831  0.00  0.00    -0.082 Cl
ATOM      9  C   UNL     1      34.925 -18.445 -22.452  0.00  0.00    +0.011 C 
ATOM     10  C   UNL     1      34.715 -17.088 -22.198  0.00  0.00    +0.058 C 
ATOM     11  C   UNL     1      34.807 -18.932 -23.756  0.00  0.00    +0.002 C 
ATOM     12  C   UNL     1      34.389 -16.223 -23.242  0.00  0.00    +0.023 C 
ATOM     13  C   UNL     1      34.480 -18.066 -24.800  0.00  0.00    +0.011 C 
ATOM     14  C   UNL     1      34.271 -16.711 -24.542  0.00  0.00    +0.059 C 
ENDBRANCH   1   9
BRANCH   5  15
ATOM     15  O   UNL     1      36.263 -22.046 -18.379  0.00  0.00    -0.505 OA
ATOM     16  H   UNL     1      36.798 -22.791 -18.572  0.00  0.00    +0.292 HD
ENDBRANCH   5  15
BRANCH   4  18
ATOM     17  O   UNL     1      32.514 -21.596 -18.811  0.00  0.00    -0.245 OA
ATOM     18  C   UNL     1      33.577 -21.980 -19.307  0.00  0.00    +0.341 C 
BRANCH  18  19
ATOM     19  O   UNL     1      33.901 -23.299 -19.399  0.00  0.00    -0.477 OA
ATOM     20  H   UNL     1      34.537 -23.583 -20.025  0.00  0.00    +0.295 HD
ENDBRANCH  18  19
ENDBRANCH   4  18
TORSDOF 4
ENDMDL
MODEL 2
REMARK VINA RESULT:      -9.7      3.941      6.246
REMARK  Name = 5287495
REMARK  4 active torsions:
REMARK  status: ('A' for Active; 'I' for Inactive)
REMARK    1  A    between atoms: C_1  and  C_9
REMARK    2  A    between atoms: C_4  and  C_18
REMARK    3  A    between atoms: C_5  and  O_15
REMARK    4  A    between atoms: C_18  and  O_19
REMARK                            x       y       z     vdW  Elec       q    Type
REMARK                         _______ _______ _______ _____ _____    ______ ____
ROOT
ATOM      1  C   UNL     1      34.627 -19.081 -21.519  0.00  0.00    +0.001 C 
ATOM      2  C   UNL     1      34.540 -17.749 -21.113  0.00  0.00    +0.010 C 
ATOM      3  C   UNL     1      34.931 -19.387 -22.846  0.00  0.00    +0.003 C 
ATOM      4  C   UNL     1      34.759 -16.724 -22.033  0.00  0.00    +0.109 C 
ATOM      5  C   UNL     1      35.064 -17.030 -23.359  0.00  0.00    +0.140 C 
ATOM      6  C   UNL     1      35.150 -18.361 -23.765  0.00  0.00    +0.037 C 
ENDROOT
BRANCH   1   9
ATOM      7 CL   UNL     1      37.105 -20.442 -20.287  0.00  0.00    -0.082 Cl
ATOM      8 CL   UNL     1      33.544 -23.449 -17.609  0.00  0.00    -0.082 Cl
ATOM      9  C   UNL     1      34.399 -20.145 -20.566  0.00  0.00    +0.011 C 
ATOM     10  C   UNL     1      35.452 -20.826 -19.950  0.00  0.00    +0.058 C 
ATOM     11  C   UNL     1      33.080 -20.491 -20.262  0.00  0.00    +0.002 C 
ATOM     12  C   UNL     1      35.188 -21.846 -19.037  0.00  0.00    +0.023 C 
ATOM     13  C   UNL     1      32.816 -21.511 -19.348  0.00  0.00    +0.011 C 
ATOM     14  C   UNL     1      33.870 -22.189 -18.736  0.00  0.00    +0.059 C 
ENDBRANCH   1   9
BRANCH   5  15
ATOM     15  O   UNL     1      35.281 -16.043 -24.272  0.00  0.00    -0.505 OA
ATOM     16  H   UNL     1      35.898 -15.361 -24.089  0.00  0.00    +0.292 HD
ENDBRANCH   5  15
BRANCH   4  18
ATOM     17  O   UNL     1      34.395 -14.375 -22.310  0.00  0.00    -0.245 OA
ATOM     18  C   UNL     1      34.663 -15.340 -21.588  0.00  0.00    +0.341 C 
BRANCH  18  19
ATOM     19  O   UNL     1      34.907 -15.205 -20.256  0.00  0.00    -0.477 OA
ATOM     20  H   UNL     1      35.432 -15.839 -19.809  0.00  0.00    +0.295 HD
ENDBRANCH  18  19
ENDBRANCH   4  18
TORSDOF 4
ENDMDL
MODEL 3
REMARK VINA RESULT:      -9.6      1.432      2.069
REMARK  Name = 5287495
REMARK  4 active torsions:
REMARK  status: ('A' for Active; 'I' for Inactive)
REMARK    1  A    between atoms: C_1  and  C_9
REMARK    2  A    between atoms: C_4  and  C_18
REMARK    3  A    between atoms: C_5  and  O_15
REMARK    4  A    between atoms: C_18  and  O_19
REMARK                            x       y       z     vdW  Elec       q    Type
REMARK                         _______ _______ _______ _____ _____    ______ ____
ROOT
ATOM      1  C   UNL     1      35.243 -18.708 -21.207  0.00  0.00    +0.001 C 
ATOM      2  C   UNL     1      34.235 -19.563 -20.764  0.00  0.00    +0.010 C 
ATOM      3  C   UNL     1      36.579 -19.002 -20.931  0.00  0.00    +0.003 C 
ATOM      4  C   UNL     1      34.562 -20.713 -20.045  0.00  0.00    +0.109 C 
ATOM      5  C   UNL     1      35.897 -21.008 -19.770  0.00  0.00    +0.140 C 
ATOM      6  C   UNL     1      36.905 -20.153 -20.213  0.00  0.00    +0.037 C 
ENDROOT
BRANCH   1   9
ATOM      7 CL   UNL     1      34.906 -18.984 -24.260  0.00  0.00    -0.082 Cl
ATOM      8 CL   UNL     1      33.853 -13.713 -24.150  0.00  0.00    -0.082 Cl
ATOM      9  C   UNL     1      34.906 -17.515 -21.952  0.00  0.00    +0.011 C 
ATOM     10  C   UNL     1      34.730 -17.531 -23.337  0.00  0.00    +0.058 C 
ATOM     11  C   UNL     1      34.754 -16.317 -21.249  0.00  0.00    +0.002 C 
ATOM     12  C   UNL     1      34.405 -16.357 -24.016  0.00  0.00    +0.023 C 
ATOM     13  C   UNL     1      34.428 -15.142 -21.929  0.00  0.00    +0.011 C 
ATOM     14  C   UNL     1      34.254 -15.163 -23.312  0.00  0.00    +0.059 C 
ENDBRANCH   1   9
BRANCH   5  15
ATOM     15  O   UNL     1      36.236 -22.126 -19.069  0.00  0.00    -0.505 OA
ATOM     16  H   UNL     1      37.090 -22.501 -19.167  0.00  0.00    +0.292 HD
ENDBRANCH   5  15
BRANCH   4  18
ATOM     17  O   UNL     1      33.547 -22.826 -19.561  0.00  0.00    -0.245 OA
ATOM     18  C   UNL     1      33.493 -21.593 -19.591  0.00  0.00    +0.341 C 
BRANCH  18  19
ATOM     19  O   UNL     1      32.391 -20.905 -19.189  0.00  0.00    -0.477 OA
ATOM     20  H   UNL     1      31.792 -20.567 -19.824  0.00  0.00    +0.295 HD
ENDBRANCH  18  19
ENDBRANCH   4  18
TORSDOF 4
ENDMDL
MODEL 4
REMARK VINA RESULT:      -9.4      4.244      6.417
REMARK  Name = 5287495
REMARK  4 active torsions:
REMARK  status: ('A' for Active; 'I' for Inactive)
REMARK    1  A    between atoms: C_1  and  C_9
REMARK    2  A    between atoms: C_4  and  C_18
REMARK    3  A    between atoms: C_5  and  O_15
REMARK    4  A    between atoms: C_18  and  O_19
REMARK                            x       y       z     vdW  Elec       q    Type
REMARK                         _______ _______ _______ _____ _____    ______ ____
ROOT
ATOM      1  C   UNL     1      34.398 -17.621 -21.638  0.00  0.00    +0.001 C 
ATOM      2  C   UNL     1      34.307 -17.520 -23.026  0.00  0.00    +0.010 C 
ATOM      3  C   UNL     1      34.535 -16.469 -20.862  0.00  0.00    +0.003 C 
ATOM      4  C   UNL     1      34.353 -16.268 -23.639  0.00  0.00    +0.109 C 
ATOM      5  C   UNL     1      34.490 -15.116 -22.864  0.00  0.00    +0.140 C 
ATOM      6  C   UNL     1      34.580 -15.217 -21.476  0.00  0.00    +0.037 C 
ENDROOT
BRANCH   1   9
ATOM      7 CL   UNL     1      37.082 -19.049 -21.121  0.00  0.00    -0.082 Cl
ATOM      8 CL   UNL     1      34.060 -22.961 -19.010  0.00  0.00    -0.082 Cl
ATOM      9  C   UNL     1      34.351 -18.919 -21.001  0.00  0.00    +0.011 C 
ATOM     10  C   UNL     1      35.509 -19.649 -20.723  0.00  0.00    +0.058 C 
ATOM     11  C   UNL     1      33.103 -19.445 -20.661  0.00  0.00    +0.002 C 
ATOM     12  C   UNL     1      35.419 -20.897 -20.108  0.00  0.00    +0.023 C 
ATOM     13  C   UNL     1      33.013 -20.694 -20.045  0.00  0.00    +0.011 C 
ATOM     14  C   UNL     1      34.172 -21.419 -19.769  0.00  0.00    +0.059 C 
ENDBRANCH   1   9
BRANCH   5  15
ATOM     15  O   UNL     1      34.537 -13.885 -23.445  0.00  0.00    -0.505 OA
ATOM     16  H   UNL     1      33.996 -13.192 -23.120  0.00  0.00    +0.292 HD
ENDBRANCH   5  15
BRANCH   4  18
ATOM     17  O   UNL     1      34.932 -16.842 -25.889  0.00  0.00    -0.245 OA
ATOM     18  C   UNL     1      34.258 -16.185 -25.090  0.00  0.00    +0.341 C 
BRANCH  18  19
ATOM     19  O   UNL     1      33.324 -15.284 -25.498  0.00  0.00    -0.477 OA
ATOM     20  H   UNL     1      32.760 -14.877 -24.871  0.00  0.00    +0.295 HD
ENDBRANCH  18  19
ENDBRANCH   4  18
TORSDOF 4
ENDMDL
MODEL 5
REMARK VINA RESULT:      -9.3      4.069      6.407
REMARK  Name = 5287495
REMARK  4 active torsions:
REMARK  status: ('A' for Active; 'I' for Inactive)
REMARK    1  A    between atoms: C_1  and  C_9
REMARK    2  A    between atoms: C_4  and  C_18
REMARK    3  A    between atoms: C_5  and  O_15
REMARK    4  A    between atoms: C_18  and  O_19
REMARK                            x       y       z     vdW  Elec       q    Type
REMARK                         _______ _______ _______ _____ _____    ______ ____
ROOT
ATOM      1  C   UNL     1      34.585 -18.592 -22.622  0.00  0.00    +0.001 C 
ATOM      2  C   UNL     1      34.476 -17.221 -22.390  0.00  0.00    +0.010 C 
ATOM      3  C   UNL     1      34.659 -19.076 -23.929  0.00  0.00    +0.003 C 
ATOM      4  C   UNL     1      34.442 -16.333 -23.465  0.00  0.00    +0.109 C 
ATOM      5  C   UNL     1      34.516 -16.816 -24.771  0.00  0.00    +0.140 C 
ATOM      6  C   UNL     1      34.625 -18.187 -25.003  0.00  0.00    +0.037 C 
ENDROOT
BRANCH   1   9
ATOM      7 CL   UNL     1      37.335 -19.210 -21.371  0.00  0.00    -0.082 Cl
ATOM      8 CL   UNL     1      34.582 -22.408 -18.041  0.00  0.00    -0.082 Cl
ATOM      9  C   UNL     1      34.619 -19.515 -21.508  0.00  0.00    +0.011 C 
ATOM     10  C   UNL     1      35.813 -19.861 -20.870  0.00  0.00    +0.058 C 
ATOM     11  C   UNL     1      33.414 -20.067 -21.068  0.00  0.00    +0.002 C 
ATOM     12  C   UNL     1      35.801 -20.754 -19.800  0.00  0.00    +0.023 C 
ATOM     13  C   UNL     1      33.403 -20.961 -19.996  0.00  0.00    +0.011 C 
ATOM     14  C   UNL     1      34.597 -21.304 -19.363  0.00  0.00    +0.059 C 
ENDBRANCH   1   9
BRANCH   5  15
ATOM     15  O   UNL     1      34.484 -15.964 -25.834  0.00  0.00    -0.505 OA
ATOM     16  H   UNL     1      34.227 -16.277 -26.679  0.00  0.00    +0.292 HD
ENDBRANCH   5  15
BRANCH   4  18
ATOM     17  O   UNL     1      33.955 -14.056 -24.017  0.00  0.00    -0.245 OA
ATOM     18  C   UNL     1      34.327 -14.905 -23.202  0.00  0.00    +0.341 C 
BRANCH  18  19
ATOM     19  O   UNL     1      34.680 -14.583 -21.928  0.00  0.00    -0.477 OA
ATOM     20  H   UNL     1      34.019 -14.401 -21.290  0.00  0.00    +0.295 HD
ENDBRANCH  18  19
ENDBRANCH   4  18
TORSDOF 4
ENDMDL
MODEL 6
REMARK VINA RESULT:      -9.3      4.132      6.448
REMARK  Name = 5287495
REMARK  4 active torsions:
REMARK  status: ('A' for Active; 'I' for Inactive)
REMARK    1  A    between atoms: C_1  and  C_9
REMARK    2  A    between atoms: C_4  and  C_18
REMARK    3  A    between atoms: C_5  and  O_15
REMARK    4  A    between atoms: C_18  and  O_19
REMARK                            x       y       z     vdW  Elec       q    Type
REMARK                         _______ _______ _______ _____ _____    ______ ____
ROOT
ATOM      1  C   UNL     1      34.951 -18.443 -22.692  0.00  0.00    +0.001 C 
ATOM      2  C   UNL     1      34.639 -17.099 -22.491  0.00  0.00    +0.010 C 
ATOM      3  C   UNL     1      34.932 -18.979 -23.980  0.00  0.00    +0.003 C 
ATOM      4  C   UNL     1      34.309 -16.290 -23.577  0.00  0.00    +0.109 C 
ATOM      5  C   UNL     1      34.290 -16.824 -24.865  0.00  0.00    +0.140 C 
ATOM      6  C   UNL     1      34.603 -18.169 -25.066  0.00  0.00    +0.037 C 
ENDROOT
BRANCH   1   9
ATOM      7 CL   UNL     1      32.658 -19.976 -21.313  0.00  0.00    -0.082 Cl
ATOM      8 CL   UNL     1      36.501 -21.868 -18.064  0.00  0.00    -0.082 Cl
ATOM      9  C   UNL     1      35.293 -19.284 -21.565  0.00  0.00    +0.011 C 
ATOM     10  C   UNL     1      34.330 -20.020 -20.871  0.00  0.00    +0.058 C 
ATOM     11  C   UNL     1      36.632 -19.351 -21.171  0.00  0.00    +0.002 C 
ATOM     12  C   UNL     1      34.703 -20.818 -19.790  0.00  0.00    +0.023 C 
ATOM     13  C   UNL     1      37.005 -20.150 -20.090  0.00  0.00    +0.011 C 
ATOM     14  C   UNL     1      36.040 -20.883 -19.400  0.00  0.00    +0.059 C 
ENDBRANCH   1   9
BRANCH   5  15
ATOM     15  O   UNL     1      33.970 -16.050 -25.940  0.00  0.00    -0.505 OA
ATOM     16  H   UNL     1      33.317 -15.382 -25.859  0.00  0.00    +0.292 HD
ENDBRANCH   5  15
BRANCH   4  18
ATOM     17  O   UNL     1      33.010 -14.294 -23.814  0.00  0.00    -0.245 OA
ATOM     18  C   UNL     1      33.985 -14.889 -23.346  0.00  0.00    +0.341 C 
BRANCH  18  19
ATOM     19  O   UNL     1      34.891 -14.274 -22.537  0.00  0.00    -0.477 OA
ATOM     20  H   UNL     1      34.664 -14.065 -21.653  0.00  0.00    +0.295 HD
ENDBRANCH  18  19
ENDBRANCH   4  18
TORSDOF 4
ENDMDL
MODEL 7
REMARK VINA RESULT:      -9.2      7.394      8.567
REMARK  Name = 5287495
REMARK  4 active torsions:
REMARK  status: ('A' for Active; 'I' for Inactive)
REMARK    1  A    between atoms: C_1  and  C_9
REMARK    2  A    between atoms: C_4  and  C_18
REMARK    3  A    between atoms: C_5  and  O_15
REMARK    4  A    between atoms: C_18  and  O_19
REMARK                            x       y       z     vdW  Elec       q    Type
REMARK                         _______ _______ _______ _____ _____    ______ ____
ROOT
ATOM      1  C   UNL     1      34.794 -23.629 -15.327  0.00  0.00    +0.001 C 
ATOM      2  C   UNL     1      35.277 -24.934 -15.237  0.00  0.00    +0.010 C 
ATOM      3  C   UNL     1      35.686 -22.556 -15.363  0.00  0.00    +0.003 C 
ATOM      4  C   UNL     1      36.652 -25.168 -15.183  0.00  0.00    +0.109 C 
ATOM      5  C   UNL     1      37.543 -24.096 -15.220  0.00  0.00    +0.140 C 
ATOM      6  C   UNL     1      37.060 -22.790 -15.311  0.00  0.00    +0.037 C 
ENDROOT
BRANCH   1   9
ATOM      7 CL   UNL     1      33.523 -23.238 -18.110  0.00  0.00    -0.082 Cl
ATOM      8 CL   UNL     1      28.917 -22.635 -15.406  0.00  0.00    -0.082 Cl
ATOM      9  C   UNL     1      33.369 -23.386 -15.382  0.00  0.00    +0.011 C 
ATOM     10  C   UNL     1      32.696 -23.196 -16.591  0.00  0.00    +0.058 C 
ATOM     11  C   UNL     1      32.658 -23.343 -14.180  0.00  0.00    +0.002 C 
ATOM     12  C   UNL     1      31.322 -22.965 -16.599  0.00  0.00    +0.023 C 
ATOM     13  C   UNL     1      31.283 -23.111 -14.188  0.00  0.00    +0.011 C 
ATOM     14  C   UNL     1      30.615 -22.922 -15.398  0.00  0.00    +0.059 C 
ENDBRANCH   1   9
BRANCH   5  15
ATOM     15  O   UNL     1      38.888 -24.303 -15.169  0.00  0.00    -0.505 OA
ATOM     16  H   UNL     1      39.383 -23.993 -14.435  0.00  0.00    +0.292 HD
ENDBRANCH   5  15
BRANCH   4  18
ATOM     17  O   UNL     1      37.753 -27.013 -14.131  0.00  0.00    -0.245 OA
ATOM     18  C   UNL     1      37.135 -26.538 -15.088  0.00  0.00    +0.341 C 
BRANCH  18  19
ATOM     19  O   UNL     1      36.832 -27.273 -16.193  0.00  0.00    -0.477 OA
ATOM     20  H   UNL     1      36.012 -27.149 -16.628  0.00  0.00    +0.295 HD
ENDBRANCH  18  19
ENDBRANCH   4  18
TORSDOF 4
ENDMDL
MODEL 8
REMARK VINA RESULT:      -8.5      4.057      6.209
REMARK  Name = 5287495
REMARK  4 active torsions:
REMARK  status: ('A' for Active; 'I' for Inactive)
REMARK    1  A    between atoms: C_1  and  C_9
REMARK    2  A    between atoms: C_4  and  C_18
REMARK    3  A    between atoms: C_5  and  O_15
REMARK    4  A    between atoms: C_18  and  O_19
REMARK                            x       y       z     vdW  Elec       q    Type
REMARK                         _______ _______ _______ _____ _____    ______ ____
ROOT
ATOM      1  C   UNL     1      34.697 -18.445 -21.529  0.00  0.00    +0.001 C 
ATOM      2  C   UNL     1      34.596 -18.514 -22.918  0.00  0.00    +0.010 C 
ATOM      3  C   UNL     1      34.900 -17.214 -20.904  0.00  0.00    +0.003 C 
ATOM      4  C   UNL     1      34.699 -17.352 -23.683  0.00  0.00    +0.109 C 
ATOM      5  C   UNL     1      34.902 -16.122 -23.059  0.00  0.00    +0.140 C 
ATOM      6  C   UNL     1      35.002 -16.052 -21.670  0.00  0.00    +0.037 C 
ENDROOT
BRANCH   1   9
ATOM      7 CL   UNL     1      31.877 -19.317 -20.634  0.00  0.00    -0.082 Cl
ATOM      8 CL   UNL     1      34.409 -23.422 -18.260  0.00  0.00    -0.082 Cl
ATOM      9  C   UNL     1      34.591 -19.649 -20.734  0.00  0.00    +0.011 C 
ATOM     10  C   UNL     1      33.362 -20.131 -20.278  0.00  0.00    +0.058 C 
ATOM     11  C   UNL     1      35.764 -20.340 -20.421  0.00  0.00    +0.002 C 
ATOM     12  C   UNL     1      33.306 -21.296 -19.515  0.00  0.00    +0.023 C 
ATOM     13  C   UNL     1      35.708 -21.506 -19.656  0.00  0.00    +0.011 C 
ATOM     14  C   UNL     1      34.478 -21.983 -19.204  0.00  0.00    +0.059 C 
ENDBRANCH   1   9
BRANCH   5  15
ATOM     15  O   UNL     1      35.005 -14.976 -23.790  0.00  0.00    -0.505 OA
ATOM     16  H   UNL     1      34.549 -14.896 -24.605  0.00  0.00    +0.292 HD
ENDBRANCH   5  15
BRANCH   4  18
ATOM     17  O   UNL     1      35.022 -16.614 -25.936  0.00  0.00    -0.245 OA
ATOM     18  C   UNL     1      34.592 -17.447 -25.133  0.00  0.00    +0.341 C 
BRANCH  18  19
ATOM     19  O   UNL     1      33.950 -18.577 -25.533  0.00  0.00    -0.477 OA
ATOM     20  H   UNL     1      33.034 -18.679 -25.371  0.00  0.00    +0.295 HD
ENDBRANCH  18  19
ENDBRANCH   4  18
TORSDOF 4
ENDMDL
MODEL 9
REMARK VINA RESULT:      -8.4      5.013      7.232
REMARK  Name = 5287495
REMARK  4 active torsions:
REMARK  status: ('A' for Active; 'I' for Inactive)
REMARK    1  A    between atoms: C_1  and  C_9
REMARK    2  A    between atoms: C_4  and  C_18
REMARK    3  A    between atoms: C_5  and  O_15
REMARK    4  A    between atoms: C_18  and  O_19
REMARK                            x       y       z     vdW  Elec       q    Type
REMARK                         _______ _______ _______ _____ _____    ______ ____
ROOT
ATOM      1  C   UNL     1      33.322 -13.676 -24.009  0.00  0.00    +0.001 C 
ATOM      2  C   UNL     1      33.937 -14.619 -23.186  0.00  0.00    +0.010 C 
ATOM      3  C   UNL     1      33.047 -13.986 -25.342  0.00  0.00    +0.003 C 
ATOM      4  C   UNL     1      34.276 -15.873 -23.695  0.00  0.00    +0.109 C 
ATOM      5  C   UNL     1      34.001 -16.183 -25.026  0.00  0.00    +0.140 C 
ATOM      6  C   UNL     1      33.386 -15.240 -25.849  0.00  0.00    +0.037 C 
ENDROOT
BRANCH   1   9
ATOM      7 CL   UNL     1      34.622 -11.209 -25.327  0.00  0.00    -0.082 Cl
ATOM      8 CL   UNL     1      31.786  -8.381 -21.742  0.00  0.00    -0.082 Cl
ATOM      9  C   UNL     1      32.970 -12.375 -23.483  0.00  0.00    +0.011 C 
ATOM     10  C   UNL     1      33.502 -11.195 -24.008  0.00  0.00    +0.058 C 
ATOM     11  C   UNL     1      32.069 -12.313 -22.417  0.00  0.00    +0.002 C 
ATOM     12  C   UNL     1      33.137  -9.962 -23.471  0.00  0.00    +0.023 C 
ATOM     13  C   UNL     1      31.703 -11.079 -21.879  0.00  0.00    +0.011 C 
ATOM     14  C   UNL     1      32.237  -9.904 -22.407  0.00  0.00    +0.059 C 
ENDBRANCH   1   9
BRANCH   5  15
ATOM     15  O   UNL     1      34.325 -17.402 -25.541  0.00  0.00    -0.505 OA
ATOM     16  H   UNL     1      35.207 -17.580 -25.807  0.00  0.00    +0.292 HD
ENDBRANCH   5  15
BRANCH   4  18
ATOM     17  O   UNL     1      34.530 -17.152 -21.689  0.00  0.00    -0.245 OA
ATOM     18  C   UNL     1      34.919 -16.843 -22.819  0.00  0.00    +0.341 C 
BRANCH  18  19
ATOM     19  O   UNL     1      36.027 -17.397 -23.382  0.00  0.00    -0.477 OA
ATOM     20  H   UNL     1      36.034 -18.306 -23.607  0.00  0.00    +0.295 HD
ENDBRANCH  18  19
ENDBRANCH   4  18
TORSDOF 4
ENDMDL
