MODEL 1
REMARK VINA RESULT:     -10.9      0.000      0.000
REMARK  Name = 6102824
REMARK  5 active torsions:
REMARK  status: ('A' for Active; 'I' for Inactive)
REMARK    1  A    between atoms: C_3  and  C_22
REMARK    2  A    between atoms: C_4  and  C_16
REMARK    3  A    between atoms: C_6  and  C_10
REMARK    4  A    between atoms: C_22  and  N_23
REMARK    5  A    between atoms: C_22  and  C_27
REMARK                            x       y       z     vdW  Elec       q    Type
REMARK                         _______ _______ _______ _____ _____    ______ ____
ROOT
ATOM      1  O   UNL     1      36.704 -22.055 -17.727  0.00  0.00    -0.277 OA
ATOM      2  N   UNL     1      34.613 -22.789 -17.053  0.00  0.00    -0.271 N 
ATOM      3  C   UNL     1      35.528 -22.315 -17.984  0.00  0.00    +0.206 C 
ATOM      4  C   UNL     1      34.935 -22.911 -15.629  0.00  0.00    +0.120 C 
ATOM      5  C   UNL     1      33.211 -23.107 -17.326  0.00  0.00    +0.120 C 
ATOM      6  C   UNL     1      32.637 -23.342 -15.960  0.00  0.00    -0.002 C 
ATOM      7  C   UNL     1      33.595 -23.223 -15.027  0.00  0.00    -0.005 C 
ENDROOT
BRANCH   6  10
ATOM      8  F   UNL     1      31.754 -25.453 -14.289  0.00  0.00    -0.204 F 
ATOM      9  F   UNL     1      27.931 -22.440 -16.784  0.00  0.00    -0.204 F 
ATOM     10  C   UNL     1      31.211 -23.652 -15.744  0.00  0.00    +0.027 C 
ATOM     11  C   UNL     1      30.826 -24.708 -14.906  0.00  0.00    +0.140 C 
ATOM     12  C   UNL     1      30.220 -22.889 -16.376  0.00  0.00    +0.032 C 
ATOM     13  C   UNL     1      28.870 -23.176 -16.175  0.00  0.00    +0.140 C 
ATOM     14  C   UNL     1      29.476 -24.995 -14.705  0.00  0.00    +0.032 C 
ATOM     15  C   UNL     1      28.498 -24.229 -15.340  0.00  0.00    +0.032 C 
ENDBRANCH   6  10
BRANCH   4  16
ATOM     16  C   UNL     1      35.972 -23.972 -15.327  0.00  0.00    -0.000 C 
ATOM     17  C   UNL     1      35.613 -25.320 -15.333  0.00  0.00    -0.002 C 
ATOM     18  C   UNL     1      37.287 -23.602 -15.044  0.00  0.00    -0.002 C 
ATOM     19  C   UNL     1      36.569 -26.298 -15.055  0.00  0.00    -0.000 C 
ATOM     20  C   UNL     1      38.242 -24.580 -14.766  0.00  0.00    -0.000 C 
ATOM     21  C   UNL     1      37.883 -25.927 -14.772  0.00  0.00    -0.000 C 
ENDBRANCH   4  16
BRANCH   3  22
ATOM     22  C   UNL     1      34.994 -22.126 -19.382  0.00  0.00    +0.013 C 
BRANCH  22  23
ATOM     23  N   UNL     1      34.027 -23.188 -19.608  0.00  0.00    +0.387 N 
ATOM     24  H   UNL     1      34.477 -24.093 -19.468  0.00  0.00    -0.089 HD
ATOM     25  H   UNL     1      33.675 -23.129 -20.563  0.00  0.00    -0.089 HD
ATOM     26  H   UNL     1      33.253 -23.089 -18.952  0.00  0.00    -0.089 HD
ENDBRANCH  22  23
BRANCH  22  27
ATOM     27  C   UNL     1      34.363 -20.785 -19.554  0.00  0.00    -0.011 C 
ATOM     28  C   UNL     1      34.348 -20.160 -20.914  0.00  0.00    -0.002 C 
ATOM     29  C   UNL     1      33.076 -20.682 -20.312  0.00  0.00    -0.002 C 
ENDBRANCH  22  27
ENDBRANCH   3  22
TORSDOF 5
ENDMDL
MODEL 2
REMARK VINA RESULT:     -10.5      1.559      2.128
REMARK  Name = 6102824
REMARK  5 active torsions:
REMARK  status: ('A' for Active; 'I' for Inactive)
REMARK    1  A    between atoms: C_3  and  C_22
REMARK    2  A    between atoms: C_4  and  C_16
REMARK    3  A    between atoms: C_6  and  C_10
REMARK    4  A    between atoms: C_22  and  N_23
REMARK    5  A    between atoms: C_22  and  C_27
REMARK                            x       y       z     vdW  Elec       q    Type
REMARK                         _______ _______ _______ _____ _____    ______ ____
ROOT
ATOM      1  O   UNL     1      37.726 -22.160 -15.479  0.00  0.00    -0.277 OA
ATOM      2  N   UNL     1      35.509 -22.831 -15.477  0.00  0.00    -0.271 N 
ATOM      3  C   UNL     1      36.600 -22.130 -15.976  0.00  0.00    +0.206 C 
ATOM      4  C   UNL     1      35.569 -23.586 -14.222  0.00  0.00    +0.120 C 
ATOM      5  C   UNL     1      34.160 -22.817 -16.043  0.00  0.00    +0.120 C 
ATOM      6  C   UNL     1      33.343 -23.532 -15.008  0.00  0.00    -0.002 C 
ATOM      7  C   UNL     1      34.129 -23.946 -14.001  0.00  0.00    -0.005 C 
ENDROOT
BRANCH   6  10
ATOM      8  F   UNL     1      31.907 -25.523 -13.594  0.00  0.00    -0.204 F 
ATOM      9  F   UNL     1      29.066 -22.255 -16.937  0.00  0.00    -0.204 F 
ATOM     10  C   UNL     1      31.885 -23.715 -15.139  0.00  0.00    +0.027 C 
ATOM     11  C   UNL     1      31.221 -24.716 -14.417  0.00  0.00    +0.140 C 
ATOM     12  C   UNL     1      31.144 -22.886 -15.992  0.00  0.00    +0.032 C 
ATOM     13  C   UNL     1      29.766 -23.053 -16.119  0.00  0.00    +0.140 C 
ATOM     14  C   UNL     1      29.843 -24.884 -14.545  0.00  0.00    +0.032 C 
ATOM     15  C   UNL     1      29.115 -24.052 -15.396  0.00  0.00    +0.032 C 
ENDBRANCH   6  10
BRANCH   4  16
ATOM     16  C   UNL     1      36.472 -24.800 -14.285  0.00  0.00    -0.000 C 
ATOM     17  C   UNL     1      37.609 -24.866 -13.479  0.00  0.00    -0.002 C 
ATOM     18  C   UNL     1      36.166 -25.854 -15.147  0.00  0.00    -0.002 C 
ATOM     19  C   UNL     1      38.441 -25.984 -13.537  0.00  0.00    -0.000 C 
ATOM     20  C   UNL     1      36.998 -26.971 -15.203  0.00  0.00    -0.000 C 
ATOM     21  C   UNL     1      38.134 -27.037 -14.399  0.00  0.00    -0.000 C 
ENDBRANCH   4  16
BRANCH   3  22
ATOM     22  C   UNL     1      36.332 -21.298 -17.204  0.00  0.00    +0.013 C 
BRANCH  22  23
ATOM     23  N   UNL     1      37.396 -20.309 -17.281  0.00  0.00    +0.387 N 
ATOM     24  H   UNL     1      37.386 -19.734 -16.439  0.00  0.00    -0.089 HD
ATOM     25  H   UNL     1      37.252 -19.717 -18.098  0.00  0.00    -0.089 HD
ATOM     26  H   UNL     1      38.296 -20.783 -17.358  0.00  0.00    -0.089 HD
ENDBRANCH  22  23
BRANCH  22  27
ATOM     27  C   UNL     1      36.293 -22.135 -18.439  0.00  0.00    -0.011 C 
ATOM     28  C   UNL     1      35.143 -21.980 -19.384  0.00  0.00    -0.002 C 
ATOM     29  C   UNL     1      36.504 -21.477 -19.767  0.00  0.00    -0.002 C 
ENDBRANCH  22  27
ENDBRANCH   3  22
TORSDOF 5
ENDMDL
MODEL 3
REMARK VINA RESULT:     -10.0      2.912      5.487
REMARK  Name = 6102824
REMARK  5 active torsions:
REMARK  status: ('A' for Active; 'I' for Inactive)
REMARK    1  A    between atoms: C_3  and  C_22
REMARK    2  A    between atoms: C_4  and  C_16
REMARK    3  A    between atoms: C_6  and  C_10
REMARK    4  A    between atoms: C_22  and  N_23
REMARK    5  A    between atoms: C_22  and  C_27
REMARK                            x       y       z     vdW  Elec       q    Type
REMARK                         _______ _______ _______ _____ _____    ______ ____
ROOT
ATOM      1  O   UNL     1      32.913 -25.251 -12.992  0.00  0.00    -0.277 OA
ATOM      2  N   UNL     1      33.634 -24.005 -14.807  0.00  0.00    -0.271 N 
ATOM      3  C   UNL     1      32.714 -24.376 -13.835  0.00  0.00    +0.206 C 
ATOM      4  C   UNL     1      34.901 -24.717 -14.998  0.00  0.00    +0.120 C 
ATOM      5  C   UNL     1      33.429 -22.972 -15.821  0.00  0.00    +0.120 C 
ATOM      6  C   UNL     1      34.608 -23.142 -16.733  0.00  0.00    -0.002 C 
ATOM      7  C   UNL     1      35.413 -24.115 -16.275  0.00  0.00    -0.005 C 
ENDROOT
BRANCH   6  10
ATOM      8  F   UNL     1      37.128 -22.128 -17.538  0.00  0.00    -0.204 F 
ATOM      9  F   UNL     1      32.812 -20.957 -20.688  0.00  0.00    -0.204 F 
ATOM     10  C   UNL     1      34.794 -22.325 -17.947  0.00  0.00    +0.027 C 
ATOM     11  C   UNL     1      36.063 -21.847 -18.302  0.00  0.00    +0.140 C 
ATOM     12  C   UNL     1      33.698 -22.017 -18.764  0.00  0.00    +0.032 C 
ATOM     13  C   UNL     1      33.867 -21.246 -19.914  0.00  0.00    +0.140 C 
ATOM     14  C   UNL     1      36.232 -21.076 -19.452  0.00  0.00    +0.032 C 
ATOM     15  C   UNL     1      35.134 -20.775 -20.258  0.00  0.00    +0.032 C 
ENDBRANCH   6  10
BRANCH   4  16
ATOM     16  C   UNL     1      35.871 -24.554 -13.847  0.00  0.00    -0.000 C 
ATOM     17  C   UNL     1      36.656 -25.632 -13.438  0.00  0.00    -0.002 C 
ATOM     18  C   UNL     1      35.981 -23.325 -13.195  0.00  0.00    -0.002 C 
ATOM     19  C   UNL     1      37.550 -25.483 -12.377  0.00  0.00    -0.000 C 
ATOM     20  C   UNL     1      36.874 -23.177 -12.134  0.00  0.00    -0.000 C 
ATOM     21  C   UNL     1      37.658 -24.254 -11.726  0.00  0.00    -0.000 C 
ENDBRANCH   4  16
BRANCH   3  22
ATOM     22  C   UNL     1      31.405 -23.626 -13.860  0.00  0.00    +0.013 C 
BRANCH  22  23
ATOM     23  N   UNL     1      31.733 -22.211 -13.796  0.00  0.00    +0.387 N 
ATOM     24  H   UNL     1      31.818 -21.926 -12.820  0.00  0.00    -0.089 HD
ATOM     25  H   UNL     1      30.993 -21.670 -14.243  0.00  0.00    -0.089 HD
ATOM     26  H   UNL     1      32.616 -22.044 -14.277  0.00  0.00    -0.089 HD
ENDBRANCH  22  23
BRANCH  22  27
ATOM     27  C   UNL     1      30.616 -23.935 -15.088  0.00  0.00    -0.011 C 
ATOM     28  C   UNL     1      29.289 -24.612 -14.946  0.00  0.00    -0.002 C 
ATOM     29  C   UNL     1      29.358 -23.169 -15.352  0.00  0.00    -0.002 C 
ENDBRANCH  22  27
ENDBRANCH   3  22
TORSDOF 5
ENDMDL
MODEL 4
REMARK VINA RESULT:     -10.0      1.075      2.102
REMARK  Name = 6102824
REMARK  5 active torsions:
REMARK  status: ('A' for Active; 'I' for Inactive)
REMARK    1  A    between atoms: C_3  and  C_22
REMARK    2  A    between atoms: C_4  and  C_16
REMARK    3  A    between atoms: C_6  and  C_10
REMARK    4  A    between atoms: C_22  and  N_23
REMARK    5  A    between atoms: C_22  and  C_27
REMARK                            x       y       z     vdW  Elec       q    Type
REMARK                         _______ _______ _______ _____ _____    ______ ____
ROOT
ATOM      1  O   UNL     1      36.744 -22.001 -17.650  0.00  0.00    -0.277 OA
ATOM      2  N   UNL     1      34.648 -22.783 -17.049  0.00  0.00    -0.271 N 
ATOM      3  C   UNL     1      35.582 -22.280 -17.946  0.00  0.00    +0.206 C 
ATOM      4  C   UNL     1      34.930 -22.917 -15.617  0.00  0.00    +0.120 C 
ATOM      5  C   UNL     1      33.262 -23.124 -17.367  0.00  0.00    +0.120 C 
ATOM      6  C   UNL     1      32.651 -23.388 -16.023  0.00  0.00    -0.002 C 
ATOM      7  C   UNL     1      33.579 -23.262 -15.059  0.00  0.00    -0.005 C 
ENDROOT
BRANCH   6  10
ATOM      8  F   UNL     1      30.556 -21.849 -17.149  0.00  0.00    -0.204 F 
ATOM      9  F   UNL     1      29.162 -26.260 -14.230  0.00  0.00    -0.204 F 
ATOM     10  C   UNL     1      31.226 -23.727 -15.853  0.00  0.00    +0.027 C 
ATOM     11  C   UNL     1      30.227 -22.932 -16.431  0.00  0.00    +0.140 C 
ATOM     12  C   UNL     1      30.853 -24.854 -15.108  0.00  0.00    +0.032 C 
ATOM     13  C   UNL     1      29.507 -25.180 -14.944  0.00  0.00    +0.140 C 
ATOM     14  C   UNL     1      28.881 -23.259 -16.268  0.00  0.00    +0.032 C 
ATOM     15  C   UNL     1      28.521 -24.383 -15.524  0.00  0.00    +0.032 C 
ENDBRANCH   6  10
BRANCH   4  16
ATOM     16  C   UNL     1      35.978 -23.962 -15.297  0.00  0.00    -0.000 C 
ATOM     17  C   UNL     1      37.274 -23.570 -14.962  0.00  0.00    -0.002 C 
ATOM     18  C   UNL     1      35.647 -25.317 -15.335  0.00  0.00    -0.002 C 
ATOM     19  C   UNL     1      38.240 -24.533 -14.667  0.00  0.00    -0.000 C 
ATOM     20  C   UNL     1      36.613 -26.279 -15.040  0.00  0.00    -0.000 C 
ATOM     21  C   UNL     1      37.908 -25.887 -14.707  0.00  0.00    -0.000 C 
ENDBRANCH   4  16
BRANCH   3  22
ATOM     22  C   UNL     1      35.087 -22.083 -19.357  0.00  0.00    +0.013 C 
BRANCH  22  23
ATOM     23  N   UNL     1      33.892 -21.258 -19.270  0.00  0.00    +0.387 N 
ATOM     24  H   UNL     1      33.409 -21.265 -20.168  0.00  0.00    -0.089 HD
ATOM     25  H   UNL     1      34.155 -20.303 -19.032  0.00  0.00    -0.089 HD
ATOM     26  H   UNL     1      33.274 -21.631 -18.549  0.00  0.00    -0.089 HD
ENDBRANCH  22  23
BRANCH  22  27
ATOM     27  C   UNL     1      36.119 -21.437 -20.218  0.00  0.00    -0.011 C 
ATOM     28  C   UNL     1      35.724 -20.278 -21.078  0.00  0.00    -0.002 C 
ATOM     29  C   UNL     1      36.591 -20.059 -19.873  0.00  0.00    -0.002 C 
ENDBRANCH  22  27
ENDBRANCH   3  22
TORSDOF 5
ENDMDL
MODEL 5
REMARK VINA RESULT:      -9.7      1.498      4.692
REMARK  Name = 6102824
REMARK  5 active torsions:
REMARK  status: ('A' for Active; 'I' for Inactive)
REMARK    1  A    between atoms: C_3  and  C_22
REMARK    2  A    between atoms: C_4  and  C_16
REMARK    3  A    between atoms: C_6  and  C_10
REMARK    4  A    between atoms: C_22  and  N_23
REMARK    5  A    between atoms: C_22  and  C_27
REMARK                            x       y       z     vdW  Elec       q    Type
REMARK                         _______ _______ _______ _____ _____    ______ ____
ROOT
ATOM      1  O   UNL     1      36.793 -23.478 -16.080  0.00  0.00    -0.277 OA
ATOM      2  N   UNL     1      34.481 -23.357 -16.021  0.00  0.00    -0.271 N 
ATOM      3  C   UNL     1      35.743 -23.389 -15.443  0.00  0.00    +0.206 C 
ATOM      4  C   UNL     1      34.271 -23.553 -17.458  0.00  0.00    +0.120 C 
ATOM      5  C   UNL     1      33.216 -23.252 -15.294  0.00  0.00    +0.120 C 
ATOM      6  C   UNL     1      32.184 -23.495 -16.355  0.00  0.00    -0.002 C 
ATOM      7  C   UNL     1      32.778 -23.670 -17.547  0.00  0.00    -0.005 C 
ENDROOT
BRANCH   6  10
ATOM      8  F   UNL     1      31.011 -25.397 -14.613  0.00  0.00    -0.204 F 
ATOM      9  F   UNL     1      27.694 -21.726 -16.946  0.00  0.00    -0.204 F 
ATOM     10  C   UNL     1      30.739 -23.530 -16.061  0.00  0.00    +0.027 C 
ATOM     11  C   UNL     1      30.208 -24.493 -15.191  0.00  0.00    +0.140 C 
ATOM     12  C   UNL     1      29.877 -22.596 -16.651  0.00  0.00    +0.032 C 
ATOM     13  C   UNL     1      28.510 -22.623 -16.377  0.00  0.00    +0.140 C 
ATOM     14  C   UNL     1      28.841 -24.519 -14.917  0.00  0.00    +0.032 C 
ATOM     15  C   UNL     1      27.992 -23.585 -15.510  0.00  0.00    +0.032 C 
ENDBRANCH   6  10
BRANCH   4  16
ATOM     16  C   UNL     1      34.822 -22.430 -18.312  0.00  0.00    -0.000 C 
ATOM     17  C   UNL     1      36.157 -22.048 -18.186  0.00  0.00    -0.002 C 
ATOM     18  C   UNL     1      33.993 -21.779 -19.227  0.00  0.00    -0.002 C 
ATOM     19  C   UNL     1      36.664 -21.013 -18.973  0.00  0.00    -0.000 C 
ATOM     20  C   UNL     1      34.501 -20.745 -20.013  0.00  0.00    -0.000 C 
ATOM     21  C   UNL     1      35.835 -20.363 -19.886  0.00  0.00    -0.000 C 
ENDBRANCH   4  16
BRANCH   3  22
ATOM     22  C   UNL     1      35.771 -23.305 -13.937  0.00  0.00    +0.013 C 
BRANCH  22  23
ATOM     23  N   UNL     1      35.233 -24.560 -13.438  0.00  0.00    +0.387 N 
ATOM     24  H   UNL     1      34.393 -24.802 -13.963  0.00  0.00    -0.089 HD
ATOM     25  H   UNL     1      34.998 -24.460 -12.450  0.00  0.00    -0.089 HD
ATOM     26  H   UNL     1      35.928 -25.297 -13.550  0.00  0.00    -0.089 HD
ENDBRANCH  22  23
BRANCH  22  27
ATOM     27  C   UNL     1      37.153 -23.075 -13.423  0.00  0.00    -0.011 C 
ATOM     28  C   UNL     1      37.372 -22.991 -11.946  0.00  0.00    -0.002 C 
ATOM     29  C   UNL     1      37.854 -24.189 -12.711  0.00  0.00    -0.002 C 
ENDBRANCH  22  27
ENDBRANCH   3  22
TORSDOF 5
ENDMDL
MODEL 6
REMARK VINA RESULT:      -9.6      8.121     11.459
REMARK  Name = 6102824
REMARK  5 active torsions:
REMARK  status: ('A' for Active; 'I' for Inactive)
REMARK    1  A    between atoms: C_3  and  C_22
REMARK    2  A    between atoms: C_4  and  C_16
REMARK    3  A    between atoms: C_6  and  C_10
REMARK    4  A    between atoms: C_22  and  N_23
REMARK    5  A    between atoms: C_22  and  C_27
REMARK                            x       y       z     vdW  Elec       q    Type
REMARK                         _______ _______ _______ _____ _____    ______ ____
ROOT
ATOM      1  O   UNL     1      34.910 -16.771 -25.714  0.00  0.00    -0.277 OA
ATOM      2  N   UNL     1      33.878 -15.298 -24.254  0.00  0.00    -0.271 N 
ATOM      3  C   UNL     1      34.071 -15.897 -25.493  0.00  0.00    +0.206 C 
ATOM      4  C   UNL     1      34.750 -15.568 -23.108  0.00  0.00    +0.120 C 
ATOM      5  C   UNL     1      32.892 -14.259 -23.958  0.00  0.00    +0.120 C 
ATOM      6  C   UNL     1      33.262 -13.814 -22.574  0.00  0.00    -0.002 C 
ATOM      7  C   UNL     1      34.296 -14.538 -22.115  0.00  0.00    -0.005 C 
ENDROOT
BRANCH   6  10
ATOM      8  F   UNL     1      32.478 -13.980 -19.857  0.00  0.00    -0.204 F 
ATOM      9  F   UNL     1      31.262  -9.382 -22.559  0.00  0.00    -0.204 F 
ATOM     10  C   UNL     1      32.551 -12.726 -21.876  0.00  0.00    +0.027 C 
ATOM     11  C   UNL     1      32.185 -12.858 -20.530  0.00  0.00    +0.140 C 
ATOM     12  C   UNL     1      32.233 -11.543 -22.555  0.00  0.00    +0.032 C 
ATOM     13  C   UNL     1      31.562 -10.510 -21.901  0.00  0.00    +0.140 C 
ATOM     14  C   UNL     1      31.514 -11.826 -19.875  0.00  0.00    +0.032 C 
ATOM     15  C   UNL     1      31.202 -10.651 -20.561  0.00  0.00    +0.032 C 
ENDBRANCH   6  10
BRANCH   4  16
ATOM     16  C   UNL     1      34.637 -16.981 -22.576  0.00  0.00    -0.000 C 
ATOM     17  C   UNL     1      35.305 -18.024 -23.217  0.00  0.00    -0.002 C 
ATOM     18  C   UNL     1      33.865 -17.240 -21.442  0.00  0.00    -0.002 C 
ATOM     19  C   UNL     1      35.201 -19.326 -22.727  0.00  0.00    -0.000 C 
ATOM     20  C   UNL     1      33.762 -18.542 -20.953  0.00  0.00    -0.000 C 
ATOM     21  C   UNL     1      34.429 -19.584 -21.595  0.00  0.00    -0.000 C 
ENDBRANCH   4  16
BRANCH   3  22
ATOM     22  C   UNL     1      33.169 -15.409 -26.599  0.00  0.00    +0.013 C 
BRANCH  22  23
ATOM     23  N   UNL     1      31.991 -16.262 -26.584  0.00  0.00    +0.387 N 
ATOM     24  H   UNL     1      32.130 -17.045 -27.222  0.00  0.00    -0.089 HD
ATOM     25  H   UNL     1      31.178 -15.722 -26.881  0.00  0.00    -0.089 HD
ATOM     26  H   UNL     1      31.839 -16.615 -25.639  0.00  0.00    -0.089 HD
ENDBRANCH  22  23
BRANCH  22  27
ATOM     27  C   UNL     1      32.794 -13.977 -26.413  0.00  0.00    -0.011 C 
ATOM     28  C   UNL     1      33.618 -12.920 -27.078  0.00  0.00    -0.002 C 
ATOM     29  C   UNL     1      32.233 -13.219 -27.575  0.00  0.00    -0.002 C 
ENDBRANCH  22  27
ENDBRANCH   3  22
TORSDOF 5
ENDMDL
MODEL 7
REMARK VINA RESULT:      -9.5      7.675     11.895
REMARK  Name = 6102824
REMARK  5 active torsions:
REMARK  status: ('A' for Active; 'I' for Inactive)
REMARK    1  A    between atoms: C_3  and  C_22
REMARK    2  A    between atoms: C_4  and  C_16
REMARK    3  A    between atoms: C_6  and  C_10
REMARK    4  A    between atoms: C_22  and  N_23
REMARK    5  A    between atoms: C_22  and  C_27
REMARK                            x       y       z     vdW  Elec       q    Type
REMARK                         _______ _______ _______ _____ _____    ______ ____
ROOT
ATOM      1  O   UNL     1      32.727 -11.598 -22.752  0.00  0.00    -0.277 OA
ATOM      2  N   UNL     1      33.150 -13.844 -22.380  0.00  0.00    -0.271 N 
ATOM      3  C   UNL     1      32.527 -12.632 -22.114  0.00  0.00    +0.206 C 
ATOM      4  C   UNL     1      34.210 -13.978 -23.383  0.00  0.00    +0.120 C 
ATOM      5  C   UNL     1      32.935 -15.089 -21.642  0.00  0.00    +0.120 C 
ATOM      6  C   UNL     1      34.002 -15.998 -22.177  0.00  0.00    -0.002 C 
ATOM      7  C   UNL     1      34.708 -15.372 -23.133  0.00  0.00    -0.005 C 
ENDROOT
BRANCH   6  10
ATOM      8  F   UNL     1      36.459 -17.390 -22.410  0.00  0.00    -0.204 F 
ATOM      9  F   UNL     1      32.305 -19.986 -19.974  0.00  0.00    -0.204 F 
ATOM     10  C   UNL     1      34.197 -17.371 -21.675  0.00  0.00    +0.027 C 
ATOM     11  C   UNL     1      35.433 -18.017 -21.815  0.00  0.00    +0.140 C 
ATOM     12  C   UNL     1      33.142 -18.049 -21.049  0.00  0.00    +0.032 C 
ATOM     13  C   UNL     1      33.320 -19.347 -20.571  0.00  0.00    +0.140 C 
ATOM     14  C   UNL     1      35.611 -19.315 -21.338  0.00  0.00    +0.032 C 
ATOM     15  C   UNL     1      34.554 -19.980 -20.716  0.00  0.00    +0.032 C 
ENDBRANCH   6  10
BRANCH   4  16
ATOM     16  C   UNL     1      33.732 -13.776 -24.806  0.00  0.00    -0.000 C 
ATOM     17  C   UNL     1      33.913 -12.543 -25.433  0.00  0.00    -0.002 C 
ATOM     18  C   UNL     1      33.112 -14.822 -25.489  0.00  0.00    -0.002 C 
ATOM     19  C   UNL     1      33.473 -12.356 -26.744  0.00  0.00    -0.000 C 
ATOM     20  C   UNL     1      32.672 -14.635 -26.799  0.00  0.00    -0.000 C 
ATOM     21  C   UNL     1      32.852 -13.403 -27.426  0.00  0.00    -0.000 C 
ENDBRANCH   4  16
BRANCH   3  22
ATOM     22  C   UNL     1      31.555 -12.639 -20.962  0.00  0.00    +0.013 C 
BRANCH  22  23
ATOM     23  N   UNL     1      32.320 -12.970 -19.770  0.00  0.00    +0.387 N 
ATOM     24  H   UNL     1      33.301 -13.095 -20.020  0.00  0.00    -0.089 HD
ATOM     25  H   UNL     1      31.960 -13.833 -19.364  0.00  0.00    -0.089 HD
ATOM     26  H   UNL     1      32.237 -12.213 -19.092  0.00  0.00    -0.089 HD
ENDBRANCH  22  23
BRANCH  22  27
ATOM     27  C   UNL     1      30.872 -11.321 -20.808  0.00  0.00    -0.011 C 
ATOM     28  C   UNL     1      30.731 -10.733 -19.439  0.00  0.00    -0.002 C 
ATOM     29  C   UNL     1      31.685 -10.125 -20.425  0.00  0.00    -0.002 C 
ENDBRANCH  22  27
ENDBRANCH   3  22
TORSDOF 5
ENDMDL
MODEL 8
REMARK VINA RESULT:      -9.2      9.290     13.023
REMARK  Name = 6102824
REMARK  5 active torsions:
REMARK  status: ('A' for Active; 'I' for Inactive)
REMARK    1  A    between atoms: C_3  and  C_22
REMARK    2  A    between atoms: C_4  and  C_16
REMARK    3  A    between atoms: C_6  and  C_10
REMARK    4  A    between atoms: C_22  and  N_23
REMARK    5  A    between atoms: C_22  and  C_27
REMARK                            x       y       z     vdW  Elec       q    Type
REMARK                         _______ _______ _______ _____ _____    ______ ____
ROOT
ATOM      1  O   UNL     1      32.599 -10.182 -24.065  0.00  0.00    -0.277 OA
ATOM      2  N   UNL     1      33.325 -12.265 -23.359  0.00  0.00    -0.271 N 
ATOM      3  C   UNL     1      33.438 -11.083 -24.080  0.00  0.00    +0.206 C 
ATOM      4  C   UNL     1      32.120 -12.607 -22.597  0.00  0.00    +0.120 C 
ATOM      5  C   UNL     1      34.301 -13.354 -23.355  0.00  0.00    +0.120 C 
ATOM      6  C   UNL     1      33.592 -14.453 -22.620  0.00  0.00    -0.002 C 
ATOM      7  C   UNL     1      32.383 -14.034 -22.212  0.00  0.00    -0.005 C 
ENDROOT
BRANCH   6  10
ATOM      8  F   UNL     1      34.448 -15.382 -20.084  0.00  0.00    -0.204 F 
ATOM      9  F   UNL     1      35.092 -18.741 -24.353  0.00  0.00    -0.204 F 
ATOM     10  C   UNL     1      34.194 -15.784 -22.414  0.00  0.00    +0.027 C 
ATOM     11  C   UNL     1      34.601 -16.197 -21.138  0.00  0.00    +0.140 C 
ATOM     12  C   UNL     1      34.365 -16.655 -23.498  0.00  0.00    +0.032 C 
ATOM     13  C   UNL     1      34.933 -17.915 -23.310  0.00  0.00    +0.140 C 
ATOM     14  C   UNL     1      35.168 -17.457 -20.950  0.00  0.00    +0.032 C 
ATOM     15  C   UNL     1      35.334 -18.316 -22.037  0.00  0.00    +0.032 C 
ENDBRANCH   6  10
BRANCH   4  16
ATOM     16  C   UNL     1      31.884 -11.713 -21.398  0.00  0.00    -0.000 C 
ATOM     17  C   UNL     1      31.785 -12.268 -20.122  0.00  0.00    -0.002 C 
ATOM     18  C   UNL     1      31.766 -10.333 -21.569  0.00  0.00    -0.002 C 
ATOM     19  C   UNL     1      31.568 -11.445 -19.017  0.00  0.00    -0.000 C 
ATOM     20  C   UNL     1      31.548  -9.510 -20.464  0.00  0.00    -0.000 C 
ATOM     21  C   UNL     1      31.449 -10.066 -19.189  0.00  0.00    -0.000 C 
ENDBRANCH   4  16
BRANCH   3  22
ATOM     22  C   UNL     1      34.686 -10.948 -24.915  0.00  0.00    +0.013 C 
BRANCH  22  23
ATOM     23  N   UNL     1      34.289 -11.159 -26.299  0.00  0.00    +0.387 N 
ATOM     24  H   UNL     1      33.273 -11.230 -26.353  0.00  0.00    -0.089 HD
ATOM     25  H   UNL     1      34.708 -12.021 -26.645  0.00  0.00    -0.089 HD
ATOM     26  H   UNL     1      34.606 -10.374 -26.867  0.00  0.00    -0.089 HD
ENDBRANCH  22  23
BRANCH  22  27
ATOM     27  C   UNL     1      35.324  -9.611 -24.742  0.00  0.00    -0.011 C 
ATOM     28  C   UNL     1      34.579  -8.390 -25.181  0.00  0.00    -0.002 C 
ATOM     29  C   UNL     1      34.768  -8.671 -23.719  0.00  0.00    -0.002 C 
ENDBRANCH  22  27
ENDBRANCH   3  22
TORSDOF 5
ENDMDL
MODEL 9
REMARK VINA RESULT:      -9.2     12.721     16.159
REMARK  Name = 6102824
REMARK  5 active torsions:
REMARK  status: ('A' for Active; 'I' for Inactive)
REMARK    1  A    between atoms: C_3  and  C_22
REMARK    2  A    between atoms: C_4  and  C_16
REMARK    3  A    between atoms: C_6  and  C_10
REMARK    4  A    between atoms: C_22  and  N_23
REMARK    5  A    between atoms: C_22  and  C_27
REMARK                            x       y       z     vdW  Elec       q    Type
REMARK                         _______ _______ _______ _____ _____    ______ ____
ROOT
ATOM      1  O   UNL     1      32.912  -7.460 -21.125  0.00  0.00    -0.277 OA
ATOM      2  N   UNL     1      33.016  -9.292 -22.539  0.00  0.00    -0.271 N 
ATOM      3  C   UNL     1      32.544  -8.594 -21.435  0.00  0.00    +0.206 C 
ATOM      4  C   UNL     1      34.103  -8.785 -23.382  0.00  0.00    +0.120 C 
ATOM      5  C   UNL     1      32.601 -10.638 -22.934  0.00  0.00    +0.120 C 
ATOM      6  C   UNL     1      33.568 -10.993 -24.025  0.00  0.00    -0.002 C 
ATOM      7  C   UNL     1      34.400  -9.965 -24.260  0.00  0.00    -0.005 C 
ENDROOT
BRANCH   6  10
ATOM      8  F   UNL     1      33.515 -13.449 -22.614  0.00  0.00    -0.204 F 
ATOM      9  F   UNL     1      33.564 -13.677 -28.079  0.00  0.00    -0.204 F 
ATOM     10  C   UNL     1      33.554 -12.305 -24.698  0.00  0.00    +0.027 C 
ATOM     11  C   UNL     1      33.528 -13.492 -23.954  0.00  0.00    +0.140 C 
ATOM     12  C   UNL     1      33.566 -12.379 -26.098  0.00  0.00    +0.032 C 
ATOM     13  C   UNL     1      33.552 -13.617 -26.741  0.00  0.00    +0.140 C 
ATOM     14  C   UNL     1      33.514 -14.730 -24.597  0.00  0.00    +0.032 C 
ATOM     15  C   UNL     1      33.526 -14.792 -25.991  0.00  0.00    +0.032 C 
ENDBRANCH   6  10
BRANCH   4  16
ATOM     16  C   UNL     1      33.733  -7.547 -24.173  0.00  0.00    -0.000 C 
ATOM     17  C   UNL     1      34.696  -6.902 -24.948  0.00  0.00    -0.002 C 
ATOM     18  C   UNL     1      32.429  -7.054 -24.127  0.00  0.00    -0.002 C 
ATOM     19  C   UNL     1      34.356  -5.762 -25.677  0.00  0.00    -0.000 C 
ATOM     20  C   UNL     1      32.090  -5.914 -24.856  0.00  0.00    -0.000 C 
ATOM     21  C   UNL     1      33.052  -5.269 -25.630  0.00  0.00    -0.000 C 
ENDBRANCH   4  16
BRANCH   3  22
ATOM     22  C   UNL     1      31.518  -9.316 -20.599  0.00  0.00    +0.013 C 
BRANCH  22  23
ATOM     23  N   UNL     1      30.682 -10.069 -21.521  0.00  0.00    +0.387 N 
ATOM     24  H   UNL     1      31.056 -11.012 -21.626  0.00  0.00    -0.089 HD
ATOM     25  H   UNL     1      30.674  -9.605 -22.429  0.00  0.00    -0.089 HD
ATOM     26  H   UNL     1      29.731 -10.119 -21.155  0.00  0.00    -0.089 HD
ENDBRANCH  22  23
BRANCH  22  27
ATOM     27  C   UNL     1      32.158 -10.221 -19.600  0.00  0.00    -0.011 C 
ATOM     28  C   UNL     1      31.322 -10.794 -18.500  0.00  0.00    -0.002 C 
ATOM     29  C   UNL     1      31.809 -11.676 -19.613  0.00  0.00    -0.002 C 
ENDBRANCH  22  27
ENDBRANCH   3  22
TORSDOF 5
ENDMDL
