MODEL 1
REMARK VINA RESULT:      -9.2      0.000      0.000
REMARK  Name = 25134253
REMARK  9 active torsions:
REMARK  status: ('A' for Active; 'I' for Inactive)
REMARK    1  A    between atoms: N_1  and  C_17
REMARK    2  A    between atoms: C_2  and  N_9
REMARK    3  A    between atoms: C_10  and  C_12
REMARK    4  A    between atoms: C_12  and  C_13
REMARK    5  A    between atoms: C_13  and  C_14
REMARK    6  A    between atoms: C_14  and  S_15
REMARK    7  A    between atoms: C_17  and  C_19
REMARK    8  A    between atoms: C_20  and  O_25
REMARK    9  A    between atoms: C_22  and  O_27
REMARK                            x       y       z     vdW  Elec       q    Type
REMARK                         _______ _______ _______ _____ _____    ______ ____
ROOT
ATOM      1  N   UNL     1      33.535 -14.363 -22.355  0.00  0.00    +0.390 N 
ATOM      2  C   UNL     1      34.974 -16.758 -21.443  0.00  0.00    +0.067 C 
ATOM      3  C   UNL     1      34.573 -15.625 -20.496  0.00  0.00    -0.003 C 
ATOM      4  C   UNL     1      35.070 -16.233 -22.877  0.00  0.00    -0.003 C 
ATOM      5  C   UNL     1      33.336 -14.869 -20.991  0.00  0.00    -0.075 C 
ATOM      6  C   UNL     1      33.816 -15.457 -23.294  0.00  0.00    -0.075 C 
ATOM      7  H   UNL     1      34.346 -13.743 -22.345  0.00  0.00    -0.079 HD
ENDROOT
BRANCH   2   9
ATOM      8  O   UNL     1      35.543 -19.461 -20.564  0.00  0.00    -0.275 OA
ATOM      9  N   UNL     1      34.048 -17.865 -21.352  0.00  0.00    -0.306 N 
ATOM     10  C   UNL     1      34.414 -19.131 -20.918  0.00  0.00    +0.222 C 
ATOM     11  H   UNL     1      33.111 -17.713 -21.613  0.00  0.00    +0.149 HD
BRANCH  10  12
ATOM     12  C   UNL     1      33.231 -20.086 -20.924  0.00  0.00    +0.086 C 
BRANCH  12  13
ATOM     13  C   UNL     1      33.042 -20.786 -19.577  0.00  0.00    +0.021 C 
BRANCH  13  14
ATOM     14  C   UNL     1      33.838 -22.083 -19.436  0.00  0.00    +0.054 C 
BRANCH  14  15
ATOM     15  S   UNL     1      33.451 -22.999 -17.915  0.00  0.00    -0.168 S 
ATOM     16  H   UNL     1      34.257 -22.568 -16.908  0.00  0.00    +0.102 HD
ENDBRANCH  14  15
ENDBRANCH  13  14
ENDBRANCH  12  13
ENDBRANCH  10  12
ENDBRANCH   2   9
BRANCH   1  17
ATOM     17  C   UNL     1      32.367 -13.599 -22.794  0.00  0.00    -0.047 C 
BRANCH  17  19
ATOM     18 BR   UNL     1      35.395 -10.124 -25.510  0.00  0.00    -0.049 Br
ATOM     19  C   UNL     1      32.709 -12.159 -23.066  0.00  0.00    -0.006 C 
ATOM     20  C   UNL     1      32.038 -11.129 -22.408  0.00  0.00    +0.166 C 
ATOM     21  C   UNL     1      33.710 -11.860 -23.991  0.00  0.00    +0.004 C 
ATOM     22  C   UNL     1      32.367  -9.800 -22.673  0.00  0.00    +0.172 C 
ATOM     23  C   UNL     1      34.039 -10.531 -24.257  0.00  0.00    +0.037 C 
ATOM     24  C   UNL     1      33.367  -9.500 -23.598  0.00  0.00    +0.047 C 
BRANCH  20  25
ATOM     25  O   UNL     1      31.059 -11.417 -21.503  0.00  0.00    -0.469 OA
ATOM     26  C   UNL     1      31.449 -11.515 -20.136  0.00  0.00    +0.253 C 
ENDBRANCH  20  25
BRANCH  22  27
ATOM     27  O   UNL     1      31.718  -8.785 -22.038  0.00  0.00    -0.468 OA
ATOM     28  C   UNL     1      32.458  -8.054 -21.061  0.00  0.00    +0.253 C 
ENDBRANCH  22  27
ENDBRANCH  17  19
ENDBRANCH   1  17
TORSDOF 9
ENDMDL
MODEL 2
REMARK VINA RESULT:      -8.3      1.906      2.479
REMARK  Name = 25134253
REMARK  9 active torsions:
REMARK  status: ('A' for Active; 'I' for Inactive)
REMARK    1  A    between atoms: N_1  and  C_17
REMARK    2  A    between atoms: C_2  and  N_9
REMARK    3  A    between atoms: C_10  and  C_12
REMARK    4  A    between atoms: C_12  and  C_13
REMARK    5  A    between atoms: C_13  and  C_14
REMARK    6  A    between atoms: C_14  and  S_15
REMARK    7  A    between atoms: C_17  and  C_19
REMARK    8  A    between atoms: C_20  and  O_25
REMARK    9  A    between atoms: C_22  and  O_27
REMARK                            x       y       z     vdW  Elec       q    Type
REMARK                         _______ _______ _______ _____ _____    ______ ____
ROOT
ATOM      1  N   UNL     1      33.492 -14.277 -22.596  0.00  0.00    +0.390 N 
ATOM      2  C   UNL     1      34.951 -16.609 -21.563  0.00  0.00    +0.067 C 
ATOM      3  C   UNL     1      34.475 -15.467 -20.662  0.00  0.00    -0.003 C 
ATOM      4  C   UNL     1      35.099 -16.114 -23.003  0.00  0.00    -0.003 C 
ATOM      5  C   UNL     1      33.243 -14.758 -21.231  0.00  0.00    -0.075 C 
ATOM      6  C   UNL     1      33.846 -15.382 -23.495  0.00  0.00    -0.075 C 
ATOM      7  H   UNL     1      34.284 -13.634 -22.562  0.00  0.00    -0.079 HD
ENDROOT
BRANCH   2   9
ATOM      8  O   UNL     1      35.548 -19.271 -20.584  0.00  0.00    -0.275 OA
ATOM      9  N   UNL     1      34.053 -17.739 -21.489  0.00  0.00    -0.306 N 
ATOM     10  C   UNL     1      34.430 -18.984 -21.004  0.00  0.00    +0.222 C 
ATOM     11  H   UNL     1      33.126 -17.621 -21.801  0.00  0.00    +0.149 HD
BRANCH  10  12
ATOM     12  C   UNL     1      33.276 -19.972 -21.043  0.00  0.00    +0.086 C 
BRANCH  12  13
ATOM     13  C   UNL     1      33.069 -20.678 -19.702  0.00  0.00    +0.021 C 
BRANCH  13  14
ATOM     14  C   UNL     1      33.905 -21.946 -19.534  0.00  0.00    +0.054 C 
BRANCH  14  15
ATOM     15  S   UNL     1      33.484 -22.889 -18.039  0.00  0.00    -0.168 S 
ATOM     16  H   UNL     1      34.204 -24.043 -18.012  0.00  0.00    +0.102 HD
ENDBRANCH  14  15
ENDBRANCH  13  14
ENDBRANCH  12  13
ENDBRANCH  10  12
ENDBRANCH   2   9
BRANCH   1  17
ATOM     17  C   UNL     1      32.325 -13.556 -23.106  0.00  0.00    -0.047 C 
BRANCH  17  19
ATOM     18 BR   UNL     1      31.000 -10.446 -18.960  0.00  0.00    -0.049 Br
ATOM     19  C   UNL     1      32.237 -12.163 -22.544  0.00  0.00    -0.006 C 
ATOM     20  C   UNL     1      32.636 -11.061 -23.301  0.00  0.00    +0.166 C 
ATOM     21  C   UNL     1      31.749 -11.980 -21.250  0.00  0.00    +0.004 C 
ATOM     22  C   UNL     1      32.549  -9.777 -22.764  0.00  0.00    +0.172 C 
ATOM     23  C   UNL     1      31.661 -10.696 -20.713  0.00  0.00    +0.037 C 
ATOM     24  C   UNL     1      32.062  -9.594 -21.470  0.00  0.00    +0.047 C 
BRANCH  20  25
ATOM     25  O   UNL     1      33.114 -11.236 -24.566  0.00  0.00    -0.469 OA
ATOM     26  C   UNL     1      34.524 -11.129 -24.746  0.00  0.00    +0.253 C 
ENDBRANCH  20  25
BRANCH  22  27
ATOM     27  O   UNL     1      32.937  -8.693 -23.493  0.00  0.00    -0.468 OA
ATOM     28  C   UNL     1      33.767  -7.735 -22.837  0.00  0.00    +0.253 C 
ENDBRANCH  22  27
ENDBRANCH  17  19
ENDBRANCH   1  17
TORSDOF 9
ENDMDL
MODEL 3
REMARK VINA RESULT:      -8.2      1.972      2.740
REMARK  Name = 25134253
REMARK  9 active torsions:
REMARK  status: ('A' for Active; 'I' for Inactive)
REMARK    1  A    between atoms: N_1  and  C_17
REMARK    2  A    between atoms: C_2  and  N_9
REMARK    3  A    between atoms: C_10  and  C_12
REMARK    4  A    between atoms: C_12  and  C_13
REMARK    5  A    between atoms: C_13  and  C_14
REMARK    6  A    between atoms: C_14  and  S_15
REMARK    7  A    between atoms: C_17  and  C_19
REMARK    8  A    between atoms: C_20  and  O_25
REMARK    9  A    between atoms: C_22  and  O_27
REMARK                            x       y       z     vdW  Elec       q    Type
REMARK                         _______ _______ _______ _____ _____    ______ ____
ROOT
ATOM      1  N   UNL     1      33.524 -14.602 -22.162  0.00  0.00    +0.390 N 
ATOM      2  C   UNL     1      34.909 -16.999 -21.178  0.00  0.00    +0.067 C 
ATOM      3  C   UNL     1      34.572 -15.811 -20.274  0.00  0.00    -0.003 C 
ATOM      4  C   UNL     1      34.981 -16.545 -22.636  0.00  0.00    -0.003 C 
ATOM      5  C   UNL     1      33.347 -15.037 -20.770  0.00  0.00    -0.075 C 
ATOM      6  C   UNL     1      33.743 -15.746 -23.055  0.00  0.00    -0.075 C 
ATOM      7  H   UNL     1      34.354 -14.009 -22.202  0.00  0.00    -0.079 HD
ENDROOT
BRANCH   2   9
ATOM      8  O   UNL     1      35.392 -19.848 -21.411  0.00  0.00    -0.275 OA
ATOM      9  N   UNL     1      33.951 -18.069 -21.010  0.00  0.00    -0.306 N 
ATOM     10  C   UNL     1      34.276 -19.412 -21.143  0.00  0.00    +0.222 C 
ATOM     11  H   UNL     1      33.020 -17.833 -20.793  0.00  0.00    +0.149 HD
BRANCH  10  12
ATOM     12  C   UNL     1      33.068 -20.304 -20.906  0.00  0.00    +0.086 C 
BRANCH  12  13
ATOM     13  C   UNL     1      33.034 -20.874 -19.487  0.00  0.00    +0.021 C 
BRANCH  13  14
ATOM     14  C   UNL     1      33.929 -22.097 -19.290  0.00  0.00    +0.054 C 
BRANCH  14  15
ATOM     15  S   UNL     1      33.487 -23.078 -17.825  0.00  0.00    -0.168 S 
ATOM     16  H   UNL     1      32.425 -23.877 -18.117  0.00  0.00    +0.102 HD
ENDBRANCH  14  15
ENDBRANCH  13  14
ENDBRANCH  12  13
ENDBRANCH  10  12
ENDBRANCH   2   9
BRANCH   1  17
ATOM     17  C   UNL     1      32.369 -13.820 -22.604  0.00  0.00    -0.047 C 
BRANCH  17  19
ATOM     18 BR   UNL     1      32.275  -8.503 -22.018  0.00  0.00    -0.049 Br
ATOM     19  C   UNL     1      32.777 -12.477 -23.149  0.00  0.00    -0.006 C 
ATOM     20  C   UNL     1      33.516 -12.380 -24.328  0.00  0.00    +0.166 C 
ATOM     21  C   UNL     1      32.406 -11.322 -22.461  0.00  0.00    +0.004 C 
ATOM     22  C   UNL     1      33.886 -11.127 -24.818  0.00  0.00    +0.172 C 
ATOM     23  C   UNL     1      32.776 -10.070 -22.950  0.00  0.00    +0.037 C 
ATOM     24  C   UNL     1      33.517  -9.972 -24.129  0.00  0.00    +0.047 C 
BRANCH  20  25
ATOM     25  O   UNL     1      33.880 -13.507 -25.004  0.00  0.00    -0.469 OA
ATOM     26  C   UNL     1      33.060 -13.896 -26.103  0.00  0.00    +0.253 C 
ENDBRANCH  20  25
BRANCH  22  27
ATOM     27  O   UNL     1      34.609 -11.019 -25.967  0.00  0.00    -0.468 OA
ATOM     28  C   UNL     1      35.763 -10.179 -25.930  0.00  0.00    +0.253 C 
ENDBRANCH  22  27
ENDBRANCH  17  19
ENDBRANCH   1  17
TORSDOF 9
ENDMDL
MODEL 4
REMARK VINA RESULT:      -8.1      2.879      4.380
REMARK  Name = 25134253
REMARK  9 active torsions:
REMARK  status: ('A' for Active; 'I' for Inactive)
REMARK    1  A    between atoms: N_1  and  C_17
REMARK    2  A    between atoms: C_2  and  N_9
REMARK    3  A    between atoms: C_10  and  C_12
REMARK    4  A    between atoms: C_12  and  C_13
REMARK    5  A    between atoms: C_13  and  C_14
REMARK    6  A    between atoms: C_14  and  S_15
REMARK    7  A    between atoms: C_17  and  C_19
REMARK    8  A    between atoms: C_20  and  O_25
REMARK    9  A    between atoms: C_22  and  O_27
REMARK                            x       y       z     vdW  Elec       q    Type
REMARK                         _______ _______ _______ _____ _____    ______ ____
ROOT
ATOM      1  N   UNL     1      34.403 -17.232 -21.434  0.00  0.00    +0.390 N 
ATOM      2  C   UNL     1      34.211 -20.164 -21.399  0.00  0.00    +0.067 C 
ATOM      3  C   UNL     1      35.307 -19.417 -22.164  0.00  0.00    -0.003 C 
ATOM      4  C   UNL     1      32.997 -19.255 -21.202  0.00  0.00    -0.003 C 
ATOM      5  C   UNL     1      35.617 -18.052 -21.542  0.00  0.00    -0.075 C 
ATOM      6  C   UNL     1      33.383 -17.895 -20.612  0.00  0.00    -0.075 C 
ATOM      7  H   UNL     1      34.021 -17.112 -22.373  0.00  0.00    -0.079 HD
ENDROOT
BRANCH   2   9
ATOM      8  O   UNL     1      33.160 -22.372 -19.842  0.00  0.00    -0.275 OA
ATOM      9  N   UNL     1      34.705 -20.659 -20.133  0.00  0.00    -0.306 N 
ATOM     10  C   UNL     1      34.133 -21.728 -19.457  0.00  0.00    +0.222 C 
ATOM     11  H   UNL     1      35.485 -20.215 -19.730  0.00  0.00    +0.149 HD
BRANCH  10  12
ATOM     12  C   UNL     1      34.866 -22.024 -18.159  0.00  0.00    +0.086 C 
BRANCH  12  13
ATOM     13  C   UNL     1      36.361 -21.714 -18.252  0.00  0.00    +0.021 C 
BRANCH  13  14
ATOM     14  C   UNL     1      37.096 -21.805 -16.915  0.00  0.00    +0.054 C 
BRANCH  14  15
ATOM     15  S   UNL     1      36.305 -22.942 -15.739  0.00  0.00    -0.168 S 
ATOM     16  H   UNL     1      36.474 -24.223 -16.163  0.00  0.00    +0.102 HD
ENDBRANCH  14  15
ENDBRANCH  13  14
ENDBRANCH  12  13
ENDBRANCH  10  12
ENDBRANCH   2   9
BRANCH   1  17
ATOM     17  C   UNL     1      34.724 -15.913 -20.888  0.00  0.00    -0.047 C 
BRANCH  17  19
ATOM     18 BR   UNL     1      31.222 -11.883 -20.542  0.00  0.00    -0.049 Br
ATOM     19  C   UNL     1      33.981 -14.815 -21.601  0.00  0.00    -0.006 C 
ATOM     20  C   UNL     1      34.160 -14.602 -22.967  0.00  0.00    +0.166 C 
ATOM     21  C   UNL     1      33.105 -14.005 -20.877  0.00  0.00    +0.004 C 
ATOM     22  C   UNL     1      33.464 -13.579 -23.611  0.00  0.00    +0.172 C 
ATOM     23  C   UNL     1      32.409 -12.982 -21.521  0.00  0.00    +0.037 C 
ATOM     24  C   UNL     1      32.589 -12.769 -22.889  0.00  0.00    +0.047 C 
BRANCH  20  25
ATOM     25  O   UNL     1      35.015 -15.392 -23.677  0.00  0.00    -0.469 OA
ATOM     26  C   UNL     1      34.436 -16.282 -24.628  0.00  0.00    +0.253 C 
ENDBRANCH  20  25
BRANCH  22  27
ATOM     27  O   UNL     1      33.632 -13.361 -24.946  0.00  0.00    -0.468 OA
ATOM     28  C   UNL     1      33.876 -12.016 -25.356  0.00  0.00    +0.253 C 
ENDBRANCH  22  27
ENDBRANCH  17  19
ENDBRANCH   1  17
TORSDOF 9
ENDMDL
MODEL 5
REMARK VINA RESULT:      -7.9      2.354      2.672
REMARK  Name = 25134253
REMARK  9 active torsions:
REMARK  status: ('A' for Active; 'I' for Inactive)
REMARK    1  A    between atoms: N_1  and  C_17
REMARK    2  A    between atoms: C_2  and  N_9
REMARK    3  A    between atoms: C_10  and  C_12
REMARK    4  A    between atoms: C_12  and  C_13
REMARK    5  A    between atoms: C_13  and  C_14
REMARK    6  A    between atoms: C_14  and  S_15
REMARK    7  A    between atoms: C_17  and  C_19
REMARK    8  A    between atoms: C_20  and  O_25
REMARK    9  A    between atoms: C_22  and  O_27
REMARK                            x       y       z     vdW  Elec       q    Type
REMARK                         _______ _______ _______ _____ _____    ______ ____
ROOT
ATOM      1  N   UNL     1      32.986 -13.759 -21.978  0.00  0.00    +0.390 N 
ATOM      2  C   UNL     1      34.139 -16.008 -20.479  0.00  0.00    +0.067 C 
ATOM      3  C   UNL     1      32.803 -15.364 -20.103  0.00  0.00    -0.003 C 
ATOM      4  C   UNL     1      34.996 -15.016 -21.267  0.00  0.00    -0.003 C 
ATOM      5  C   UNL     1      32.108 -14.729 -21.311  0.00  0.00    -0.075 C 
ATOM      6  C   UNL     1      34.228 -14.393 -22.438  0.00  0.00    -0.075 C 
ATOM      7  H   UNL     1      33.234 -13.041 -21.297  0.00  0.00    -0.079 HD
ENDROOT
BRANCH   2   9
ATOM      8  O   UNL     1      35.879 -18.326 -20.563  0.00  0.00    -0.275 OA
ATOM      9  N   UNL     1      33.937 -17.231 -21.223  0.00  0.00    -0.306 N 
ATOM     10  C   UNL     1      34.831 -18.293 -21.202  0.00  0.00    +0.222 C 
ATOM     11  H   UNL     1      33.125 -17.315 -21.773  0.00  0.00    +0.149 HD
BRANCH  10  12
ATOM     12  C   UNL     1      34.352 -19.442 -22.075  0.00  0.00    +0.086 C 
BRANCH  12  13
ATOM     13  C   UNL     1      34.816 -19.303 -23.526  0.00  0.00    +0.021 C 
BRANCH  13  14
ATOM     14  C   UNL     1      35.382 -17.925 -23.866  0.00  0.00    +0.054 C 
BRANCH  14  15
ATOM     15  S   UNL     1      34.449 -17.070 -25.170  0.00  0.00    -0.168 S 
ATOM     16  H   UNL     1      35.110 -15.936 -25.531  0.00  0.00    +0.102 HD
ENDBRANCH  14  15
ENDBRANCH  13  14
ENDBRANCH  12  13
ENDBRANCH  10  12
ENDBRANCH   2   9
BRANCH   1  17
ATOM     17  C   UNL     1      32.291 -13.124 -23.097  0.00  0.00    -0.047 C 
BRANCH  17  19
ATOM     18 BR   UNL     1      35.704 -10.024 -25.809  0.00  0.00    -0.049 Br
ATOM     19  C   UNL     1      32.805 -11.734 -23.361  0.00  0.00    -0.006 C 
ATOM     20  C   UNL     1      32.271 -10.635 -22.688  0.00  0.00    +0.166 C 
ATOM     21  C   UNL     1      33.828 -11.552 -24.291  0.00  0.00    +0.004 C 
ATOM     22  C   UNL     1      32.758  -9.354 -22.946  0.00  0.00    +0.172 C 
ATOM     23  C   UNL     1      34.317 -10.271 -24.549  0.00  0.00    +0.037 C 
ATOM     24  C   UNL     1      33.781  -9.172 -23.877  0.00  0.00    +0.047 C 
BRANCH  20  25
ATOM     25  O   UNL     1      31.270 -10.809 -21.778  0.00  0.00    -0.469 OA
ATOM     26  C   UNL     1      31.641 -10.819 -20.402  0.00  0.00    +0.253 C 
ENDBRANCH  20  25
BRANCH  22  27
ATOM     27  O   UNL     1      32.244  -8.273 -22.297  0.00  0.00    -0.468 OA
ATOM     28  C   UNL     1      31.362  -7.431 -23.038  0.00  0.00    +0.253 C 
ENDBRANCH  22  27
ENDBRANCH  17  19
ENDBRANCH   1  17
TORSDOF 9
ENDMDL
MODEL 6
REMARK VINA RESULT:      -7.7      2.525      3.880
REMARK  Name = 25134253
REMARK  9 active torsions:
REMARK  status: ('A' for Active; 'I' for Inactive)
REMARK    1  A    between atoms: N_1  and  C_17
REMARK    2  A    between atoms: C_2  and  N_9
REMARK    3  A    between atoms: C_10  and  C_12
REMARK    4  A    between atoms: C_12  and  C_13
REMARK    5  A    between atoms: C_13  and  C_14
REMARK    6  A    between atoms: C_14  and  S_15
REMARK    7  A    between atoms: C_17  and  C_19
REMARK    8  A    between atoms: C_20  and  O_25
REMARK    9  A    between atoms: C_22  and  O_27
REMARK                            x       y       z     vdW  Elec       q    Type
REMARK                         _______ _______ _______ _____ _____    ______ ____
ROOT
ATOM      1  N   UNL     1      34.660 -17.388 -22.093  0.00  0.00    +0.390 N 
ATOM      2  C   UNL     1      34.623 -20.200 -21.243  0.00  0.00    +0.067 C 
ATOM      3  C   UNL     1      35.363 -19.726 -22.496  0.00  0.00    -0.003 C 
ATOM      4  C   UNL     1      33.506 -19.216 -20.889  0.00  0.00    -0.003 C 
ATOM      5  C   UNL     1      35.802 -18.263 -22.388  0.00  0.00    -0.075 C 
ATOM      6  C   UNL     1      34.007 -17.769 -20.835  0.00  0.00    -0.075 C 
ATOM      7  H   UNL     1      33.979 -17.496 -22.846  0.00  0.00    -0.079 HD
ENDROOT
BRANCH   2   9
ATOM      8  O   UNL     1      34.936 -22.551 -19.575  0.00  0.00    -0.275 OA
ATOM      9  N   UNL     1      35.535 -20.375 -20.134  0.00  0.00    -0.306 N 
ATOM     10  C   UNL     1      35.614 -21.544 -19.389  0.00  0.00    +0.222 C 
ATOM     11  H   UNL     1      36.129 -19.628 -19.895  0.00  0.00    +0.149 HD
BRANCH  10  12
ATOM     12  C   UNL     1      36.664 -21.437 -18.294  0.00  0.00    +0.086 C 
BRANCH  12  13
ATOM     13  C   UNL     1      36.312 -22.279 -17.067  0.00  0.00    +0.021 C 
BRANCH  13  14
ATOM     14  C   UNL     1      37.488 -22.516 -16.121  0.00  0.00    +0.054 C 
BRANCH  14  15
ATOM     15  S   UNL     1      37.005 -23.320 -14.565  0.00  0.00    -0.168 S 
ATOM     16  H   UNL     1      35.915 -24.107 -14.779  0.00  0.00    +0.102 HD
ENDBRANCH  14  15
ENDBRANCH  13  14
ENDBRANCH  12  13
ENDBRANCH  10  12
ENDBRANCH   2   9
BRANCH   1  17
ATOM     17  C   UNL     1      35.086 -15.989 -22.045  0.00  0.00    -0.047 C 
BRANCH  17  19
ATOM     18 BR   UNL     1      33.056 -14.407 -26.735  0.00  0.00    -0.049 Br
ATOM     19  C   UNL     1      34.125 -15.085 -22.770  0.00  0.00    -0.006 C 
ATOM     20  C   UNL     1      33.318 -14.191 -22.068  0.00  0.00    +0.166 C 
ATOM     21  C   UNL     1      34.048 -15.150 -24.161  0.00  0.00    +0.004 C 
ATOM     22  C   UNL     1      32.432 -13.362 -22.755  0.00  0.00    +0.172 C 
ATOM     23  C   UNL     1      33.162 -14.321 -24.850  0.00  0.00    +0.037 C 
ATOM     24  C   UNL     1      32.353 -13.427 -24.146  0.00  0.00    +0.047 C 
BRANCH  20  25
ATOM     25  O   UNL     1      33.390 -14.125 -20.707  0.00  0.00    -0.469 OA
ATOM     26  C   UNL     1      32.452 -14.905 -19.971  0.00  0.00    +0.253 C 
ENDBRANCH  20  25
BRANCH  22  27
ATOM     27  O   UNL     1      31.637 -12.485 -22.080  0.00  0.00    -0.468 OA
ATOM     28  C   UNL     1      31.889 -11.095 -22.282  0.00  0.00    +0.253 C 
ENDBRANCH  22  27
ENDBRANCH  17  19
ENDBRANCH   1  17
TORSDOF 9
ENDMDL
MODEL 7
REMARK VINA RESULT:      -7.6      4.155      6.199
REMARK  Name = 25134253
REMARK  9 active torsions:
REMARK  status: ('A' for Active; 'I' for Inactive)
REMARK    1  A    between atoms: N_1  and  C_17
REMARK    2  A    between atoms: C_2  and  N_9
REMARK    3  A    between atoms: C_10  and  C_12
REMARK    4  A    between atoms: C_12  and  C_13
REMARK    5  A    between atoms: C_13  and  C_14
REMARK    6  A    between atoms: C_14  and  S_15
REMARK    7  A    between atoms: C_17  and  C_19
REMARK    8  A    between atoms: C_20  and  O_25
REMARK    9  A    between atoms: C_22  and  O_27
REMARK                            x       y       z     vdW  Elec       q    Type
REMARK                         _______ _______ _______ _____ _____    ______ ____
ROOT
ATOM      1  N   UNL     1      35.079 -19.331 -20.942  0.00  0.00    +0.390 N 
ATOM      2  C   UNL     1      34.071 -21.940 -20.040  0.00  0.00    +0.067 C 
ATOM      3  C   UNL     1      35.499 -21.739 -20.552  0.00  0.00    -0.003 C 
ATOM      4  C   UNL     1      33.155 -20.850 -20.598  0.00  0.00    -0.003 C 
ATOM      5  C   UNL     1      35.994 -20.306 -20.334  0.00  0.00    -0.075 C 
ATOM      6  C   UNL     1      33.727 -19.445 -20.379  0.00  0.00    -0.075 C 
ATOM      7  H   UNL     1      35.021 -19.536 -21.940  0.00  0.00    -0.079 HD
ENDROOT
BRANCH   2   9
ATOM      8  O   UNL     1      33.601 -24.232 -18.328  0.00  0.00    -0.275 OA
ATOM      9  N   UNL     1      34.034 -21.963 -18.595  0.00  0.00    -0.306 N 
ATOM     10  C   UNL     1      33.800 -23.115 -17.856  0.00  0.00    +0.222 C 
ATOM     11  H   UNL     1      34.182 -21.120 -18.110  0.00  0.00    +0.149 HD
BRANCH  10  12
ATOM     12  C   UNL     1      33.825 -22.835 -16.362  0.00  0.00    +0.086 C 
BRANCH  12  13
ATOM     13  C   UNL     1      35.209 -23.060 -15.751  0.00  0.00    +0.021 C 
BRANCH  13  14
ATOM     14  C   UNL     1      35.413 -24.463 -15.181  0.00  0.00    +0.054 C 
BRANCH  14  15
ATOM     15  S   UNL     1      37.149 -24.830 -14.787  0.00  0.00    -0.168 S 
ATOM     16  H   UNL     1      37.472 -24.267 -13.591  0.00  0.00    +0.102 HD
ENDBRANCH  14  15
ENDBRANCH  13  14
ENDBRANCH  12  13
ENDBRANCH  10  12
ENDBRANCH   2   9
BRANCH   1  17
ATOM     17  C   UNL     1      35.592 -17.972 -20.771  0.00  0.00    -0.047 C 
BRANCH  17  19
ATOM     18 BR   UNL     1      32.478 -13.628 -21.020  0.00  0.00    -0.049 Br
ATOM     19  C   UNL     1      34.862 -16.984 -21.641  0.00  0.00    -0.006 C 
ATOM     20  C   UNL     1      34.902 -17.090 -23.031  0.00  0.00    +0.166 C 
ATOM     21  C   UNL     1      34.139 -15.952 -21.041  0.00  0.00    +0.004 C 
ATOM     22  C   UNL     1      34.221 -16.165 -23.822  0.00  0.00    +0.172 C 
ATOM     23  C   UNL     1      33.458 -15.027 -21.832  0.00  0.00    +0.037 C 
ATOM     24  C   UNL     1      33.499 -15.133 -23.223  0.00  0.00    +0.047 C 
BRANCH  20  25
ATOM     25  O   UNL     1      35.608 -18.097 -23.621  0.00  0.00    -0.469 OA
ATOM     26  C   UNL     1      34.856 -19.170 -24.184  0.00  0.00    +0.253 C 
ENDBRANCH  20  25
BRANCH  22  27
ATOM     27  O   UNL     1      34.254 -16.257 -25.181  0.00  0.00    -0.468 OA
ATOM     28  C   UNL     1      33.405 -15.372 -25.911  0.00  0.00    +0.253 C 
ENDBRANCH  22  27
ENDBRANCH  17  19
ENDBRANCH   1  17
TORSDOF 9
ENDMDL
MODEL 8
REMARK VINA RESULT:      -7.5      6.737     10.974
REMARK  Name = 25134253
REMARK  9 active torsions:
REMARK  status: ('A' for Active; 'I' for Inactive)
REMARK    1  A    between atoms: N_1  and  C_17
REMARK    2  A    between atoms: C_2  and  N_9
REMARK    3  A    between atoms: C_10  and  C_12
REMARK    4  A    between atoms: C_12  and  C_13
REMARK    5  A    between atoms: C_13  and  C_14
REMARK    6  A    between atoms: C_14  and  S_15
REMARK    7  A    between atoms: C_17  and  C_19
REMARK    8  A    between atoms: C_20  and  O_25
REMARK    9  A    between atoms: C_22  and  O_27
REMARK                            x       y       z     vdW  Elec       q    Type
REMARK                         _______ _______ _______ _____ _____    ______ ____
ROOT
ATOM      1  N   UNL     1      34.199 -21.167 -19.461  0.00  0.00    +0.390 N 
ATOM      2  C   UNL     1      34.416 -18.724 -21.079  0.00  0.00    +0.067 C 
ATOM      3  C   UNL     1      35.634 -19.419 -20.468  0.00  0.00    -0.003 C 
ATOM      4  C   UNL     1      33.156 -19.081 -20.289  0.00  0.00    -0.003 C 
ATOM      5  C   UNL     1      35.401 -20.920 -20.267  0.00  0.00    -0.075 C 
ATOM      6  C   UNL     1      33.005 -20.593 -20.094  0.00  0.00    -0.075 C 
ATOM      7  H   UNL     1      34.327 -20.707 -18.558  0.00  0.00    -0.079 HD
ENDROOT
BRANCH   2   9
ATOM      8  O   UNL     1      36.335 -18.283 -23.207  0.00  0.00    -0.275 OA
ATOM      9  N   UNL     1      34.270 -19.063 -22.477  0.00  0.00    -0.306 N 
ATOM     10  C   UNL     1      35.248 -18.812 -23.430  0.00  0.00    +0.222 C 
ATOM     11  H   UNL     1      33.434 -19.493 -22.769  0.00  0.00    +0.149 HD
BRANCH  10  12
ATOM     12  C   UNL     1      34.817 -19.281 -24.810  0.00  0.00    +0.086 C 
BRANCH  12  13
ATOM     13  C   UNL     1      34.048 -18.204 -25.576  0.00  0.00    +0.021 C 
BRANCH  13  14
ATOM     14  C   UNL     1      34.487 -16.778 -25.249  0.00  0.00    +0.054 C 
BRANCH  14  15
ATOM     15  S   UNL     1      33.347 -15.513 -25.884  0.00  0.00    -0.168 S 
ATOM     16  H   UNL     1      32.693 -15.998 -26.974  0.00  0.00    +0.102 HD
ENDBRANCH  14  15
ENDBRANCH  13  14
ENDBRANCH  12  13
ENDBRANCH  10  12
ENDBRANCH   2   9
BRANCH   1  17
ATOM     17  C   UNL     1      34.020 -22.601 -19.234  0.00  0.00    -0.047 C 
BRANCH  17  19
ATOM     18 BR   UNL     1      30.344 -23.624 -15.484  0.00  0.00    -0.049 Br
ATOM     19  C   UNL     1      33.736 -22.909 -17.788  0.00  0.00    -0.006 C 
ATOM     20  C   UNL     1      34.774 -23.014 -16.863  0.00  0.00    +0.166 C 
ATOM     21  C   UNL     1      32.415 -23.091 -17.378  0.00  0.00    +0.004 C 
ATOM     22  C   UNL     1      34.493 -23.302 -15.528  0.00  0.00    +0.172 C 
ATOM     23  C   UNL     1      32.133 -23.378 -16.042  0.00  0.00    +0.037 C 
ATOM     24  C   UNL     1      33.173 -23.484 -15.117  0.00  0.00    +0.047 C 
BRANCH  20  25
ATOM     25  O   UNL     1      36.067 -22.837 -17.261  0.00  0.00    -0.469 OA
ATOM     26  C   UNL     1      36.711 -21.633 -16.852  0.00  0.00    +0.253 C 
ENDBRANCH  20  25
BRANCH  22  27
ATOM     27  O   UNL     1      35.499 -23.408 -14.615  0.00  0.00    -0.468 OA
ATOM     28  C   UNL     1      35.847 -24.724 -14.186  0.00  0.00    +0.253 C 
ENDBRANCH  22  27
ENDBRANCH  17  19
ENDBRANCH   1  17
TORSDOF 9
ENDMDL
MODEL 9
REMARK VINA RESULT:      -7.5      3.218      5.311
REMARK  Name = 25134253
REMARK  9 active torsions:
REMARK  status: ('A' for Active; 'I' for Inactive)
REMARK    1  A    between atoms: N_1  and  C_17
REMARK    2  A    between atoms: C_2  and  N_9
REMARK    3  A    between atoms: C_10  and  C_12
REMARK    4  A    between atoms: C_12  and  C_13
REMARK    5  A    between atoms: C_13  and  C_14
REMARK    6  A    between atoms: C_14  and  S_15
REMARK    7  A    between atoms: C_17  and  C_19
REMARK    8  A    between atoms: C_20  and  O_25
REMARK    9  A    between atoms: C_22  and  O_27
REMARK                            x       y       z     vdW  Elec       q    Type
REMARK                         _______ _______ _______ _____ _____    ______ ____
ROOT
ATOM      1  N   UNL     1      33.483  -9.549 -23.714  0.00  0.00    +0.390 N 
ATOM      2  C   UNL     1      33.030 -12.451 -23.786  0.00  0.00    +0.067 C 
ATOM      3  C   UNL     1      33.855 -11.718 -24.847  0.00  0.00    -0.003 C 
ATOM      4  C   UNL     1      32.058 -11.481 -23.114  0.00  0.00    -0.003 C 
ATOM      5  C   UNL     1      34.494 -10.439 -24.298  0.00  0.00    -0.075 C 
ATOM      6  C   UNL     1      32.757 -10.210 -22.622  0.00  0.00    -0.075 C 
ATOM      7  H   UNL     1      32.808  -9.319 -24.445  0.00  0.00    -0.079 HD
ENDROOT
BRANCH   2   9
ATOM      8  O   UNL     1      32.408 -14.755 -22.139  0.00  0.00    -0.275 OA
ATOM      9  N   UNL     1      33.886 -13.092 -22.812  0.00  0.00    -0.306 N 
ATOM     10  C   UNL     1      33.500 -14.196 -22.066  0.00  0.00    +0.222 C 
ATOM     11  H   UNL     1      34.789 -12.725 -22.670  0.00  0.00    +0.149 HD
BRANCH  10  12
ATOM     12  C   UNL     1      34.607 -14.653 -21.130  0.00  0.00    +0.086 C 
BRANCH  12  13
ATOM     13  C   UNL     1      34.544 -16.153 -20.841  0.00  0.00    +0.021 C 
BRANCH  13  14
ATOM     14  C   UNL     1      35.174 -17.020 -21.931  0.00  0.00    +0.054 C 
BRANCH  14  15
ATOM     15  S   UNL     1      35.604 -18.690 -21.357  0.00  0.00    -0.168 S 
ATOM     16  H   UNL     1      35.623 -18.712 -19.997  0.00  0.00    +0.102 HD
ENDBRANCH  14  15
ENDBRANCH  13  14
ENDBRANCH  12  13
ENDBRANCH  10  12
ENDBRANCH   2   9
BRANCH   1  17
ATOM     17  C   UNL     1      34.101  -8.310 -23.242  0.00  0.00    -0.047 C 
BRANCH  17  19
ATOM     18 BR   UNL     1      34.640  -4.804 -27.247  0.00  0.00    -0.049 Br
ATOM     19  C   UNL     1      33.551  -7.102 -23.952  0.00  0.00    -0.006 C 
ATOM     20  C   UNL     1      32.381  -6.485 -23.508  0.00  0.00    +0.166 C 
ATOM     21  C   UNL     1      34.224  -6.602 -25.066  0.00  0.00    +0.004 C 
ATOM     22  C   UNL     1      31.884  -5.367 -24.178  0.00  0.00    +0.172 C 
ATOM     23  C   UNL     1      33.728  -5.484 -25.737  0.00  0.00    +0.037 C 
ATOM     24  C   UNL     1      32.557  -4.867 -25.293  0.00  0.00    +0.047 C 
BRANCH  20  25
ATOM     25  O   UNL     1      31.720  -6.972 -22.419  0.00  0.00    -0.469 OA
ATOM     26  C   UNL     1      32.051  -6.406 -21.154  0.00  0.00    +0.253 C 
ENDBRANCH  20  25
BRANCH  22  27
ATOM     27  O   UNL     1      30.742  -4.756 -23.756  0.00  0.00    -0.468 OA
ATOM     28  C   UNL     1      30.880  -3.464 -23.166  0.00  0.00    +0.253 C 
ENDBRANCH  22  27
ENDBRANCH  17  19
ENDBRANCH   1  17
TORSDOF 9
ENDMDL
