MODEL 1
REMARK VINA RESULT:     -11.0      0.000      0.000
REMARK  Name = 24778299
REMARK  3 active torsions:
REMARK  status: ('A' for Active; 'I' for Inactive)
REMARK    1  A    between atoms: C_5  and  O_17
REMARK    2  A    between atoms: O_17  and  C_18
REMARK    3  A    between atoms: C_18  and  C_21
REMARK                            x       y       z     vdW  Elec       q    Type
REMARK                         _______ _______ _______ _____ _____    ______ ____
ROOT
ATOM      1  N   UNL     1      35.031 -22.289 -18.653  0.00  0.00    -0.332 NA
ATOM      2  N   UNL     1      32.798 -21.787 -19.406  0.00  0.00    -0.317 NA
ATOM      3  N   UNL     1      32.385 -20.061 -20.919  0.00  0.00    -0.335 N 
ATOM      4  N   UNL     1      33.192 -23.525 -17.885  0.00  0.00    -0.283 N 
ATOM      5  C   UNL     1      35.200 -19.464 -21.006  0.00  0.00    +0.131 C 
ATOM      6  C   UNL     1      34.678 -20.500 -20.211  0.00  0.00    +0.177 C 
ATOM      7  C   UNL     1      35.520 -21.296 -19.417  0.00  0.00    +0.137 C 
ATOM      8  C   UNL     1      36.570 -19.216 -21.014  0.00  0.00    +0.033 C 
ATOM      9  C   UNL     1      33.320 -20.800 -20.158  0.00  0.00    +0.181 C 
ATOM     10  C   UNL     1      36.886 -21.025 -19.444  0.00  0.00    +0.030 C 
ATOM     11  C   UNL     1      37.412 -19.997 -20.230  0.00  0.00    +0.005 C 
ATOM     12  C   UNL     1      33.697 -22.480 -18.688  0.00  0.00    +0.197 C 
ATOM     13  H   UNL     1      31.427 -20.284 -20.873  0.00  0.00    +0.144 HD
ATOM     14  H   UNL     1      32.691 -19.323 -21.495  0.00  0.00    +0.144 HD
ATOM     15  H   UNL     1      33.805 -24.066 -17.338  0.00  0.00    +0.156 HD
ATOM     16  H   UNL     1      32.225 -23.712 -17.871  0.00  0.00    +0.156 HD
ENDROOT
BRANCH   5  17
ATOM     17  O   UNL     1      34.432 -18.660 -21.795  0.00  0.00    -0.478 OA
BRANCH  17  18
ATOM     18  C   UNL     1      35.034 -18.158 -22.986  0.00  0.00    +0.188 C 
ATOM     19  C   UNL     1      34.666 -19.057 -24.162  0.00  0.00    +0.052 C 
BRANCH  18  21
ATOM     20 CL   UNL     1      33.036 -14.538 -26.166  0.00  0.00    -0.082 Cl
ATOM     21  C   UNL     1      34.591 -16.731 -23.204  0.00  0.00    +0.018 C 
ATOM     22  C   UNL     1      34.078 -16.339 -24.440  0.00  0.00    +0.011 C 
ATOM     23  C   UNL     1      34.695 -15.804 -22.167  0.00  0.00    -0.001 C 
ATOM     24  C   UNL     1      33.669 -15.021 -24.640  0.00  0.00    +0.057 C 
ATOM     25  C   UNL     1      34.286 -14.486 -22.367  0.00  0.00    +0.001 C 
ATOM     26  C   UNL     1      33.773 -14.095 -23.604  0.00  0.00    +0.011 C 
ENDBRANCH  18  21
ENDBRANCH  17  18
ENDBRANCH   5  17
TORSDOF 3
ENDMDL
MODEL 2
REMARK VINA RESULT:     -10.7      3.946      7.106
REMARK  Name = 24778299
REMARK  3 active torsions:
REMARK  status: ('A' for Active; 'I' for Inactive)
REMARK    1  A    between atoms: C_5  and  O_17
REMARK    2  A    between atoms: O_17  and  C_18
REMARK    3  A    between atoms: C_18  and  C_21
REMARK                            x       y       z     vdW  Elec       q    Type
REMARK                         _______ _______ _______ _____ _____    ______ ____
ROOT
ATOM      1  N   UNL     1      32.444 -13.625 -23.546  0.00  0.00    -0.332 NA
ATOM      2  N   UNL     1      32.897 -13.765 -21.183  0.00  0.00    -0.317 NA
ATOM      3  N   UNL     1      34.305 -15.406 -20.310  0.00  0.00    -0.335 N 
ATOM      4  N   UNL     1      31.479 -12.108 -22.040  0.00  0.00    -0.283 N 
ATOM      5  C   UNL     1      34.733 -16.447 -22.960  0.00  0.00    +0.131 C 
ATOM      6  C   UNL     1      33.903 -15.339 -22.716  0.00  0.00    +0.177 C 
ATOM      7  C   UNL     1      33.240 -14.686 -23.768  0.00  0.00    +0.137 C 
ATOM      8  C   UNL     1      34.908 -16.912 -24.261  0.00  0.00    +0.033 C 
ATOM      9  C   UNL     1      33.686 -14.824 -21.441  0.00  0.00    +0.181 C 
ATOM     10  C   UNL     1      33.433 -15.173 -25.059  0.00  0.00    +0.030 C 
ATOM     11  C   UNL     1      34.256 -16.274 -25.310  0.00  0.00    +0.005 C 
ATOM     12  C   UNL     1      32.315 -13.223 -22.265  0.00  0.00    +0.197 C 
ATOM     13  H   UNL     1      34.143 -15.033 -19.414  0.00  0.00    +0.144 HD
ATOM     14  H   UNL     1      34.896 -16.185 -20.419  0.00  0.00    +0.144 HD
ATOM     15  H   UNL     1      31.027 -11.670 -22.797  0.00  0.00    +0.156 HD
ATOM     16  H   UNL     1      31.347 -11.768 -21.125  0.00  0.00    +0.156 HD
ENDROOT
BRANCH   5  17
ATOM     17  O   UNL     1      35.399 -17.121 -21.979  0.00  0.00    -0.478 OA
BRANCH  17  18
ATOM     18  C   UNL     1      35.754 -18.474 -22.251  0.00  0.00    +0.188 C 
ATOM     19  C   UNL     1      37.256 -18.655 -22.066  0.00  0.00    +0.052 C 
BRANCH  18  21
ATOM     20 CL   UNL     1      35.689 -22.121 -18.521  0.00  0.00    -0.082 Cl
ATOM     21  C   UNL     1      34.958 -19.387 -21.349  0.00  0.00    +0.018 C 
ATOM     22  C   UNL     1      35.615 -20.234 -20.456  0.00  0.00    +0.011 C 
ATOM     23  C   UNL     1      33.565 -19.384 -21.409  0.00  0.00    -0.001 C 
ATOM     24  C   UNL     1      34.879 -21.076 -19.623  0.00  0.00    +0.057 C 
ATOM     25  C   UNL     1      32.829 -20.226 -20.576  0.00  0.00    +0.001 C 
ATOM     26  C   UNL     1      33.486 -21.073 -19.683  0.00  0.00    +0.011 C 
ENDBRANCH  18  21
ENDBRANCH  17  18
ENDBRANCH   5  17
TORSDOF 3
ENDMDL
MODEL 3
REMARK VINA RESULT:     -10.7      3.902      7.299
REMARK  Name = 24778299
REMARK  3 active torsions:
REMARK  status: ('A' for Active; 'I' for Inactive)
REMARK    1  A    between atoms: C_5  and  O_17
REMARK    2  A    between atoms: O_17  and  C_18
REMARK    3  A    between atoms: C_18  and  C_21
REMARK                            x       y       z     vdW  Elec       q    Type
REMARK                         _______ _______ _______ _____ _____    ______ ____
ROOT
ATOM      1  N   UNL     1      34.271 -15.277 -24.325  0.00  0.00    -0.332 NA
ATOM      2  N   UNL     1      34.462 -14.714 -21.989  0.00  0.00    -0.317 NA
ATOM      3  N   UNL     1      34.763 -16.359 -20.364  0.00  0.00    -0.335 N 
ATOM      4  N   UNL     1      34.161 -13.046 -23.607  0.00  0.00    -0.283 N 
ATOM      5  C   UNL     1      34.722 -18.386 -22.408  0.00  0.00    +0.131 C 
ATOM      6  C   UNL     1      34.580 -17.019 -22.706  0.00  0.00    +0.177 C 
ATOM      7  C   UNL     1      34.409 -16.581 -24.029  0.00  0.00    +0.137 C 
ATOM      8  C   UNL     1      34.697 -19.327 -23.433  0.00  0.00    +0.033 C 
ATOM      9  C   UNL     1      34.597 -16.028 -21.729  0.00  0.00    +0.181 C 
ATOM     10  C   UNL     1      34.386 -17.545 -25.035  0.00  0.00    +0.030 C 
ATOM     11  C   UNL     1      34.527 -18.905 -24.747  0.00  0.00    +0.005 C 
ATOM     12  C   UNL     1      34.305 -14.414 -23.289  0.00  0.00    +0.197 C 
ATOM     13  H   UNL     1      34.774 -15.648 -19.683  0.00  0.00    +0.144 HD
ATOM     14  H   UNL     1      34.868 -17.300 -20.094  0.00  0.00    +0.144 HD
ATOM     15  H   UNL     1      34.042 -12.768 -24.544  0.00  0.00    +0.156 HD
ATOM     16  H   UNL     1      34.178 -12.370 -22.892  0.00  0.00    +0.156 HD
ENDROOT
BRANCH   5  17
ATOM     17  O   UNL     1      34.889 -18.868 -21.144  0.00  0.00    -0.478 OA
BRANCH  17  18
ATOM     18  C   UNL     1      35.803 -19.950 -20.980  0.00  0.00    +0.188 C 
ATOM     19  C   UNL     1      37.192 -19.403 -20.671  0.00  0.00    +0.052 C 
BRANCH  18  21
ATOM     20 CL   UNL     1      36.753 -22.641 -16.613  0.00  0.00    -0.082 Cl
ATOM     21  C   UNL     1      35.299 -20.866 -19.890  0.00  0.00    +0.018 C 
ATOM     22  C   UNL     1      36.159 -21.282 -18.874  0.00  0.00    +0.011 C 
ATOM     23  C   UNL     1      33.973 -21.297 -19.901  0.00  0.00    -0.001 C 
ATOM     24  C   UNL     1      35.692 -22.127 -17.868  0.00  0.00    +0.057 C 
ATOM     25  C   UNL     1      33.506 -22.142 -18.895  0.00  0.00    +0.001 C 
ATOM     26  C   UNL     1      34.366 -22.558 -17.878  0.00  0.00    +0.011 C 
ENDBRANCH  18  21
ENDBRANCH  17  18
ENDBRANCH   5  17
TORSDOF 3
ENDMDL
MODEL 4
REMARK VINA RESULT:     -10.2      2.779      4.876
REMARK  Name = 24778299
REMARK  3 active torsions:
REMARK  status: ('A' for Active; 'I' for Inactive)
REMARK    1  A    between atoms: C_5  and  O_17
REMARK    2  A    between atoms: O_17  and  C_18
REMARK    3  A    between atoms: C_18  and  C_21
REMARK                            x       y       z     vdW  Elec       q    Type
REMARK                         _______ _______ _______ _____ _____    ______ ____
ROOT
ATOM      1  N   UNL     1      35.137 -19.418 -22.646  0.00  0.00    -0.332 NA
ATOM      2  N   UNL     1      35.316 -18.120 -20.624  0.00  0.00    -0.317 NA
ATOM      3  N   UNL     1      34.900 -15.825 -20.613  0.00  0.00    -0.335 N 
ATOM      4  N   UNL     1      35.738 -20.424 -20.614  0.00  0.00    -0.283 N 
ATOM      5  C   UNL     1      34.336 -15.914 -23.434  0.00  0.00    +0.131 C 
ATOM      6  C   UNL     1      34.695 -17.061 -22.706  0.00  0.00    +0.177 C 
ATOM      7  C   UNL     1      34.794 -18.314 -23.333  0.00  0.00    +0.137 C 
ATOM      8  C   UNL     1      34.072 -16.010 -24.798  0.00  0.00    +0.033 C 
ATOM      9  C   UNL     1      34.971 -17.034 -21.342  0.00  0.00    +0.181 C 
ATOM     10  C   UNL     1      34.525 -18.381 -24.699  0.00  0.00    +0.030 C 
ATOM     11  C   UNL     1      34.168 -17.245 -25.429  0.00  0.00    +0.005 C 
ATOM     12  C   UNL     1      35.380 -19.261 -21.329  0.00  0.00    +0.197 C 
ATOM     13  H   UNL     1      35.099 -15.819 -19.649  0.00  0.00    +0.144 HD
ATOM     14  H   UNL     1      34.655 -14.988 -21.069  0.00  0.00    +0.144 HD
ATOM     15  H   UNL     1      35.800 -21.289 -21.080  0.00  0.00    +0.156 HD
ATOM     16  H   UNL     1      35.926 -20.371 -19.649  0.00  0.00    +0.156 HD
ENDROOT
BRANCH   5  17
ATOM     17  O   UNL     1      34.225 -14.673 -22.880  0.00  0.00    -0.478 OA
BRANCH  17  18
ATOM     18  C   UNL     1      32.941 -14.056 -22.927  0.00  0.00    +0.188 C 
ATOM     19  C   UNL     1      32.234 -14.245 -21.590  0.00  0.00    +0.052 C 
BRANCH  18  21
ATOM     20 CL   UNL     1      35.341 -10.386 -25.753  0.00  0.00    -0.082 Cl
ATOM     21  C   UNL     1      33.104 -12.597 -23.280  0.00  0.00    +0.018 C 
ATOM     22  C   UNL     1      34.039 -12.211 -24.242  0.00  0.00    +0.011 C 
ATOM     23  C   UNL     1      32.320 -11.635 -22.645  0.00  0.00    -0.001 C 
ATOM     24  C   UNL     1      34.189 -10.863 -24.567  0.00  0.00    +0.057 C 
ATOM     25  C   UNL     1      32.470 -10.287 -22.971  0.00  0.00    +0.001 C 
ATOM     26  C   UNL     1      33.405  -9.901 -23.932  0.00  0.00    +0.011 C 
ENDBRANCH  18  21
ENDBRANCH  17  18
ENDBRANCH   5  17
TORSDOF 3
ENDMDL
MODEL 5
REMARK VINA RESULT:     -10.0      3.620      5.971
REMARK  Name = 24778299
REMARK  3 active torsions:
REMARK  status: ('A' for Active; 'I' for Inactive)
REMARK    1  A    between atoms: C_5  and  O_17
REMARK    2  A    between atoms: O_17  and  C_18
REMARK    3  A    between atoms: C_18  and  C_21
REMARK                            x       y       z     vdW  Elec       q    Type
REMARK                         _______ _______ _______ _____ _____    ______ ____
ROOT
ATOM      1  N   UNL     1      34.911 -18.313 -22.723  0.00  0.00    -0.332 NA
ATOM      2  N   UNL     1      35.113 -17.017 -20.701  0.00  0.00    -0.317 NA
ATOM      3  N   UNL     1      34.721 -14.719 -20.688  0.00  0.00    -0.335 N 
ATOM      4  N   UNL     1      35.511 -19.326 -20.694  0.00  0.00    -0.283 N 
ATOM      5  C   UNL     1      34.142 -14.801 -23.507  0.00  0.00    +0.131 C 
ATOM      6  C   UNL     1      34.493 -15.952 -22.780  0.00  0.00    +0.177 C 
ATOM      7  C   UNL     1      34.576 -17.206 -23.408  0.00  0.00    +0.137 C 
ATOM      8  C   UNL     1      33.870 -14.894 -24.869  0.00  0.00    +0.033 C 
ATOM      9  C   UNL     1      34.776 -15.928 -21.417  0.00  0.00    +0.181 C 
ATOM     10  C   UNL     1      34.299 -17.269 -24.772  0.00  0.00    +0.030 C 
ATOM     11  C   UNL     1      33.951 -16.130 -25.501  0.00  0.00    +0.005 C 
ATOM     12  C   UNL     1      35.162 -18.159 -21.407  0.00  0.00    +0.197 C 
ATOM     13  H   UNL     1      34.924 -14.715 -19.724  0.00  0.00    +0.144 HD
ATOM     14  H   UNL     1      34.481 -13.879 -21.143  0.00  0.00    +0.144 HD
ATOM     15  H   UNL     1      35.562 -20.191 -21.160  0.00  0.00    +0.156 HD
ATOM     16  H   UNL     1      35.704 -19.275 -19.730  0.00  0.00    +0.156 HD
ENDROOT
BRANCH   5  17
ATOM     17  O   UNL     1      34.047 -13.559 -22.951  0.00  0.00    -0.478 OA
BRANCH  17  18
ATOM     18  C   UNL     1      32.967 -12.737 -23.387  0.00  0.00    +0.188 C 
ATOM     19  C   UNL     1      31.870 -12.731 -22.327  0.00  0.00    +0.052 C 
BRANCH  18  21
ATOM     20 CL   UNL     1      32.624  -7.592 -22.600  0.00  0.00    -0.082 Cl
ATOM     21  C   UNL     1      33.484 -11.348 -23.675  0.00  0.00    +0.018 C 
ATOM     22  C   UNL     1      32.885 -10.241 -23.074  0.00  0.00    +0.011 C 
ATOM     23  C   UNL     1      34.561 -11.173 -24.543  0.00  0.00    -0.001 C 
ATOM     24  C   UNL     1      33.364  -8.958 -23.341  0.00  0.00    +0.057 C 
ATOM     25  C   UNL     1      35.040  -9.890 -24.809  0.00  0.00    +0.001 C 
ATOM     26  C   UNL     1      34.441  -8.783 -24.209  0.00  0.00    +0.011 C 
ENDBRANCH  18  21
ENDBRANCH  17  18
ENDBRANCH   5  17
TORSDOF 3
ENDMDL
MODEL 6
REMARK VINA RESULT:      -9.9      6.478      9.528
REMARK  Name = 24778299
REMARK  3 active torsions:
REMARK  status: ('A' for Active; 'I' for Inactive)
REMARK    1  A    between atoms: C_5  and  O_17
REMARK    2  A    between atoms: O_17  and  C_18
REMARK    3  A    between atoms: C_18  and  C_21
REMARK                            x       y       z     vdW  Elec       q    Type
REMARK                         _______ _______ _______ _____ _____    ______ ____
ROOT
ATOM      1  N   UNL     1      32.416  -8.619 -22.532  0.00  0.00    -0.332 NA
ATOM      2  N   UNL     1      34.151  -8.799 -24.194  0.00  0.00    -0.317 NA
ATOM      3  N   UNL     1      34.907 -10.874 -24.942  0.00  0.00    -0.335 N 
ATOM      4  N   UNL     1      33.406  -6.703 -23.456  0.00  0.00    -0.283 N 
ATOM      5  C   UNL     1      33.047 -12.186 -23.180  0.00  0.00    +0.131 C 
ATOM      6  C   UNL     1      33.145 -10.786 -23.257  0.00  0.00    +0.177 C 
ATOM      7  C   UNL     1      32.329  -9.959 -22.467  0.00  0.00    +0.137 C 
ATOM      8  C   UNL     1      32.130 -12.772 -22.312  0.00  0.00    +0.033 C 
ATOM      9  C   UNL     1      34.040 -10.137 -24.103  0.00  0.00    +0.181 C 
ATOM     10  C   UNL     1      31.421 -10.573 -21.606  0.00  0.00    +0.030 C 
ATOM     11  C   UNL     1      31.318 -11.964 -21.524  0.00  0.00    +0.005 C 
ATOM     12  C   UNL     1      33.322  -8.111 -23.392  0.00  0.00    +0.197 C 
ATOM     13  H   UNL     1      35.535 -10.403 -25.536  0.00  0.00    +0.144 HD
ATOM     14  H   UNL     1      34.884 -11.858 -24.932  0.00  0.00    +0.144 HD
ATOM     15  H   UNL     1      32.822  -6.149 -22.890  0.00  0.00    +0.156 HD
ATOM     16  H   UNL     1      34.049  -6.276 -24.066  0.00  0.00    +0.156 HD
ENDROOT
BRANCH   5  17
ATOM     17  O   UNL     1      33.812 -13.037 -23.920  0.00  0.00    -0.478 OA
BRANCH  17  18
ATOM     18  C   UNL     1      33.133 -14.084 -24.610  0.00  0.00    +0.188 C 
ATOM     19  C   UNL     1      33.117 -13.784 -26.105  0.00  0.00    +0.052 C 
BRANCH  18  21
ATOM     20 CL   UNL     1      35.249 -17.304 -21.093  0.00  0.00    -0.082 Cl
ATOM     21  C   UNL     1      33.806 -15.400 -24.303  0.00  0.00    +0.018 C 
ATOM     22  C   UNL     1      34.174 -15.708 -22.993  0.00  0.00    +0.011 C 
ATOM     23  C   UNL     1      34.061 -16.308 -25.330  0.00  0.00    -0.001 C 
ATOM     24  C   UNL     1      34.795 -16.924 -22.709  0.00  0.00    +0.057 C 
ATOM     25  C   UNL     1      34.683 -17.524 -25.046  0.00  0.00    +0.001 C 
ATOM     26  C   UNL     1      35.050 -17.832 -23.736  0.00  0.00    +0.011 C 
ENDBRANCH  18  21
ENDBRANCH  17  18
ENDBRANCH   5  17
TORSDOF 3
ENDMDL
MODEL 7
REMARK VINA RESULT:      -9.9      8.229     10.222
REMARK  Name = 24778299
REMARK  3 active torsions:
REMARK  status: ('A' for Active; 'I' for Inactive)
REMARK    1  A    between atoms: C_5  and  O_17
REMARK    2  A    between atoms: O_17  and  C_18
REMARK    3  A    between atoms: C_18  and  C_21
REMARK                            x       y       z     vdW  Elec       q    Type
REMARK                         _______ _______ _______ _____ _____    ______ ____
ROOT
ATOM      1  N   UNL     1      39.430 -25.196 -13.158  0.00  0.00    -0.332 NA
ATOM      2  N   UNL     1      38.559 -26.504 -14.986  0.00  0.00    -0.317 NA
ATOM      3  N   UNL     1      36.328 -26.340 -15.643  0.00  0.00    -0.335 N 
ATOM      4  N   UNL     1      40.805 -26.682 -14.342  0.00  0.00    -0.283 N 
ATOM      5  C   UNL     1      35.865 -24.387 -13.579  0.00  0.00    +0.131 C 
ATOM      6  C   UNL     1      37.124 -24.978 -13.781  0.00  0.00    +0.177 C 
ATOM      7  C   UNL     1      38.221 -24.636 -12.974  0.00  0.00    +0.137 C 
ATOM      8  C   UNL     1      35.692 -23.446 -12.568  0.00  0.00    +0.033 C 
ATOM      9  C   UNL     1      37.363 -25.924 -14.774  0.00  0.00    +0.181 C 
ATOM     10  C   UNL     1      38.020 -23.692 -11.969  0.00  0.00    +0.030 C 
ATOM     11  C   UNL     1      36.771 -23.100 -11.762  0.00  0.00    +0.005 C 
ATOM     12  C   UNL     1      39.533 -26.100 -14.154  0.00  0.00    +0.197 C 
ATOM     13  H   UNL     1      36.510 -27.010 -16.341  0.00  0.00    +0.144 HD
ATOM     14  H   UNL     1      35.424 -25.961 -15.549  0.00  0.00    +0.144 HD
ATOM     15  H   UNL     1      41.556 -26.424 -13.761  0.00  0.00    +0.156 HD
ATOM     16  H   UNL     1      40.941 -27.348 -15.055  0.00  0.00    +0.156 HD
ENDROOT
BRANCH   5  17
ATOM     17  O   UNL     1      34.765 -24.680 -14.330  0.00  0.00    -0.478 OA
BRANCH  17  18
ATOM     18  C   UNL     1      34.036 -23.579 -14.868  0.00  0.00    +0.188 C 
ATOM     19  C   UNL     1      34.498 -23.311 -16.296  0.00  0.00    +0.052 C 
BRANCH  18  21
ATOM     20 CL   UNL     1      29.201 -22.639 -16.585  0.00  0.00    -0.082 Cl
ATOM     21  C   UNL     1      32.558 -23.879 -14.797  0.00  0.00    +0.018 C 
ATOM     22  C   UNL     1      31.666 -23.200 -15.627  0.00  0.00    +0.011 C 
ATOM     23  C   UNL     1      32.084 -24.836 -13.900  0.00  0.00    -0.001 C 
ATOM     24  C   UNL     1      30.301 -23.477 -15.561  0.00  0.00    +0.057 C 
ATOM     25  C   UNL     1      30.719 -25.113 -13.834  0.00  0.00    +0.001 C 
ATOM     26  C   UNL     1      29.827 -24.434 -14.664  0.00  0.00    +0.011 C 
ENDBRANCH  18  21
ENDBRANCH  17  18
ENDBRANCH   5  17
TORSDOF 3
ENDMDL
MODEL 8
REMARK VINA RESULT:      -9.8      3.702      5.930
REMARK  Name = 24778299
REMARK  3 active torsions:
REMARK  status: ('A' for Active; 'I' for Inactive)
REMARK    1  A    between atoms: C_5  and  O_17
REMARK    2  A    between atoms: O_17  and  C_18
REMARK    3  A    between atoms: C_18  and  C_21
REMARK                            x       y       z     vdW  Elec       q    Type
REMARK                         _______ _______ _______ _____ _____    ______ ____
ROOT
ATOM      1  N   UNL     1      32.572 -24.583 -13.552  0.00  0.00    -0.332 NA
ATOM      2  N   UNL     1      30.716 -23.857 -14.907  0.00  0.00    -0.317 NA
ATOM      3  N   UNL     1      31.049 -22.796 -16.956  0.00  0.00    -0.335 N 
ATOM      4  N   UNL     1      30.359 -24.923 -12.850  0.00  0.00    -0.283 N 
ATOM      5  C   UNL     1      33.898 -23.013 -16.605  0.00  0.00    +0.131 C 
ATOM      6  C   UNL     1      32.987 -23.498 -15.651  0.00  0.00    +0.177 C 
ATOM      7  C   UNL     1      33.435 -24.117 -14.472  0.00  0.00    +0.137 C 
ATOM      8  C   UNL     1      35.267 -23.143 -16.389  0.00  0.00    +0.033 C 
ATOM      9  C   UNL     1      31.607 -23.400 -15.806  0.00  0.00    +0.181 C 
ATOM     10  C   UNL     1      34.810 -24.233 -14.281  0.00  0.00    +0.030 C 
ATOM     11  C   UNL     1      35.722 -23.753 -15.225  0.00  0.00    +0.005 C 
ATOM     12  C   UNL     1      31.259 -24.428 -13.820  0.00  0.00    +0.197 C 
ATOM     13  H   UNL     1      30.071 -22.733 -17.054  0.00  0.00    +0.144 HD
ATOM     14  H   UNL     1      31.637 -22.437 -17.659  0.00  0.00    +0.144 HD
ATOM     15  H   UNL     1      30.702 -25.351 -12.034  0.00  0.00    +0.156 HD
ATOM     16  H   UNL     1      29.389 -24.838 -12.991  0.00  0.00    +0.156 HD
ENDROOT
BRANCH   5  17
ATOM     17  O   UNL     1      33.521 -22.404 -17.765  0.00  0.00    -0.478 OA
BRANCH  17  18
ATOM     18  C   UNL     1      34.420 -22.501 -18.868  0.00  0.00    +0.188 C 
ATOM     19  C   UNL     1      34.109 -23.759 -19.671  0.00  0.00    +0.052 C 
BRANCH  18  21
ATOM     20 CL   UNL     1      36.784 -18.744 -21.608  0.00  0.00    -0.082 Cl
ATOM     21  C   UNL     1      34.312 -21.251 -19.708  0.00  0.00    +0.018 C 
ATOM     22  C   UNL     1      35.464 -20.646 -20.211  0.00  0.00    +0.011 C 
ATOM     23  C   UNL     1      33.060 -20.702 -19.981  0.00  0.00    -0.001 C 
ATOM     24  C   UNL     1      35.363 -19.492 -20.988  0.00  0.00    +0.057 C 
ATOM     25  C   UNL     1      32.959 -19.548 -20.758  0.00  0.00    +0.001 C 
ATOM     26  C   UNL     1      34.111 -18.942 -21.261  0.00  0.00    +0.011 C 
ENDBRANCH  18  21
ENDBRANCH  17  18
ENDBRANCH   5  17
TORSDOF 3
ENDMDL
MODEL 9
REMARK VINA RESULT:      -9.7      4.239      7.346
REMARK  Name = 24778299
REMARK  3 active torsions:
REMARK  status: ('A' for Active; 'I' for Inactive)
REMARK    1  A    between atoms: C_5  and  O_17
REMARK    2  A    between atoms: O_17  and  C_18
REMARK    3  A    between atoms: C_18  and  C_21
REMARK                            x       y       z     vdW  Elec       q    Type
REMARK                         _______ _______ _______ _____ _____    ______ ____
ROOT
ATOM      1  N   UNL     1      32.736 -13.842 -24.503  0.00  0.00    -0.332 NA
ATOM      2  N   UNL     1      33.911 -15.326 -25.995  0.00  0.00    -0.317 NA
ATOM      3  N   UNL     1      35.124 -17.148 -25.189  0.00  0.00    -0.335 N 
ATOM      4  N   UNL     1      32.697 -13.502 -26.824  0.00  0.00    -0.283 N 
ATOM      5  C   UNL     1      34.393 -16.443 -22.496  0.00  0.00    +0.131 C 
ATOM      6  C   UNL     1      33.964 -15.697 -23.607  0.00  0.00    +0.177 C 
ATOM      7  C   UNL     1      33.151 -14.563 -23.447  0.00  0.00    +0.137 C 
ATOM      8  C   UNL     1      34.011 -16.061 -21.212  0.00  0.00    +0.033 C 
ATOM      9  C   UNL     1      34.309 -16.025 -24.915  0.00  0.00    +0.181 C 
ATOM     10  C   UNL     1      32.785 -14.204 -22.152  0.00  0.00    +0.030 C 
ATOM     11  C   UNL     1      33.207 -14.939 -21.042  0.00  0.00    +0.005 C 
ATOM     12  C   UNL     1      33.139 -14.263 -25.720  0.00  0.00    +0.197 C 
ATOM     13  H   UNL     1      35.361 -17.369 -26.119  0.00  0.00    +0.144 HD
ATOM     14  H   UNL     1      35.455 -17.709 -24.451  0.00  0.00    +0.144 HD
ATOM     15  H   UNL     1      32.129 -12.712 -26.682  0.00  0.00    +0.156 HD
ATOM     16  H   UNL     1      32.959 -13.761 -27.737  0.00  0.00    +0.156 HD
ENDROOT
BRANCH   5  17
ATOM     17  O   UNL     1      35.183 -17.551 -22.590  0.00  0.00    -0.478 OA
BRANCH  17  18
ATOM     18  C   UNL     1      34.533 -18.817 -22.509  0.00  0.00    +0.188 C 
ATOM     19  C   UNL     1      34.680 -19.552 -23.838  0.00  0.00    +0.052 C 
BRANCH  18  21
ATOM     20 CL   UNL     1      33.885 -22.364 -18.740  0.00  0.00    -0.082 Cl
ATOM     21  C   UNL     1      35.117 -19.603 -21.359  0.00  0.00    +0.018 C 
ATOM     22  C   UNL     1      34.324 -20.514 -20.662  0.00  0.00    +0.011 C 
ATOM     23  C   UNL     1      36.449 -19.416 -20.994  0.00  0.00    -0.001 C 
ATOM     24  C   UNL     1      34.864 -21.239 -19.600  0.00  0.00    +0.057 C 
ATOM     25  C   UNL     1      36.989 -20.141 -19.933  0.00  0.00    +0.001 C 
ATOM     26  C   UNL     1      36.196 -21.053 -19.235  0.00  0.00    +0.011 C 
ENDBRANCH  18  21
ENDBRANCH  17  18
ENDBRANCH   5  17
TORSDOF 3
ENDMDL
