MODEL 1
REMARK VINA RESULT:     -12.1      0.000      0.000
REMARK  Name = 11476460
REMARK  8 active torsions:
REMARK  status: ('A' for Active; 'I' for Inactive)
REMARK    1  A    between atoms: C_2  and  N_10
REMARK    2  A    between atoms: C_5  and  C_23
REMARK    3  A    between atoms: C_11  and  C_14
REMARK    4  A    between atoms: C_14  and  O_15
REMARK    5  A    between atoms: O_15  and  P_16
REMARK    6  A    between atoms: P_16  and  O_18
REMARK    7  A    between atoms: P_16  and  O_20
REMARK    8  A    between atoms: C_27  and  C_32
REMARK                            x       y       z     vdW  Elec       q    Type
REMARK                         _______ _______ _______ _____ _____    ______ ____
ROOT
ATOM      1  F   UNL     1      33.308 -22.496 -18.386  0.00  0.00    -0.204 F 
ATOM      2  C   UNL     1      36.073 -23.241 -16.140  0.00  0.00    +0.059 C 
ATOM      3  C   UNL     1      34.798 -23.246 -16.716  0.00  0.00    +0.045 C 
ATOM      4  C   UNL     1      37.083 -22.460 -16.710  0.00  0.00    +0.015 C 
ATOM      5  C   UNL     1      35.549 -21.702 -18.415  0.00  0.00    +0.029 C 
ATOM      6  C   UNL     1      34.537 -22.478 -17.850  0.00  0.00    +0.141 C 
ATOM      7  C   UNL     1      36.822 -21.692 -17.845  0.00  0.00    +0.004 C 
ENDROOT
BRANCH   2  10
ATOM      8  O   UNL     1      36.627 -25.772 -13.582  0.00  0.00    -0.434 OA
ATOM      9  O   UNL     1      36.050 -26.253 -15.722  0.00  0.00    -0.226 OA
ATOM     10  N   UNL     1      36.339 -24.024 -14.982  0.00  0.00    -0.221 N 
ATOM     11  C   UNL     1      37.089 -24.614 -12.873  0.00  0.00    +0.221 C 
ATOM     12  C   UNL     1      36.574 -23.446 -13.686  0.00  0.00    +0.148 C 
ATOM     13  C   UNL     1      36.317 -25.413 -14.874  0.00  0.00    +0.409 C 
BRANCH  11  14
ATOM     14  C   UNL     1      38.609 -24.663 -12.790  0.00  0.00    +0.199 C 
BRANCH  14  15
ATOM     15  O   UNL     1      39.051 -25.906 -13.305  0.00  0.00    -0.269 OA
BRANCH  15  16
ATOM     16  P   UNL     1      40.295 -25.915 -14.341  0.00  0.00    +0.473 P 
ATOM     17  O   UNL     1      41.275 -27.035 -14.146  0.00  0.00    -0.227 OA
BRANCH  16  18
ATOM     18  O   UNL     1      40.912 -24.426 -14.214  0.00  0.00    -0.303 OA
ATOM     19  H   UNL     1      40.551 -23.993 -13.423  0.00  0.00    +0.222 HD
ENDBRANCH  16  18
BRANCH  16  20
ATOM     20  O   UNL     1      39.563 -25.892 -15.784  0.00  0.00    -0.303 OA
ATOM     21  H   UNL     1      38.672 -25.522 -15.688  0.00  0.00    +0.222 HD
ENDBRANCH  16  20
ENDBRANCH  15  16
ENDBRANCH  14  15
ENDBRANCH  11  14
ENDBRANCH   2  10
BRANCH   5  23
ATOM     22  N   UNL     1      36.133 -19.537 -21.393  0.00  0.00    -0.234 NA
ATOM     23  C   UNL     1      35.282 -20.902 -19.592  0.00  0.00    +0.021 C 
ATOM     24  C   UNL     1      33.984 -20.720 -20.052  0.00  0.00    +0.004 C 
ATOM     25  C   UNL     1      36.312 -20.296 -20.289  0.00  0.00    +0.100 C 
ATOM     26  C   UNL     1      33.759 -19.945 -21.185  0.00  0.00    +0.029 C 
ATOM     27  C   UNL     1      34.858 -19.380 -21.813  0.00  0.00    +0.146 C 
BRANCH  27  32
ATOM     28  N   UNL     1      34.497 -17.250 -22.943  0.00  0.00    -0.105 NA
ATOM     29  N   UNL     1      34.396 -17.006 -24.258  0.00  0.00    -0.113 N 
ATOM     30  N   UNL     1      34.695 -19.094 -24.242  0.00  0.00    -0.085 NA
ATOM     31  N   UNL     1      34.508 -18.070 -25.065  0.00  0.00    -0.018 NA
ATOM     32  C   UNL     1      34.684 -18.571 -22.985  0.00  0.00    +0.092 C 
ATOM     33  C   UNL     1      34.180 -15.679 -24.773  0.00  0.00    +0.163 C 
ENDBRANCH  27  32
ENDBRANCH   5  23
TORSDOF 8
ENDMDL
MODEL 2
REMARK VINA RESULT:     -11.3      3.594      5.369
REMARK  Name = 11476460
REMARK  8 active torsions:
REMARK  status: ('A' for Active; 'I' for Inactive)
REMARK    1  A    between atoms: C_2  and  N_10
REMARK    2  A    between atoms: C_5  and  C_23
REMARK    3  A    between atoms: C_11  and  C_14
REMARK    4  A    between atoms: C_14  and  O_15
REMARK    5  A    between atoms: O_15  and  P_16
REMARK    6  A    between atoms: P_16  and  O_18
REMARK    7  A    between atoms: P_16  and  O_20
REMARK    8  A    between atoms: C_27  and  C_32
REMARK                            x       y       z     vdW  Elec       q    Type
REMARK                         _______ _______ _______ _____ _____    ______ ____
ROOT
ATOM      1  F   UNL     1      36.844 -19.148 -21.121  0.00  0.00    -0.204 F 
ATOM      2  C   UNL     1      34.754 -21.335 -19.097  0.00  0.00    +0.059 C 
ATOM      3  C   UNL     1      35.883 -20.696 -19.620  0.00  0.00    +0.045 C 
ATOM      4  C   UNL     1      33.488 -21.013 -19.598  0.00  0.00    +0.015 C 
ATOM      5  C   UNL     1      34.483 -19.431 -21.128  0.00  0.00    +0.029 C 
ATOM      6  C   UNL     1      35.748 -19.747 -20.633  0.00  0.00    +0.141 C 
ATOM      7  C   UNL     1      33.353 -20.064 -20.611  0.00  0.00    +0.004 C 
ENDROOT
BRANCH   2  10
ATOM      8  O   UNL     1      35.721 -23.546 -16.371  0.00  0.00    -0.434 OA
ATOM      9  O   UNL     1      37.066 -21.924 -17.212  0.00  0.00    -0.226 OA
ATOM     10  N   UNL     1      34.891 -22.304 -18.064  0.00  0.00    -0.221 N 
ATOM     11  C   UNL     1      34.334 -23.894 -16.477  0.00  0.00    +0.221 C 
ATOM     12  C   UNL     1      33.903 -23.316 -17.808  0.00  0.00    +0.148 C 
ATOM     13  C   UNL     1      35.990 -22.505 -17.232  0.00  0.00    +0.409 C 
BRANCH  11  14
ATOM     14  C   UNL     1      33.586 -23.295 -15.293  0.00  0.00    +0.199 C 
BRANCH  14  15
ATOM     15  O   UNL     1      32.565 -24.194 -14.900  0.00  0.00    -0.269 OA
BRANCH  15  16
ATOM     16  P   UNL     1      31.447 -23.682 -13.846  0.00  0.00    +0.473 P 
ATOM     17  O   UNL     1      30.306 -22.919 -14.453  0.00  0.00    -0.227 OA
BRANCH  16  18
ATOM     18  O   UNL     1      32.305 -22.877 -12.738  0.00  0.00    -0.303 OA
ATOM     19  H   UNL     1      32.589 -23.490 -12.040  0.00  0.00    +0.222 HD
ENDBRANCH  16  18
BRANCH  16  20
ATOM     20  O   UNL     1      31.028 -25.041 -13.076  0.00  0.00    -0.303 OA
ATOM     21  H   UNL     1      31.648 -25.204 -12.348  0.00  0.00    +0.222 HD
ENDBRANCH  16  20
ENDBRANCH  15  16
ENDBRANCH  14  15
ENDBRANCH  11  14
ENDBRANCH   2  10
BRANCH   5  23
ATOM     22  N   UNL     1      33.854 -16.170 -22.820  0.00  0.00    -0.234 NA
ATOM     23  C   UNL     1      34.339 -18.447 -22.180  0.00  0.00    +0.021 C 
ATOM     24  C   UNL     1      34.526 -18.793 -23.512  0.00  0.00    +0.004 C 
ATOM     25  C   UNL     1      34.007 -17.136 -21.888  0.00  0.00    +0.100 C 
ATOM     26  C   UNL     1      34.379 -17.827 -24.500  0.00  0.00    +0.029 C 
ATOM     27  C   UNL     1      34.045 -16.541 -24.106  0.00  0.00    +0.146 C 
BRANCH  27  32
ATOM     28  N   UNL     1      33.840 -14.205 -24.778  0.00  0.00    -0.105 NA
ATOM     29  N   UNL     1      33.674 -13.700 -26.008  0.00  0.00    -0.113 N 
ATOM     30  N   UNL     1      33.744 -15.769 -26.413  0.00  0.00    -0.085 NA
ATOM     31  N   UNL     1      33.611 -14.590 -27.008  0.00  0.00    -0.018 NA
ATOM     32  C   UNL     1      33.878 -15.504 -25.084  0.00  0.00    +0.092 C 
ATOM     33  C   UNL     1      33.568 -12.284 -26.244  0.00  0.00    +0.163 C 
ENDBRANCH  27  32
ENDBRANCH   5  23
TORSDOF 8
ENDMDL
MODEL 3
REMARK VINA RESULT:     -11.1      2.112      2.921
REMARK  Name = 11476460
REMARK  8 active torsions:
REMARK  status: ('A' for Active; 'I' for Inactive)
REMARK    1  A    between atoms: C_2  and  N_10
REMARK    2  A    between atoms: C_5  and  C_23
REMARK    3  A    between atoms: C_11  and  C_14
REMARK    4  A    between atoms: C_14  and  O_15
REMARK    5  A    between atoms: O_15  and  P_16
REMARK    6  A    between atoms: P_16  and  O_18
REMARK    7  A    between atoms: P_16  and  O_20
REMARK    8  A    between atoms: C_27  and  C_32
REMARK                            x       y       z     vdW  Elec       q    Type
REMARK                         _______ _______ _______ _____ _____    ______ ____
ROOT
ATOM      1  F   UNL     1      33.096 -21.627 -19.666  0.00  0.00    -0.204 F 
ATOM      2  C   UNL     1      35.655 -22.603 -17.270  0.00  0.00    +0.059 C 
ATOM      3  C   UNL     1      34.432 -22.535 -17.944  0.00  0.00    +0.045 C 
ATOM      4  C   UNL     1      36.724 -21.808 -17.698  0.00  0.00    +0.015 C 
ATOM      5  C   UNL     1      35.347 -20.888 -19.457  0.00  0.00    +0.029 C 
ATOM      6  C   UNL     1      34.278 -21.679 -19.035  0.00  0.00    +0.141 C 
ATOM      7  C   UNL     1      36.569 -20.952 -18.788  0.00  0.00    +0.004 C 
ENDROOT
BRANCH   2  10
ATOM      8  O   UNL     1      36.693 -24.600 -14.407  0.00  0.00    -0.434 OA
ATOM      9  O   UNL     1      38.060 -23.149 -15.490  0.00  0.00    -0.226 OA
ATOM     10  N   UNL     1      35.813 -23.476 -16.157  0.00  0.00    -0.221 N 
ATOM     11  C   UNL     1      35.285 -24.872 -14.387  0.00  0.00    +0.221 C 
ATOM     12  C   UNL     1      34.793 -24.399 -15.739  0.00  0.00    +0.148 C 
ATOM     13  C   UNL     1      36.956 -23.663 -15.382  0.00  0.00    +0.409 C 
BRANCH  11  14
ATOM     14  C   UNL     1      34.655 -24.119 -13.223  0.00  0.00    +0.199 C 
BRANCH  14  15
ATOM     15  O   UNL     1      34.986 -24.788 -12.019  0.00  0.00    -0.269 OA
BRANCH  15  16
ATOM     16  P   UNL     1      36.243 -24.246 -11.154  0.00  0.00    +0.473 P 
ATOM     17  O   UNL     1      36.019 -24.198  -9.671  0.00  0.00    -0.227 OA
BRANCH  16  18
ATOM     18  O   UNL     1      36.602 -22.828 -11.845  0.00  0.00    -0.303 OA
ATOM     19  H   UNL     1      35.782 -22.379 -12.106  0.00  0.00    +0.222 HD
ENDBRANCH  16  18
BRANCH  16  20
ATOM     20  O   UNL     1      37.453 -25.208 -11.632  0.00  0.00    -0.303 OA
ATOM     21  H   UNL     1      37.094 -26.068 -11.901  0.00  0.00    +0.222 HD
ENDBRANCH  16  20
ENDBRANCH  15  16
ENDBRANCH  14  15
ENDBRANCH  11  14
ENDBRANCH   2  10
BRANCH   5  23
ATOM     22  N   UNL     1      33.758 -19.056 -22.288  0.00  0.00    -0.234 NA
ATOM     23  C   UNL     1      35.191 -19.997 -20.587  0.00  0.00    +0.021 C 
ATOM     24  C   UNL     1      36.263 -19.252 -21.062  0.00  0.00    +0.004 C 
ATOM     25  C   UNL     1      33.972 -19.866 -21.227  0.00  0.00    +0.100 C 
ATOM     26  C   UNL     1      36.083 -18.407 -22.151  0.00  0.00    +0.029 C 
ATOM     27  C   UNL     1      34.823 -18.345 -22.723  0.00  0.00    +0.146 C 
BRANCH  27  32
ATOM     28  N   UNL     1      33.988 -16.298 -23.754  0.00  0.00    -0.105 NA
ATOM     29  N   UNL     1      34.012 -15.942 -25.046  0.00  0.00    -0.113 N 
ATOM     30  N   UNL     1      34.940 -17.835 -25.118  0.00  0.00    -0.085 NA
ATOM     31  N   UNL     1      34.567 -16.822 -25.891  0.00  0.00    -0.018 NA
ATOM     32  C   UNL     1      34.581 -17.490 -23.850  0.00  0.00    +0.092 C 
ATOM     33  C   UNL     1      33.473 -14.687 -25.502  0.00  0.00    +0.163 C 
ENDBRANCH  27  32
ENDBRANCH   5  23
TORSDOF 8
ENDMDL
MODEL 4
REMARK VINA RESULT:     -11.1      7.166     11.189
REMARK  Name = 11476460
REMARK  8 active torsions:
REMARK  status: ('A' for Active; 'I' for Inactive)
REMARK    1  A    between atoms: C_2  and  N_10
REMARK    2  A    between atoms: C_5  and  C_23
REMARK    3  A    between atoms: C_11  and  C_14
REMARK    4  A    between atoms: C_14  and  O_15
REMARK    5  A    between atoms: O_15  and  P_16
REMARK    6  A    between atoms: P_16  and  O_18
REMARK    7  A    between atoms: P_16  and  O_20
REMARK    8  A    between atoms: C_27  and  C_32
REMARK                            x       y       z     vdW  Elec       q    Type
REMARK                         _______ _______ _______ _____ _____    ______ ____
ROOT
ATOM      1  F   UNL     1      33.173 -20.929 -19.838  0.00  0.00    -0.204 F 
ATOM      2  C   UNL     1      35.236 -19.008 -22.139  0.00  0.00    +0.059 C 
ATOM      3  C   UNL     1      34.115 -19.586 -21.536  0.00  0.00    +0.045 C 
ATOM      4  C   UNL     1      36.505 -19.233 -21.595  0.00  0.00    +0.015 C 
ATOM      5  C   UNL     1      35.528 -20.603 -19.861  0.00  0.00    +0.029 C 
ATOM      6  C   UNL     1      34.261 -20.382 -20.400  0.00  0.00    +0.141 C 
ATOM      7  C   UNL     1      36.650 -20.029 -20.459  0.00  0.00    +0.004 C 
ENDROOT
BRANCH   2  10
ATOM      8  O   UNL     1      34.674 -17.507 -25.409  0.00  0.00    -0.434 OA
ATOM      9  O   UNL     1      34.377 -19.713 -24.970  0.00  0.00    -0.226 OA
ATOM     10  N   UNL     1      35.088 -18.196 -23.299  0.00  0.00    -0.221 N 
ATOM     11  C   UNL     1      34.863 -16.317 -24.632  0.00  0.00    +0.221 C 
ATOM     12  C   UNL     1      35.466 -16.809 -23.333  0.00  0.00    +0.148 C 
ATOM     13  C   UNL     1      34.677 -18.598 -24.568  0.00  0.00    +0.409 C 
BRANCH  11  14
ATOM     14  C   UNL     1      33.516 -15.632 -24.446  0.00  0.00    +0.199 C 
BRANCH  14  15
ATOM     15  O   UNL     1      33.671 -14.248 -24.708  0.00  0.00    -0.269 OA
BRANCH  15  16
ATOM     16  P   UNL     1      33.497 -13.206 -23.481  0.00  0.00    +0.473 P 
ATOM     17  O   UNL     1      32.092 -13.042 -22.982  0.00  0.00    -0.227 OA
BRANCH  16  18
ATOM     18  O   UNL     1      34.201 -11.854 -24.024  0.00  0.00    -0.303 OA
ATOM     19  H   UNL     1      34.754 -11.474 -23.323  0.00  0.00    +0.222 HD
ENDBRANCH  16  18
BRANCH  16  20
ATOM     20  O   UNL     1      34.552 -13.758 -22.385  0.00  0.00    -0.303 OA
ATOM     21  H   UNL     1      35.453 -13.663 -22.729  0.00  0.00    +0.222 HD
ENDBRANCH  16  20
ENDBRANCH  15  16
ENDBRANCH  14  15
ENDBRANCH  11  14
ENDBRANCH   2  10
BRANCH   5  23
ATOM     22  N   UNL     1      34.804 -23.161 -17.248  0.00  0.00    -0.234 NA
ATOM     23  C   UNL     1      35.684 -21.430 -18.683  0.00  0.00    +0.021 C 
ATOM     24  C   UNL     1      36.803 -21.308 -17.869  0.00  0.00    +0.004 C 
ATOM     25  C   UNL     1      34.722 -22.361 -18.334  0.00  0.00    +0.100 C 
ATOM     26  C   UNL     1      36.924 -22.115 -16.743  0.00  0.00    +0.029 C 
ATOM     27  C   UNL     1      35.906 -23.017 -16.479  0.00  0.00    +0.146 C 
BRANCH  27  32
ATOM     28  N   UNL     1      36.784 -24.934 -15.254  0.00  0.00    -0.105 NA
ATOM     29  N   UNL     1      36.466 -25.357 -14.022  0.00  0.00    -0.113 N 
ATOM     30  N   UNL     1      35.221 -23.666 -14.217  0.00  0.00    -0.085 NA
ATOM     31  N   UNL     1      35.544 -24.636 -13.370  0.00  0.00    -0.018 NA
ATOM     32  C   UNL     1      35.978 -23.873 -15.329  0.00  0.00    +0.092 C 
ATOM     33  C   UNL     1      37.078 -26.520 -13.432  0.00  0.00    +0.163 C 
ENDBRANCH  27  32
ENDBRANCH   5  23
TORSDOF 8
ENDMDL
MODEL 5
REMARK VINA RESULT:     -10.8      7.553     11.470
REMARK  Name = 11476460
REMARK  8 active torsions:
REMARK  status: ('A' for Active; 'I' for Inactive)
REMARK    1  A    between atoms: C_2  and  N_10
REMARK    2  A    between atoms: C_5  and  C_23
REMARK    3  A    between atoms: C_11  and  C_14
REMARK    4  A    between atoms: C_14  and  O_15
REMARK    5  A    between atoms: O_15  and  P_16
REMARK    6  A    between atoms: P_16  and  O_18
REMARK    7  A    between atoms: P_16  and  O_20
REMARK    8  A    between atoms: C_27  and  C_32
REMARK                            x       y       z     vdW  Elec       q    Type
REMARK                         _______ _______ _______ _____ _____    ______ ____
ROOT
ATOM      1  F   UNL     1      32.885 -20.888 -20.005  0.00  0.00    -0.204 F 
ATOM      2  C   UNL     1      35.101 -18.884 -22.083  0.00  0.00    +0.059 C 
ATOM      3  C   UNL     1      33.940 -19.474 -21.574  0.00  0.00    +0.045 C 
ATOM      4  C   UNL     1      36.334 -19.162 -21.484  0.00  0.00    +0.015 C 
ATOM      5  C   UNL     1      35.243 -20.605 -19.883  0.00  0.00    +0.029 C 
ATOM      6  C   UNL     1      34.010 -20.333 -20.477  0.00  0.00    +0.141 C 
ATOM      7  C   UNL     1      36.405 -20.020 -20.387  0.00  0.00    +0.004 C 
ENDROOT
BRANCH   2  10
ATOM      8  O   UNL     1      34.765 -17.205 -25.296  0.00  0.00    -0.434 OA
ATOM      9  O   UNL     1      34.468 -19.435 -25.007  0.00  0.00    -0.226 OA
ATOM     10  N   UNL     1      35.029 -18.009 -23.203  0.00  0.00    -0.221 N 
ATOM     11  C   UNL     1      34.878 -16.059 -24.441  0.00  0.00    +0.221 C 
ATOM     12  C   UNL     1      35.388 -16.618 -23.130  0.00  0.00    +0.148 C 
ATOM     13  C   UNL     1      34.721 -18.341 -24.520  0.00  0.00    +0.409 C 
BRANCH  11  14
ATOM     14  C   UNL     1      33.511 -15.399 -24.319  0.00  0.00    +0.199 C 
BRANCH  14  15
ATOM     15  O   UNL     1      33.492 -14.242 -25.135  0.00  0.00    -0.269 OA
BRANCH  15  16
ATOM     16  P   UNL     1      33.047 -14.396 -26.685  0.00  0.00    +0.473 P 
ATOM     17  O   UNL     1      34.068 -13.942 -27.686  0.00  0.00    -0.227 OA
BRANCH  16  18
ATOM     18  O   UNL     1      31.624 -13.631 -26.753  0.00  0.00    -0.303 OA
ATOM     19  H   UNL     1      31.384 -13.315 -25.868  0.00  0.00    +0.222 HD
ENDBRANCH  16  18
BRANCH  16  20
ATOM     20  O   UNL     1      32.635 -15.957 -26.789  0.00  0.00    -0.303 OA
ATOM     21  H   UNL     1      32.126 -16.103 -27.602  0.00  0.00    +0.222 HD
ENDBRANCH  16  20
ENDBRANCH  15  16
ENDBRANCH  14  15
ENDBRANCH  11  14
ENDBRANCH   2  10
BRANCH   5  23
ATOM     22  N   UNL     1      36.638 -22.444 -16.956  0.00  0.00    -0.234 NA
ATOM     23  C   UNL     1      35.322 -21.496 -18.745  0.00  0.00    +0.021 C 
ATOM     24  C   UNL     1      34.221 -22.243 -18.346  0.00  0.00    +0.004 C 
ATOM     25  C   UNL     1      36.496 -21.630 -18.026  0.00  0.00    +0.100 C 
ATOM     26  C   UNL     1      34.328 -23.092 -17.250  0.00  0.00    +0.029 C 
ATOM     27  C   UNL     1      35.547 -23.156 -16.595  0.00  0.00    +0.146 C 
BRANCH  27  32
ATOM     28  N   UNL     1      36.709 -24.898 -15.346  0.00  0.00    -0.105 NA
ATOM     29  N   UNL     1      36.403 -25.414 -14.147  0.00  0.00    -0.113 N 
ATOM     30  N   UNL     1      34.860 -23.998 -14.398  0.00  0.00    -0.085 NA
ATOM     31  N   UNL     1      35.315 -24.911 -13.548  0.00  0.00    -0.018 NA
ATOM     32  C   UNL     1      35.714 -24.016 -15.459  0.00  0.00    +0.092 C 
ATOM     33  C   UNL     1      37.196 -26.449 -13.537  0.00  0.00    +0.163 C 
ENDBRANCH  27  32
ENDBRANCH   5  23
TORSDOF 8
ENDMDL
MODEL 6
REMARK VINA RESULT:     -10.6      1.620      2.134
REMARK  Name = 11476460
REMARK  8 active torsions:
REMARK  status: ('A' for Active; 'I' for Inactive)
REMARK    1  A    between atoms: C_2  and  N_10
REMARK    2  A    between atoms: C_5  and  C_23
REMARK    3  A    between atoms: C_11  and  C_14
REMARK    4  A    between atoms: C_14  and  O_15
REMARK    5  A    between atoms: O_15  and  P_16
REMARK    6  A    between atoms: P_16  and  O_18
REMARK    7  A    between atoms: P_16  and  O_20
REMARK    8  A    between atoms: C_27  and  C_32
REMARK                            x       y       z     vdW  Elec       q    Type
REMARK                         _______ _______ _______ _____ _____    ______ ____
ROOT
ATOM      1  F   UNL     1      36.970 -21.028 -18.217  0.00  0.00    -0.204 F 
ATOM      2  C   UNL     1      34.942 -23.310 -16.236  0.00  0.00    +0.059 C 
ATOM      3  C   UNL     1      36.022 -22.531 -16.662  0.00  0.00    +0.045 C 
ATOM      4  C   UNL     1      33.760 -23.317 -16.984  0.00  0.00    +0.015 C 
ATOM      5  C   UNL     1      34.741 -21.777 -18.567  0.00  0.00    +0.029 C 
ATOM      6  C   UNL     1      35.922 -21.767 -17.825  0.00  0.00    +0.141 C 
ATOM      7  C   UNL     1      33.660 -22.553 -18.147  0.00  0.00    +0.004 C 
ENDROOT
BRANCH   2  10
ATOM      8  O   UNL     1      35.680 -25.644 -13.541  0.00  0.00    -0.434 OA
ATOM      9  O   UNL     1      36.730 -25.673 -15.552  0.00  0.00    -0.226 OA
ATOM     10  N   UNL     1      35.043 -24.090 -15.050  0.00  0.00    -0.221 N 
ATOM     11  C   UNL     1      34.820 -24.737 -12.839  0.00  0.00    +0.221 C 
ATOM     12  C   UNL     1      34.153 -23.930 -13.933  0.00  0.00    +0.148 C 
ATOM     13  C   UNL     1      35.903 -25.160 -14.811  0.00  0.00    +0.409 C 
BRANCH  11  14
ATOM     14  C   UNL     1      35.664 -23.887 -11.898  0.00  0.00    +0.199 C 
BRANCH  14  15
ATOM     15  O   UNL     1      36.896 -24.549 -11.673  0.00  0.00    -0.269 OA
BRANCH  15  16
ATOM     16  P   UNL     1      38.235 -23.941 -12.352  0.00  0.00    +0.473 P 
ATOM     17  O   UNL     1      39.185 -23.278 -11.397  0.00  0.00    -0.227 OA
BRANCH  16  18
ATOM     18  O   UNL     1      37.670 -22.995 -13.535  0.00  0.00    -0.303 OA
ATOM     19  H   UNL     1      36.812 -22.624 -13.271  0.00  0.00    +0.222 HD
ENDBRANCH  16  18
BRANCH  16  20
ATOM     20  O   UNL     1      38.843 -25.210 -13.150  0.00  0.00    -0.303 OA
ATOM     21  H   UNL     1      38.873 -25.010 -14.099  0.00  0.00    +0.222 HD
ENDBRANCH  16  20
ENDBRANCH  15  16
ENDBRANCH  14  15
ENDBRANCH  11  14
ENDBRANCH   2  10
BRANCH   5  23
ATOM     22  N   UNL     1      35.722 -19.948 -21.663  0.00  0.00    -0.234 NA
ATOM     23  C   UNL     1      34.633 -20.987 -19.775  0.00  0.00    +0.021 C 
ATOM     24  C   UNL     1      33.403 -20.511 -20.209  0.00  0.00    +0.004 C 
ATOM     25  C   UNL     1      35.752 -20.682 -20.529  0.00  0.00    +0.100 C 
ATOM     26  C   UNL     1      33.330 -19.753 -21.373  0.00  0.00    +0.029 C 
ATOM     27  C   UNL     1      34.509 -19.502 -22.057  0.00  0.00    +0.146 C 
BRANCH  27  32
ATOM     28  N   UNL     1      34.359 -17.396 -23.278  0.00  0.00    -0.105 NA
ATOM     29  N   UNL     1      34.408 -17.191 -24.602  0.00  0.00    -0.113 N 
ATOM     30  N   UNL     1      34.616 -19.287 -24.497  0.00  0.00    -0.085 NA
ATOM     31  N   UNL     1      34.559 -18.284 -25.363  0.00  0.00    -0.018 NA
ATOM     32  C   UNL     1      34.494 -18.724 -23.263  0.00  0.00    +0.092 C 
ATOM     33  C   UNL     1      34.303 -15.874 -25.175  0.00  0.00    +0.163 C 
ENDBRANCH  27  32
ENDBRANCH   5  23
TORSDOF 8
ENDMDL
MODEL 7
REMARK VINA RESULT:     -10.3      9.764     13.303
REMARK  Name = 11476460
REMARK  8 active torsions:
REMARK  status: ('A' for Active; 'I' for Inactive)
REMARK    1  A    between atoms: C_2  and  N_10
REMARK    2  A    between atoms: C_5  and  C_23
REMARK    3  A    between atoms: C_11  and  C_14
REMARK    4  A    between atoms: C_14  and  O_15
REMARK    5  A    between atoms: O_15  and  P_16
REMARK    6  A    between atoms: P_16  and  O_18
REMARK    7  A    between atoms: P_16  and  O_20
REMARK    8  A    between atoms: C_27  and  C_32
REMARK                            x       y       z     vdW  Elec       q    Type
REMARK                         _______ _______ _______ _____ _____    ______ ____
ROOT
ATOM      1  F   UNL     1      33.942  -9.865 -24.455  0.00  0.00    -0.204 F 
ATOM      2  C   UNL     1      32.756 -12.798 -22.656  0.00  0.00    +0.059 C 
ATOM      3  C   UNL     1      33.505 -11.986 -23.513  0.00  0.00    +0.045 C 
ATOM      4  C   UNL     1      31.711 -12.239 -21.914  0.00  0.00    +0.015 C 
ATOM      5  C   UNL     1      32.168 -10.074 -22.885  0.00  0.00    +0.029 C 
ATOM      6  C   UNL     1      33.212 -10.627 -23.627  0.00  0.00    +0.141 C 
ATOM      7  C   UNL     1      31.418 -10.880 -22.029  0.00  0.00    +0.004 C 
ENDROOT
BRANCH   2  10
ATOM      8  O   UNL     1      33.648 -16.309 -23.022  0.00  0.00    -0.434 OA
ATOM      9  O   UNL     1      33.656 -14.826 -24.738  0.00  0.00    -0.226 OA
ATOM     10  N   UNL     1      33.055 -14.185 -22.540  0.00  0.00    -0.221 N 
ATOM     11  C   UNL     1      33.567 -16.234 -21.592  0.00  0.00    +0.221 C 
ATOM     12  C   UNL     1      32.850 -14.928 -21.326  0.00  0.00    +0.148 C 
ATOM     13  C   UNL     1      33.474 -15.049 -23.549  0.00  0.00    +0.409 C 
BRANCH  11  14
ATOM     14  C   UNL     1      34.977 -16.271 -21.018  0.00  0.00    +0.199 C 
BRANCH  14  15
ATOM     15  O   UNL     1      35.237 -17.578 -20.538  0.00  0.00    -0.269 OA
BRANCH  15  16
ATOM     16  P   UNL     1      36.003 -18.620 -21.513  0.00  0.00    +0.473 P 
ATOM     17  O   UNL     1      37.192 -19.303 -20.903  0.00  0.00    -0.227 OA
BRANCH  16  18
ATOM     18  O   UNL     1      36.310 -17.750 -22.840  0.00  0.00    -0.303 OA
ATOM     19  H   UNL     1      37.270 -17.658 -22.952  0.00  0.00    +0.222 HD
ENDBRANCH  16  18
BRANCH  16  20
ATOM     20  O   UNL     1      34.815 -19.612 -21.986  0.00  0.00    -0.303 OA
ATOM     21  H   UNL     1      34.447 -19.296 -22.826  0.00  0.00    +0.222 HD
ENDBRANCH  16  20
ENDBRANCH  15  16
ENDBRANCH  14  15
ENDBRANCH  11  14
ENDBRANCH   2  10
BRANCH   5  23
ATOM     22  N   UNL     1      30.947  -6.856 -24.315  0.00  0.00    -0.234 NA
ATOM     23  C   UNL     1      31.859  -8.664 -23.001  0.00  0.00    +0.021 C 
ATOM     24  C   UNL     1      32.158  -7.781 -21.972  0.00  0.00    +0.004 C 
ATOM     25  C   UNL     1      31.261  -8.159 -24.141  0.00  0.00    +0.100 C 
ATOM     26  C   UNL     1      31.851  -6.432 -22.113  0.00  0.00    +0.029 C 
ATOM     27  C   UNL     1      31.251  -6.024 -23.294  0.00  0.00    +0.146 C 
BRANCH  27  32
ATOM     28  N   UNL     1      30.810  -4.081 -24.700  0.00  0.00    -0.105 NA
ATOM     29  N   UNL     1      30.489  -2.834 -24.327  0.00  0.00    -0.113 N 
ATOM     30  N   UNL     1      30.672  -3.794 -22.458  0.00  0.00    -0.085 NA
ATOM     31  N   UNL     1      30.396  -2.617 -23.008  0.00  0.00    -0.018 NA
ATOM     32  C   UNL     1      30.914  -4.644 -23.495  0.00  0.00    +0.092 C 
ATOM     33  C   UNL     1      30.258  -1.786 -25.288  0.00  0.00    +0.163 C 
ENDBRANCH  27  32
ENDBRANCH   5  23
TORSDOF 8
ENDMDL
MODEL 8
REMARK VINA RESULT:     -10.2      1.912      3.004
REMARK  Name = 11476460
REMARK  8 active torsions:
REMARK  status: ('A' for Active; 'I' for Inactive)
REMARK    1  A    between atoms: C_2  and  N_10
REMARK    2  A    between atoms: C_5  and  C_23
REMARK    3  A    between atoms: C_11  and  C_14
REMARK    4  A    between atoms: C_14  and  O_15
REMARK    5  A    between atoms: O_15  and  P_16
REMARK    6  A    between atoms: P_16  and  O_18
REMARK    7  A    between atoms: P_16  and  O_20
REMARK    8  A    between atoms: C_27  and  C_32
REMARK                            x       y       z     vdW  Elec       q    Type
REMARK                         _______ _______ _______ _____ _____    ______ ____
ROOT
ATOM      1  F   UNL     1      37.198 -19.662 -20.425  0.00  0.00    -0.204 F 
ATOM      2  C   UNL     1      35.197 -21.797 -18.261  0.00  0.00    +0.059 C 
ATOM      3  C   UNL     1      36.300 -21.151 -18.828  0.00  0.00    +0.045 C 
ATOM      4  C   UNL     1      33.918 -21.552 -18.772  0.00  0.00    +0.015 C 
ATOM      5  C   UNL     1      34.848 -20.029 -20.400  0.00  0.00    +0.029 C 
ATOM      6  C   UNL     1      36.126 -20.270 -19.895  0.00  0.00    +0.141 C 
ATOM      7  C   UNL     1      33.744 -20.671 -19.839  0.00  0.00    +0.004 C 
ENDROOT
BRANCH   2  10
ATOM      8  O   UNL     1      35.162 -24.461 -15.779  0.00  0.00    -0.434 OA
ATOM      9  O   UNL     1      33.813 -24.424 -17.602  0.00  0.00    -0.226 OA
ATOM     10  N   UNL     1      35.373 -22.697 -17.173  0.00  0.00    -0.221 N 
ATOM     11  C   UNL     1      36.324 -23.744 -15.340  0.00  0.00    +0.221 C 
ATOM     12  C   UNL     1      36.238 -22.415 -16.060  0.00  0.00    +0.148 C 
ATOM     13  C   UNL     1      34.700 -23.896 -16.947  0.00  0.00    +0.409 C 
BRANCH  11  14
ATOM     14  C   UNL     1      37.565 -24.546 -15.710  0.00  0.00    +0.199 C 
BRANCH  14  15
ATOM     15  O   UNL     1      38.513 -24.420 -14.665  0.00  0.00    -0.269 OA
BRANCH  15  16
ATOM     16  P   UNL     1      39.827 -25.367 -14.696  0.00  0.00    +0.473 P 
ATOM     17  O   UNL     1      40.949 -24.924 -13.803  0.00  0.00    -0.227 OA
BRANCH  16  18
ATOM     18  O   UNL     1      40.192 -25.466 -16.268  0.00  0.00    -0.303 OA
ATOM     19  H   UNL     1      39.472 -25.914 -16.740  0.00  0.00    +0.222 HD
ENDBRANCH  16  18
BRANCH  16  20
ATOM     20  O   UNL     1      39.225 -26.831 -14.362  0.00  0.00    -0.303 OA
ATOM     21  H   UNL     1      38.942 -27.259 -15.185  0.00  0.00    +0.222 HD
ENDBRANCH  16  20
ENDBRANCH  15  16
ENDBRANCH  14  15
ENDBRANCH  11  14
ENDBRANCH   2  10
BRANCH   5  23
ATOM     22  N   UNL     1      34.067 -16.907 -22.281  0.00  0.00    -0.234 NA
ATOM     23  C   UNL     1      34.663 -19.116 -21.508  0.00  0.00    +0.021 C 
ATOM     24  C   UNL     1      34.882 -19.527 -22.816  0.00  0.00    +0.004 C 
ATOM     25  C   UNL     1      34.260 -17.810 -21.294  0.00  0.00    +0.100 C 
ATOM     26  C   UNL     1      34.694 -18.627 -23.859  0.00  0.00    +0.029 C 
ATOM     27  C   UNL     1      34.290 -17.340 -23.542  0.00  0.00    +0.146 C 
BRANCH  27  32
ATOM     28  N   UNL     1      33.767 -15.096 -24.339  0.00  0.00    -0.105 NA
ATOM     29  N   UNL     1      33.688 -14.654 -25.602  0.00  0.00    -0.113 N 
ATOM     30  N   UNL     1      34.183 -16.683 -25.900  0.00  0.00    -0.085 NA
ATOM     31  N   UNL     1      33.927 -15.560 -26.561  0.00  0.00    -0.018 NA
ATOM     32  C   UNL     1      34.079 -16.371 -24.579  0.00  0.00    +0.092 C 
ATOM     33  C   UNL     1      33.364 -13.286 -25.913  0.00  0.00    +0.163 C 
ENDBRANCH  27  32
ENDBRANCH   5  23
TORSDOF 8
ENDMDL
MODEL 9
REMARK VINA RESULT:      -9.9      6.393      9.614
REMARK  Name = 11476460
REMARK  8 active torsions:
REMARK  status: ('A' for Active; 'I' for Inactive)
REMARK    1  A    between atoms: C_2  and  N_10
REMARK    2  A    between atoms: C_5  and  C_23
REMARK    3  A    between atoms: C_11  and  C_14
REMARK    4  A    between atoms: C_14  and  O_15
REMARK    5  A    between atoms: O_15  and  P_16
REMARK    6  A    between atoms: P_16  and  O_18
REMARK    7  A    between atoms: P_16  and  O_20
REMARK    8  A    between atoms: C_27  and  C_32
REMARK                            x       y       z     vdW  Elec       q    Type
REMARK                         _______ _______ _______ _____ _____    ______ ____
ROOT
ATOM      1  F   UNL     1      32.657 -13.964 -20.137  0.00  0.00    -0.204 F 
ATOM      2  C   UNL     1      34.079 -16.696 -22.077  0.00  0.00    +0.059 C 
ATOM      3  C   UNL     1      33.545 -15.972 -21.006  0.00  0.00    +0.045 C 
ATOM      4  C   UNL     1      34.229 -16.075 -23.321  0.00  0.00    +0.015 C 
ATOM      5  C   UNL     1      33.317 -14.027 -22.420  0.00  0.00    +0.029 C 
ATOM      6  C   UNL     1      33.165 -14.641 -21.177  0.00  0.00    +0.141 C 
ATOM      7  C   UNL     1      33.849 -14.744 -23.492  0.00  0.00    +0.004 C 
ENDROOT
BRANCH   2  10
ATOM      8  O   UNL     1      35.700 -19.936 -21.720  0.00  0.00    -0.434 OA
ATOM      9  O   UNL     1      36.823 -18.005 -22.112  0.00  0.00    -0.226 OA
ATOM     10  N   UNL     1      34.466 -18.054 -21.902  0.00  0.00    -0.221 N 
ATOM     11  C   UNL     1      34.368 -20.294 -21.328  0.00  0.00    +0.221 C 
ATOM     12  C   UNL     1      33.517 -19.127 -21.781  0.00  0.00    +0.148 C 
ATOM     13  C   UNL     1      35.758 -18.576 -21.923  0.00  0.00    +0.409 C 
BRANCH  11  14
ATOM     14  C   UNL     1      34.340 -20.506 -19.820  0.00  0.00    +0.199 C 
BRANCH  14  15
ATOM     15  O   UNL     1      34.795 -21.817 -19.538  0.00  0.00    -0.269 OA
BRANCH  15  16
ATOM     16  P   UNL     1      33.840 -22.796 -18.671  0.00  0.00    +0.473 P 
ATOM     17  O   UNL     1      32.457 -22.271 -18.417  0.00  0.00    -0.227 OA
BRANCH  16  18
ATOM     18  O   UNL     1      34.713 -23.112 -17.347  0.00  0.00    -0.303 OA
ATOM     19  H   UNL     1      34.369 -23.910 -16.916  0.00  0.00    +0.222 HD
ENDBRANCH  16  18
BRANCH  16  20
ATOM     20  O   UNL     1      33.902 -24.186 -19.497  0.00  0.00    -0.303 OA
ATOM     21  H   UNL     1      34.824 -24.386 -19.722  0.00  0.00    +0.222 HD
ENDBRANCH  16  20
ENDBRANCH  15  16
ENDBRANCH  14  15
ENDBRANCH  11  14
ENDBRANCH   2  10
BRANCH   5  23
ATOM     22  N   UNL     1      31.462 -10.821 -22.002  0.00  0.00    -0.234 NA
ATOM     23  C   UNL     1      32.925 -12.645 -22.603  0.00  0.00    +0.021 C 
ATOM     24  C   UNL     1      33.587 -11.830 -23.512  0.00  0.00    +0.004 C 
ATOM     25  C   UNL     1      31.880 -12.100 -21.879  0.00  0.00    +0.100 C 
ATOM     26  C   UNL     1      33.187 -10.507 -23.666  0.00  0.00    +0.029 C 
ATOM     27  C   UNL     1      32.129 -10.055 -22.894  0.00  0.00    +0.146 C 
BRANCH  27  32
ATOM     28  N   UNL     1      31.624  -7.848 -21.988  0.00  0.00    -0.105 NA
ATOM     29  N   UNL     1      31.144  -6.771 -22.625  0.00  0.00    -0.113 N 
ATOM     30  N   UNL     1      31.250  -8.174 -24.197  0.00  0.00    -0.085 NA
ATOM     31  N   UNL     1      30.907  -6.918 -23.936  0.00  0.00    -0.018 NA
ATOM     32  C   UNL     1      31.673  -8.700 -23.014  0.00  0.00    +0.092 C 
ATOM     33  C   UNL     1      30.896  -5.528 -21.943  0.00  0.00    +0.163 C 
ENDBRANCH  27  32
ENDBRANCH   5  23
TORSDOF 8
ENDMDL
