MODEL 1
REMARK VINA RESULT:      -6.5      0.000      0.000
REMARK  Name = 17754076
REMARK  6 active torsions:
REMARK  status: ('A' for Active; 'I' for Inactive)
REMARK    1  A    between atoms: N_1  and  C_15
REMARK    2  A    between atoms: C_3  and  C_9
REMARK    3  A    between atoms: C_4  and  O_7
REMARK    4  A    between atoms: C_9  and  N_11
REMARK    5  A    between atoms: C_15  and  C_17
REMARK    6  A    between atoms: C_17  and  O_18
REMARK                            x       y       z     vdW  Elec       q    Type
REMARK                         _______ _______ _______ _____ _____    ______ ____
ROOT
ATOM      1  N   UNL     1      36.647 -24.208 -14.049  0.00  0.00    -0.251 N 
ATOM      2  N   UNL     1      38.315 -23.604 -15.384  0.00  0.00    -0.398 NA
ATOM      3  C   UNL     1      37.928 -24.453 -14.459  0.00  0.00    +0.141 C 
ATOM      4  C   UNL     1      36.188 -23.135 -14.759  0.00  0.00    +0.241 C 
ATOM      5  C   UNL     1      37.235 -22.779 -15.576  0.00  0.00    +0.135 C 
ATOM      6  C   UNL     1      37.298 -21.685 -16.557  0.00  0.00    +0.066 C 
ENDROOT
BRANCH   4   7
ATOM      7  O   UNL     1      34.969 -22.643 -14.596  0.00  0.00    -0.362 OA
ATOM      8  H   UNL     1      34.264 -23.211 -14.352  0.00  0.00    +0.213 HD
ENDBRANCH   4   7
BRANCH   3   9
ATOM      9  C   UNL     1      38.760 -25.581 -13.883  0.00  0.00    +0.003 C 
ATOM     10  C   UNL     1      40.245 -25.422 -14.216  0.00  0.00    -0.015 C 
BRANCH   9  11
ATOM     11  N   UNL     1      38.292 -26.889 -14.351  0.00  0.00    +0.387 N 
ATOM     12  H   UNL     1      38.658 -27.066 -15.286  0.00  0.00    -0.089 HD
ATOM     13  H   UNL     1      37.272 -26.895 -14.379  0.00  0.00    -0.089 HD
ATOM     14  H   UNL     1      38.619 -27.615 -13.714  0.00  0.00    -0.089 HD
ENDBRANCH   9  11
ENDBRANCH   3   9
BRANCH   1  15
ATOM     15  C   UNL     1      35.910 -24.948 -13.050  0.00  0.00    +0.205 C 
BRANCH  15  17
ATOM     16  O   UNL     1      36.678 -24.220 -10.854  0.00  0.00    -0.248 OA
ATOM     17  C   UNL     1      35.833 -24.216 -11.737  0.00  0.00    +0.334 C 
BRANCH  17  18
ATOM     18  O   UNL     1      34.664 -23.531 -11.659  0.00  0.00    -0.479 OA
ATOM     19  H   UNL     1      34.196 -23.493 -10.848  0.00  0.00    +0.295 HD
ENDBRANCH  17  18
ENDBRANCH  15  17
ENDBRANCH   1  15
TORSDOF 6
ENDMDL
MODEL 2
REMARK VINA RESULT:      -6.4      2.747      3.896
REMARK  Name = 17754076
REMARK  6 active torsions:
REMARK  status: ('A' for Active; 'I' for Inactive)
REMARK    1  A    between atoms: N_1  and  C_15
REMARK    2  A    between atoms: C_3  and  C_9
REMARK    3  A    between atoms: C_4  and  O_7
REMARK    4  A    between atoms: C_9  and  N_11
REMARK    5  A    between atoms: C_15  and  C_17
REMARK    6  A    between atoms: C_17  and  O_18
REMARK                            x       y       z     vdW  Elec       q    Type
REMARK                         _______ _______ _______ _____ _____    ______ ____
ROOT
ATOM      1  N   UNL     1      36.828 -24.217 -14.605  0.00  0.00    -0.251 N 
ATOM      2  N   UNL     1      35.547 -22.632 -15.485  0.00  0.00    -0.398 NA
ATOM      3  C   UNL     1      35.587 -23.646 -14.650  0.00  0.00    +0.141 C 
ATOM      4  C   UNL     1      37.630 -23.523 -15.465  0.00  0.00    +0.241 C 
ATOM      5  C   UNL     1      36.818 -22.551 -15.998  0.00  0.00    +0.135 C 
ATOM      6  C   UNL     1      37.158 -21.514 -16.985  0.00  0.00    +0.066 C 
ENDROOT
BRANCH   4   7
ATOM      7  O   UNL     1      38.905 -23.830 -15.652  0.00  0.00    -0.362 OA
ATOM      8  H   UNL     1      39.576 -23.300 -15.268  0.00  0.00    +0.213 HD
ENDBRANCH   4   7
BRANCH   3   9
ATOM      9  C   UNL     1      34.429 -24.158 -13.817  0.00  0.00    +0.003 C 
ATOM     10  C   UNL     1      33.079 -23.855 -14.470  0.00  0.00    -0.015 C 
BRANCH   9  11
ATOM     11  N   UNL     1      34.453 -23.598 -12.462  0.00  0.00    +0.387 N 
ATOM     12  H   UNL     1      34.050 -24.270 -11.809  0.00  0.00    -0.089 HD
ATOM     13  H   UNL     1      33.910 -22.735 -12.440  0.00  0.00    -0.089 HD
ATOM     14  H   UNL     1      35.417 -23.399 -12.193  0.00  0.00    -0.089 HD
ENDBRANCH   9  11
ENDBRANCH   3   9
BRANCH   1  15
ATOM     15  C   UNL     1      37.223 -25.347 -13.793  0.00  0.00    +0.205 C 
BRANCH  15  17
ATOM     16  O   UNL     1      38.396 -27.207 -14.844  0.00  0.00    -0.248 OA
ATOM     17  C   UNL     1      37.358 -26.610 -14.600  0.00  0.00    +0.334 C 
BRANCH  17  18
ATOM     18  O   UNL     1      36.137 -27.011 -15.037  0.00  0.00    -0.479 OA
ATOM     19  H   UNL     1      35.404 -27.002 -14.454  0.00  0.00    +0.295 HD
ENDBRANCH  17  18
ENDBRANCH  15  17
ENDBRANCH   1  15
TORSDOF 6
ENDMDL
MODEL 3
REMARK VINA RESULT:      -6.4      1.973      3.381
REMARK  Name = 17754076
REMARK  6 active torsions:
REMARK  status: ('A' for Active; 'I' for Inactive)
REMARK    1  A    between atoms: N_1  and  C_15
REMARK    2  A    between atoms: C_3  and  C_9
REMARK    3  A    between atoms: C_4  and  O_7
REMARK    4  A    between atoms: C_9  and  N_11
REMARK    5  A    between atoms: C_15  and  C_17
REMARK    6  A    between atoms: C_17  and  O_18
REMARK                            x       y       z     vdW  Elec       q    Type
REMARK                         _______ _______ _______ _____ _____    ______ ____
ROOT
ATOM      1  N   UNL     1      36.033 -23.973 -13.505  0.00  0.00    -0.251 N 
ATOM      2  N   UNL     1      34.949 -23.130 -15.251  0.00  0.00    -0.398 NA
ATOM      3  C   UNL     1      36.126 -23.302 -14.693  0.00  0.00    +0.141 C 
ATOM      4  C   UNL     1      34.711 -24.246 -13.293  0.00  0.00    +0.241 C 
ATOM      5  C   UNL     1      34.062 -23.716 -14.382  0.00  0.00    +0.135 C 
ATOM      6  C   UNL     1      32.621 -23.720 -14.679  0.00  0.00    +0.066 C 
ENDROOT
BRANCH   4   7
ATOM      7  O   UNL     1      34.283 -24.893 -12.219  0.00  0.00    -0.362 OA
ATOM      8  H   UNL     1      33.646 -24.497 -11.656  0.00  0.00    +0.213 HD
ENDBRANCH   4   7
BRANCH   3   9
ATOM      9  C   UNL     1      37.454 -22.835 -15.256  0.00  0.00    +0.003 C 
ATOM     10  C   UNL     1      37.268 -21.826 -16.391  0.00  0.00    -0.015 C 
BRANCH   9  11
ATOM     11  N   UNL     1      38.263 -23.961 -15.731  0.00  0.00    +0.387 N 
ATOM     12  H   UNL     1      37.846 -24.347 -16.577  0.00  0.00    -0.089 HD
ATOM     13  H   UNL     1      38.300 -24.682 -15.011  0.00  0.00    -0.089 HD
ATOM     14  H   UNL     1      39.209 -23.636 -15.935  0.00  0.00    -0.089 HD
ENDBRANCH   9  11
ENDBRANCH   3   9
BRANCH   1  15
ATOM     15  C   UNL     1      37.129 -24.331 -12.633  0.00  0.00    +0.205 C 
BRANCH  15  17
ATOM     16  O   UNL     1      38.330 -26.235 -13.566  0.00  0.00    -0.248 OA
ATOM     17  C   UNL     1      37.522 -25.777 -12.773  0.00  0.00    +0.334 C 
BRANCH  17  18
ATOM     18  O   UNL     1      36.836 -26.530 -11.876  0.00  0.00    -0.479 OA
ATOM     19  H   UNL     1      36.681 -27.438 -12.046  0.00  0.00    +0.295 HD
ENDBRANCH  17  18
ENDBRANCH  15  17
ENDBRANCH   1  15
TORSDOF 6
ENDMDL
MODEL 4
REMARK VINA RESULT:      -6.4      1.673      1.820
REMARK  Name = 17754076
REMARK  6 active torsions:
REMARK  status: ('A' for Active; 'I' for Inactive)
REMARK    1  A    between atoms: N_1  and  C_15
REMARK    2  A    between atoms: C_3  and  C_9
REMARK    3  A    between atoms: C_4  and  O_7
REMARK    4  A    between atoms: C_9  and  N_11
REMARK    5  A    between atoms: C_15  and  C_17
REMARK    6  A    between atoms: C_17  and  O_18
REMARK                            x       y       z     vdW  Elec       q    Type
REMARK                         _______ _______ _______ _____ _____    ______ ____
ROOT
ATOM      1  N   UNL     1      35.957 -24.613 -13.230  0.00  0.00    -0.251 N 
ATOM      2  N   UNL     1      36.350 -24.391 -15.404  0.00  0.00    -0.398 NA
ATOM      3  C   UNL     1      36.816 -24.853 -14.266  0.00  0.00    +0.141 C 
ATOM      4  C   UNL     1      34.873 -23.958 -13.740  0.00  0.00    +0.241 C 
ATOM      5  C   UNL     1      35.138 -23.830 -15.083  0.00  0.00    +0.135 C 
ATOM      6  C   UNL     1      34.309 -23.201 -16.123  0.00  0.00    +0.066 C 
ENDROOT
BRANCH   4   7
ATOM      7  O   UNL     1      33.851 -23.581 -12.987  0.00  0.00    -0.362 OA
ATOM      8  H   UNL     1      32.973 -23.702 -13.293  0.00  0.00    +0.213 HD
ENDBRANCH   4   7
BRANCH   3   9
ATOM      9  C   UNL     1      38.138 -25.569 -14.072  0.00  0.00    +0.003 C 
ATOM     10  C   UNL     1      39.245 -24.967 -14.939  0.00  0.00    -0.015 C 
BRANCH   9  11
ATOM     11  N   UNL     1      38.020 -27.002 -14.357  0.00  0.00    +0.387 N 
ATOM     12  H   UNL     1      38.894 -27.343 -14.756  0.00  0.00    -0.089 HD
ATOM     13  H   UNL     1      37.261 -27.156 -15.021  0.00  0.00    -0.089 HD
ATOM     14  H   UNL     1      37.821 -27.505 -13.491  0.00  0.00    -0.089 HD
ENDBRANCH   9  11
ENDBRANCH   3   9
BRANCH   1  15
ATOM     15  C   UNL     1      36.155 -24.987 -11.847  0.00  0.00    +0.205 C 
BRANCH  15  17
ATOM     16  O   UNL     1      37.369 -22.922 -11.396  0.00  0.00    -0.248 OA
ATOM     17  C   UNL     1      36.661 -23.841 -11.013  0.00  0.00    +0.334 C 
BRANCH  17  18
ATOM     18  O   UNL     1      36.216 -23.968  -9.737  0.00  0.00    -0.479 OA
ATOM     19  H   UNL     1      36.811 -24.204  -9.053  0.00  0.00    +0.295 HD
ENDBRANCH  17  18
ENDBRANCH  15  17
ENDBRANCH   1  15
TORSDOF 6
ENDMDL
MODEL 5
REMARK VINA RESULT:      -6.4      2.106      3.476
REMARK  Name = 17754076
REMARK  6 active torsions:
REMARK  status: ('A' for Active; 'I' for Inactive)
REMARK    1  A    between atoms: N_1  and  C_15
REMARK    2  A    between atoms: C_3  and  C_9
REMARK    3  A    between atoms: C_4  and  O_7
REMARK    4  A    between atoms: C_9  and  N_11
REMARK    5  A    between atoms: C_15  and  C_17
REMARK    6  A    between atoms: C_17  and  O_18
REMARK                            x       y       z     vdW  Elec       q    Type
REMARK                         _______ _______ _______ _____ _____    ______ ____
ROOT
ATOM      1  N   UNL     1      36.958 -24.150 -14.529  0.00  0.00    -0.251 N 
ATOM      2  N   UNL     1      35.530 -22.706 -15.428  0.00  0.00    -0.398 NA
ATOM      3  C   UNL     1      35.685 -23.651 -14.528  0.00  0.00    +0.141 C 
ATOM      4  C   UNL     1      37.659 -23.480 -15.491  0.00  0.00    +0.241 C 
ATOM      5  C   UNL     1      36.758 -22.596 -16.033  0.00  0.00    +0.135 C 
ATOM      6  C   UNL     1      36.971 -21.619 -17.113  0.00  0.00    +0.066 C 
ENDROOT
BRANCH   4   7
ATOM      7  O   UNL     1      38.935 -23.731 -15.744  0.00  0.00    -0.362 OA
ATOM      8  H   UNL     1      39.537 -23.022 -15.864  0.00  0.00    +0.213 HD
ENDBRANCH   4   7
BRANCH   3   9
ATOM      9  C   UNL     1      34.617 -24.161 -13.582  0.00  0.00    +0.003 C 
ATOM     10  C   UNL     1      33.208 -23.912 -14.125  0.00  0.00    -0.015 C 
BRANCH   9  11
ATOM     11  N   UNL     1      34.742 -23.556 -12.253  0.00  0.00    +0.387 N 
ATOM     12  H   UNL     1      35.602 -23.879 -11.811  0.00  0.00    -0.089 HD
ATOM     13  H   UNL     1      33.943 -23.825 -11.679  0.00  0.00    -0.089 HD
ATOM     14  H   UNL     1      34.768 -22.539 -12.343  0.00  0.00    -0.089 HD
ENDBRANCH   9  11
ENDBRANCH   3   9
BRANCH   1  15
ATOM     15  C   UNL     1      37.471 -25.193 -13.669  0.00  0.00    +0.205 C 
BRANCH  15  17
ATOM     16  O   UNL     1      37.608 -24.603 -11.309  0.00  0.00    -0.248 OA
ATOM     17  C   UNL     1      38.109 -24.643 -12.422  0.00  0.00    +0.334 C 
BRANCH  17  18
ATOM     18  O   UNL     1      39.353 -24.180 -12.706  0.00  0.00    -0.479 OA
ATOM     19  H   UNL     1      39.535 -23.263 -12.656  0.00  0.00    +0.295 HD
ENDBRANCH  17  18
ENDBRANCH  15  17
ENDBRANCH   1  15
TORSDOF 6
ENDMDL
MODEL 6
REMARK VINA RESULT:      -6.3     10.588     12.484
REMARK  Name = 17754076
REMARK  6 active torsions:
REMARK  status: ('A' for Active; 'I' for Inactive)
REMARK    1  A    between atoms: N_1  and  C_15
REMARK    2  A    between atoms: C_3  and  C_9
REMARK    3  A    between atoms: C_4  and  O_7
REMARK    4  A    between atoms: C_9  and  N_11
REMARK    5  A    between atoms: C_15  and  C_17
REMARK    6  A    between atoms: C_17  and  O_18
REMARK                            x       y       z     vdW  Elec       q    Type
REMARK                         _______ _______ _______ _____ _____    ______ ____
ROOT
ATOM      1  N   UNL     1      34.596 -16.260 -22.911  0.00  0.00    -0.251 N 
ATOM      2  N   UNL     1      33.627 -16.300 -20.914  0.00  0.00    -0.398 NA
ATOM      3  C   UNL     1      34.317 -16.993 -21.792  0.00  0.00    +0.141 C 
ATOM      4  C   UNL     1      34.050 -15.020 -22.736  0.00  0.00    +0.241 C 
ATOM      5  C   UNL     1      33.456 -15.070 -21.497  0.00  0.00    +0.135 C 
ATOM      6  C   UNL     1      32.715 -14.009 -20.796  0.00  0.00    +0.066 C 
ENDROOT
BRANCH   4   7
ATOM      7  O   UNL     1      34.146 -14.066 -23.649  0.00  0.00    -0.362 OA
ATOM      8  H   UNL     1      34.362 -13.190 -23.390  0.00  0.00    +0.213 HD
ENDBRANCH   4   7
BRANCH   3   9
ATOM      9  C   UNL     1      34.772 -18.430 -21.631  0.00  0.00    +0.003 C 
ATOM     10  C   UNL     1      33.653 -19.326 -21.096  0.00  0.00    -0.015 C 
BRANCH   9  11
ATOM     11  N   UNL     1      35.940 -18.529 -20.751  0.00  0.00    +0.387 N 
ATOM     12  H   UNL     1      36.621 -17.815 -21.007  0.00  0.00    -0.089 HD
ATOM     13  H   UNL     1      36.363 -19.452 -20.848  0.00  0.00    -0.089 HD
ATOM     14  H   UNL     1      35.648 -18.389 -19.783  0.00  0.00    -0.089 HD
ENDBRANCH   9  11
ENDBRANCH   3   9
BRANCH   1  15
ATOM     15  C   UNL     1      35.337 -16.710 -24.069  0.00  0.00    +0.205 C 
BRANCH  15  17
ATOM     16  O   UNL     1      33.975 -18.241 -25.388  0.00  0.00    -0.248 OA
ATOM     17  C   UNL     1      34.433 -17.125 -25.199  0.00  0.00    +0.334 C 
BRANCH  17  18
ATOM     18  O   UNL     1      34.189 -16.063 -26.008  0.00  0.00    -0.479 OA
ATOM     19  H   UNL     1      34.874 -15.711 -26.541  0.00  0.00    +0.295 HD
ENDBRANCH  17  18
ENDBRANCH  15  17
ENDBRANCH   1  15
TORSDOF 6
ENDMDL
MODEL 7
REMARK VINA RESULT:      -6.3     11.113     12.891
REMARK  Name = 17754076
REMARK  6 active torsions:
REMARK  status: ('A' for Active; 'I' for Inactive)
REMARK    1  A    between atoms: N_1  and  C_15
REMARK    2  A    between atoms: C_3  and  C_9
REMARK    3  A    between atoms: C_4  and  O_7
REMARK    4  A    between atoms: C_9  and  N_11
REMARK    5  A    between atoms: C_15  and  C_17
REMARK    6  A    between atoms: C_17  and  O_18
REMARK                            x       y       z     vdW  Elec       q    Type
REMARK                         _______ _______ _______ _____ _____    ______ ____
ROOT
ATOM      1  N   UNL     1      34.589 -16.585 -23.540  0.00  0.00    -0.251 N 
ATOM      2  N   UNL     1      33.196 -14.856 -23.535  0.00  0.00    -0.398 NA
ATOM      3  C   UNL     1      33.859 -15.709 -22.787  0.00  0.00    +0.141 C 
ATOM      4  C   UNL     1      34.379 -16.271 -24.852  0.00  0.00    +0.241 C 
ATOM      5  C   UNL     1      33.516 -15.202 -24.824  0.00  0.00    +0.135 C 
ATOM      6  C   UNL     1      32.950 -14.454 -25.958  0.00  0.00    +0.066 C 
ENDROOT
BRANCH   4   7
ATOM      7  O   UNL     1      34.951 -16.938 -25.843  0.00  0.00    -0.362 OA
ATOM      8  H   UNL     1      34.422 -17.424 -26.447  0.00  0.00    +0.213 HD
ENDBRANCH   4   7
BRANCH   3   9
ATOM      9  C   UNL     1      33.849 -15.757 -21.272  0.00  0.00    +0.003 C 
ATOM     10  C   UNL     1      32.433 -15.624 -20.707  0.00  0.00    -0.015 C 
BRANCH   9  11
ATOM     11  N   UNL     1      34.704 -14.716 -20.695  0.00  0.00    +0.387 N 
ATOM     12  H   UNL     1      34.316 -14.412 -19.802  0.00  0.00    -0.089 HD
ATOM     13  H   UNL     1      34.752 -13.922 -21.332  0.00  0.00    -0.089 HD
ATOM     14  H   UNL     1      35.642 -15.091 -20.548  0.00  0.00    -0.089 HD
ENDBRANCH   9  11
ENDBRANCH   3   9
BRANCH   1  15
ATOM     15  C   UNL     1      35.433 -17.649 -23.041  0.00  0.00    +0.205 C 
BRANCH  15  17
ATOM     16  O   UNL     1      34.101 -19.464 -22.108  0.00  0.00    -0.248 OA
ATOM     17  C   UNL     1      34.731 -18.980 -23.036  0.00  0.00    +0.334 C 
BRANCH  17  18
ATOM     18  O   UNL     1      34.895 -19.593 -24.236  0.00  0.00    -0.479 OA
ATOM     19  H   UNL     1      34.368 -20.333 -24.461  0.00  0.00    +0.295 HD
ENDBRANCH  17  18
ENDBRANCH  15  17
ENDBRANCH   1  15
TORSDOF 6
ENDMDL
MODEL 8
REMARK VINA RESULT:      -6.3      1.845      3.294
REMARK  Name = 17754076
REMARK  6 active torsions:
REMARK  status: ('A' for Active; 'I' for Inactive)
REMARK    1  A    between atoms: N_1  and  C_15
REMARK    2  A    between atoms: C_3  and  C_9
REMARK    3  A    between atoms: C_4  and  O_7
REMARK    4  A    between atoms: C_9  and  N_11
REMARK    5  A    between atoms: C_15  and  C_17
REMARK    6  A    between atoms: C_17  and  O_18
REMARK                            x       y       z     vdW  Elec       q    Type
REMARK                         _______ _______ _______ _____ _____    ______ ____
ROOT
ATOM      1  N   UNL     1      37.043 -24.138 -13.204  0.00  0.00    -0.251 N 
ATOM      2  N   UNL     1      37.855 -25.259 -14.940  0.00  0.00    -0.398 NA
ATOM      3  C   UNL     1      36.788 -24.685 -14.430  0.00  0.00    +0.141 C 
ATOM      4  C   UNL     1      38.356 -24.377 -12.913  0.00  0.00    +0.241 C 
ATOM      5  C   UNL     1      38.836 -25.071 -13.998  0.00  0.00    +0.135 C 
ATOM      6  C   UNL     1      40.195 -25.587 -14.225  0.00  0.00    +0.066 C 
ENDROOT
BRANCH   4   7
ATOM      7  O   UNL     1      38.920 -23.970 -11.786  0.00  0.00    -0.362 OA
ATOM      8  H   UNL     1      39.852 -23.991 -11.695  0.00  0.00    +0.213 HD
ENDBRANCH   4   7
BRANCH   3   9
ATOM      9  C   UNL     1      35.421 -24.612 -15.081  0.00  0.00    +0.003 C 
ATOM     10  C   UNL     1      35.066 -23.185 -15.503  0.00  0.00    -0.015 C 
BRANCH   9  11
ATOM     11  N   UNL     1      34.376 -25.135 -14.197  0.00  0.00    +0.387 N 
ATOM     12  H   UNL     1      34.481 -24.728 -13.268  0.00  0.00    -0.089 HD
ATOM     13  H   UNL     1      34.458 -26.149 -14.134  0.00  0.00    -0.089 HD
ATOM     14  H   UNL     1      33.459 -24.891 -14.574  0.00  0.00    -0.089 HD
ENDBRANCH   9  11
ENDBRANCH   3   9
BRANCH   1  15
ATOM     15  C   UNL     1      36.098 -23.432 -12.367  0.00  0.00    +0.205 C 
BRANCH  15  17
ATOM     16  O   UNL     1      36.321 -23.965  -9.999  0.00  0.00    -0.248 OA
ATOM     17  C   UNL     1      35.806 -24.170 -11.088  0.00  0.00    +0.334 C 
BRANCH  17  18
ATOM     18  O   UNL     1      34.868 -25.125 -11.310  0.00  0.00    -0.479 OA
ATOM     19  H   UNL     1      34.332 -25.086 -12.077  0.00  0.00    +0.295 HD
ENDBRANCH  17  18
ENDBRANCH  15  17
ENDBRANCH   1  15
TORSDOF 6
ENDMDL
MODEL 9
REMARK VINA RESULT:      -6.1      2.218      3.766
REMARK  Name = 17754076
REMARK  6 active torsions:
REMARK  status: ('A' for Active; 'I' for Inactive)
REMARK    1  A    between atoms: N_1  and  C_15
REMARK    2  A    between atoms: C_3  and  C_9
REMARK    3  A    between atoms: C_4  and  O_7
REMARK    4  A    between atoms: C_9  and  N_11
REMARK    5  A    between atoms: C_15  and  C_17
REMARK    6  A    between atoms: C_17  and  O_18
REMARK                            x       y       z     vdW  Elec       q    Type
REMARK                         _______ _______ _______ _____ _____    ______ ____
ROOT
ATOM      1  N   UNL     1      36.019 -24.537 -13.212  0.00  0.00    -0.251 N 
ATOM      2  N   UNL     1      36.589 -25.053 -15.295  0.00  0.00    -0.398 NA
ATOM      3  C   UNL     1      36.001 -24.163 -14.527  0.00  0.00    +0.141 C 
ATOM      4  C   UNL     1      36.659 -25.741 -13.137  0.00  0.00    +0.241 C 
ATOM      5  C   UNL     1      37.000 -26.040 -14.434  0.00  0.00    +0.135 C 
ATOM      6  C   UNL     1      37.711 -27.224 -14.942  0.00  0.00    +0.066 C 
ENDROOT
BRANCH   4   7
ATOM      7  O   UNL     1      36.843 -26.377 -11.990  0.00  0.00    -0.362 OA
ATOM      8  H   UNL     1      37.392 -26.003 -11.329  0.00  0.00    +0.213 HD
ENDBRANCH   4   7
BRANCH   3   9
ATOM      9  C   UNL     1      35.367 -22.868 -14.992  0.00  0.00    +0.003 C 
ATOM     10  C   UNL     1      33.949 -23.086 -15.524  0.00  0.00    -0.015 C 
BRANCH   9  11
ATOM     11  N   UNL     1      36.179 -22.211 -16.020  0.00  0.00    +0.387 N 
ATOM     12  H   UNL     1      37.106 -22.012 -15.647  0.00  0.00    -0.089 HD
ATOM     13  H   UNL     1      35.732 -21.338 -16.301  0.00  0.00    -0.089 HD
ATOM     14  H   UNL     1      36.263 -22.825 -16.831  0.00  0.00    -0.089 HD
ENDBRANCH   9  11
ENDBRANCH   3   9
BRANCH   1  15
ATOM     15  C   UNL     1      35.465 -23.794 -12.102  0.00  0.00    +0.205 C 
BRANCH  15  17
ATOM     16  O   UNL     1      37.433 -22.653 -11.230  0.00  0.00    -0.248 OA
ATOM     17  C   UNL     1      36.507 -23.434 -11.078  0.00  0.00    +0.334 C 
BRANCH  17  18
ATOM     18  O   UNL     1      36.277 -24.116  -9.927  0.00  0.00    -0.479 OA
ATOM     19  H   UNL     1      36.637 -23.807  -9.119  0.00  0.00    +0.295 HD
ENDBRANCH  17  18
ENDBRANCH  15  17
ENDBRANCH   1  15
TORSDOF 6
ENDMDL
