MODEL 1
REMARK VINA RESULT:     -10.9      0.000      0.000
REMARK  Name = 447022
REMARK  5 active torsions:
REMARK  status: ('A' for Active; 'I' for Inactive)
REMARK    1  A    between atoms: C_5  and  N_17
REMARK    2  A    between atoms: N_17  and  C_19
REMARK    3  A    between atoms: C_19  and  C_20
REMARK    4  A    between atoms: C_23  and  O_26
REMARK    5  A    between atoms: C_24  and  O_28
REMARK                            x       y       z     vdW  Elec       q    Type
REMARK                         _______ _______ _______ _____ _____    ______ ____
ROOT
ATOM      1  N   UNL     1      32.727 -20.646 -20.540  0.00  0.00    -0.180 NA
ATOM      2  N   UNL     1      32.669 -22.068 -18.714  0.00  0.00    -0.273 NA
ATOM      3  N   UNL     1      34.685 -22.757 -17.592  0.00  0.00    -0.312 NA
ATOM      4  N   UNL     1      32.591 -23.513 -16.865  0.00  0.00    -0.283 N 
ATOM      5  C   UNL     1      34.822 -19.796 -21.392  0.00  0.00    +0.069 C 
ATOM      6  C   UNL     1      35.493 -20.500 -20.408  0.00  0.00    +0.031 C 
ATOM      7  C   UNL     1      34.765 -21.275 -19.493  0.00  0.00    +0.121 C 
ATOM      8  C   UNL     1      33.448 -19.902 -21.415  0.00  0.00    +0.125 C 
ATOM      9  C   UNL     1      33.370 -21.330 -19.583  0.00  0.00    +0.105 C 
ATOM     10  C   UNL     1      35.367 -22.010 -18.475  0.00  0.00    +0.201 C 
ATOM     11  C   UNL     1      33.357 -22.741 -17.768  0.00  0.00    +0.206 C 
ATOM     12  H   UNL     1      31.610 -23.537 -16.948  0.00  0.00    +0.156 HD
ATOM     13  H   UNL     1      33.037 -24.026 -16.154  0.00  0.00    +0.156 HD
ATOM     14  N   UNL     1      36.778 -21.987 -18.340  0.00  0.00    -0.332 N 
ATOM     15  H   UNL     1      37.211 -22.504 -17.623  0.00  0.00    +0.145 HD
ATOM     16  H   UNL     1      37.323 -21.454 -18.961  0.00  0.00    +0.145 HD
ENDROOT
BRANCH   5  17
ATOM     17  N   UNL     1      35.510 -19.012 -22.329  0.00  0.00    -0.301 N 
ATOM     18  C   UNL     1      36.756 -18.353 -21.974  0.00  0.00    +0.113 C 
BRANCH  17  19
ATOM     19  C   UNL     1      34.999 -18.853 -23.681  0.00  0.00    +0.118 C 
BRANCH  19  20
ATOM     20  C   UNL     1      34.584 -17.429 -23.923  0.00  0.00    +0.004 C 
ATOM     21  C   UNL     1      34.206 -17.032 -25.199  0.00  0.00    +0.034 C 
ATOM     22  C   UNL     1      34.583 -16.527 -22.867  0.00  0.00    +0.034 C 
ATOM     23  C   UNL     1      34.197 -15.205 -23.091  0.00  0.00    +0.142 C 
ATOM     24  C   UNL     1      33.820 -15.710 -25.423  0.00  0.00    +0.142 C 
ATOM     25  C   UNL     1      33.815 -14.797 -24.369  0.00  0.00    +0.074 C 
BRANCH  23  26
ATOM     26  O   UNL     1      34.192 -14.313 -22.062  0.00  0.00    -0.471 OA
ATOM     27  C   UNL     1      34.417 -14.832 -20.752  0.00  0.00    +0.252 C 
ENDBRANCH  23  26
BRANCH  24  28
ATOM     28  O   UNL     1      33.448 -15.312 -26.670  0.00  0.00    -0.471 OA
ATOM     29  C   UNL     1      33.114 -13.936 -26.840  0.00  0.00    +0.252 C 
ENDBRANCH  24  28
ENDBRANCH  19  20
ENDBRANCH  17  19
ENDBRANCH   5  17
TORSDOF 5
ENDMDL
MODEL 2
REMARK VINA RESULT:     -10.8      0.031      2.432
REMARK  Name = 447022
REMARK  5 active torsions:
REMARK  status: ('A' for Active; 'I' for Inactive)
REMARK    1  A    between atoms: C_5  and  N_17
REMARK    2  A    between atoms: N_17  and  C_19
REMARK    3  A    between atoms: C_19  and  C_20
REMARK    4  A    between atoms: C_23  and  O_26
REMARK    5  A    between atoms: C_24  and  O_28
REMARK                            x       y       z     vdW  Elec       q    Type
REMARK                         _______ _______ _______ _____ _____    ______ ____
ROOT
ATOM      1  N   UNL     1      32.735 -20.630 -20.522  0.00  0.00    -0.180 NA
ATOM      2  N   UNL     1      32.682 -22.054 -18.697  0.00  0.00    -0.273 NA
ATOM      3  N   UNL     1      34.701 -22.751 -17.586  0.00  0.00    -0.312 NA
ATOM      4  N   UNL     1      32.608 -23.501 -16.849  0.00  0.00    -0.283 N 
ATOM      5  C   UNL     1      34.828 -19.786 -21.384  0.00  0.00    +0.069 C 
ATOM      6  C   UNL     1      35.502 -20.494 -20.403  0.00  0.00    +0.031 C 
ATOM      7  C   UNL     1      34.776 -21.267 -19.486  0.00  0.00    +0.121 C 
ATOM      8  C   UNL     1      33.454 -19.888 -21.400  0.00  0.00    +0.125 C 
ATOM      9  C   UNL     1      33.380 -21.318 -19.569  0.00  0.00    +0.105 C 
ATOM     10  C   UNL     1      35.381 -22.005 -18.472  0.00  0.00    +0.201 C 
ATOM     11  C   UNL     1      33.372 -22.731 -17.755  0.00  0.00    +0.206 C 
ATOM     12  H   UNL     1      31.627 -23.521 -16.927  0.00  0.00    +0.156 HD
ATOM     13  H   UNL     1      33.057 -24.017 -16.141  0.00  0.00    +0.156 HD
ATOM     14  N   UNL     1      36.792 -21.987 -18.344  0.00  0.00    -0.332 N 
ATOM     15  H   UNL     1      37.228 -22.507 -17.630  0.00  0.00    +0.145 HD
ATOM     16  H   UNL     1      37.336 -21.455 -18.967  0.00  0.00    +0.145 HD
ENDROOT
BRANCH   5  17
ATOM     17  N   UNL     1      35.514 -19.004 -22.323  0.00  0.00    -0.301 N 
ATOM     18  C   UNL     1      36.764 -18.349 -21.974  0.00  0.00    +0.113 C 
BRANCH  17  19
ATOM     19  C   UNL     1      34.997 -18.841 -23.672  0.00  0.00    +0.118 C 
BRANCH  19  20
ATOM     20  C   UNL     1      34.595 -17.413 -23.914  0.00  0.00    +0.004 C 
ATOM     21  C   UNL     1      34.616 -16.508 -22.862  0.00  0.00    +0.034 C 
ATOM     22  C   UNL     1      34.208 -17.017 -25.188  0.00  0.00    +0.034 C 
ATOM     23  C   UNL     1      33.836 -15.691 -25.412  0.00  0.00    +0.142 C 
ATOM     24  C   UNL     1      34.243 -15.182 -23.086  0.00  0.00    +0.142 C 
ATOM     25  C   UNL     1      33.853 -14.774 -24.362  0.00  0.00    +0.074 C 
BRANCH  23  26
ATOM     26  O   UNL     1      33.455 -15.293 -26.657  0.00  0.00    -0.471 OA
ATOM     27  C   UNL     1      33.113 -13.918 -26.822  0.00  0.00    +0.252 C 
ENDBRANCH  23  26
BRANCH  24  28
ATOM     28  O   UNL     1      34.260 -14.288 -22.061  0.00  0.00    -0.471 OA
ATOM     29  C   UNL     1      34.357 -14.816 -20.740  0.00  0.00    +0.252 C 
ENDBRANCH  24  28
ENDBRANCH  19  20
ENDBRANCH  17  19
ENDBRANCH   5  17
TORSDOF 5
ENDMDL
MODEL 3
REMARK VINA RESULT:     -10.1      1.271      2.446
REMARK  Name = 447022
REMARK  5 active torsions:
REMARK  status: ('A' for Active; 'I' for Inactive)
REMARK    1  A    between atoms: C_5  and  N_17
REMARK    2  A    between atoms: N_17  and  C_19
REMARK    3  A    between atoms: C_19  and  C_20
REMARK    4  A    between atoms: C_23  and  O_26
REMARK    5  A    between atoms: C_24  and  O_28
REMARK                            x       y       z     vdW  Elec       q    Type
REMARK                         _______ _______ _______ _____ _____    ______ ____
ROOT
ATOM      1  N   UNL     1      36.766 -21.050 -18.885  0.00  0.00    -0.180 NA
ATOM      2  N   UNL     1      36.561 -22.460 -17.060  0.00  0.00    -0.273 NA
ATOM      3  N   UNL     1      34.461 -23.501 -16.504  0.00  0.00    -0.312 NA
ATOM      4  N   UNL     1      36.371 -23.887 -15.204  0.00  0.00    -0.283 N 
ATOM      5  C   UNL     1      34.873 -20.566 -20.305  0.00  0.00    +0.069 C 
ATOM      6  C   UNL     1      34.087 -21.386 -19.514  0.00  0.00    +0.031 C 
ATOM      7  C   UNL     1      34.656 -22.034 -18.409  0.00  0.00    +0.121 C 
ATOM      8  C   UNL     1      36.198 -20.432 -19.949  0.00  0.00    +0.125 C 
ATOM      9  C   UNL     1      36.011 -21.846 -18.114  0.00  0.00    +0.105 C 
ATOM     10  C   UNL     1      33.931 -22.874 -17.567  0.00  0.00    +0.201 C 
ATOM     11  C   UNL     1      35.764 -23.252 -16.312  0.00  0.00    +0.206 C 
ATOM     12  H   UNL     1      37.326 -23.740 -15.016  0.00  0.00    +0.156 HD
ATOM     13  H   UNL     1      35.839 -24.475 -14.621  0.00  0.00    +0.156 HD
ATOM     14  N   UNL     1      32.556 -23.098 -17.823  0.00  0.00    -0.332 N 
ATOM     15  H   UNL     1      32.036 -23.690 -17.232  0.00  0.00    +0.145 HD
ATOM     16  H   UNL     1      32.120 -22.663 -18.590  0.00  0.00    +0.145 HD
ENDROOT
BRANCH   5  17
ATOM     17  N   UNL     1      34.344 -19.897 -21.418  0.00  0.00    -0.301 N 
ATOM     18  C   UNL     1      32.925 -19.591 -21.495  0.00  0.00    +0.113 C 
BRANCH  17  19
ATOM     19  C   UNL     1      35.206 -19.482 -22.513  0.00  0.00    +0.118 C 
BRANCH  19  20
ATOM     20  C   UNL     1      34.911 -18.062 -22.907  0.00  0.00    +0.004 C 
ATOM     21  C   UNL     1      34.677 -17.757 -24.241  0.00  0.00    +0.034 C 
ATOM     22  C   UNL     1      34.875 -17.074 -21.932  0.00  0.00    +0.034 C 
ATOM     23  C   UNL     1      34.601 -15.756 -22.298  0.00  0.00    +0.142 C 
ATOM     24  C   UNL     1      34.403 -16.438 -24.608  0.00  0.00    +0.142 C 
ATOM     25  C   UNL     1      34.365 -15.438 -23.636  0.00  0.00    +0.074 C 
BRANCH  23  26
ATOM     26  O   UNL     1      34.564 -14.780 -21.350  0.00  0.00    -0.471 OA
ATOM     27  C   UNL     1      33.278 -14.295 -20.968  0.00  0.00    +0.252 C 
ENDBRANCH  23  26
BRANCH  24  28
ATOM     28  O   UNL     1      34.173 -16.129 -25.912  0.00  0.00    -0.471 OA
ATOM     29  C   UNL     1      33.152 -15.170 -26.182  0.00  0.00    +0.252 C 
ENDBRANCH  24  28
ENDBRANCH  19  20
ENDBRANCH  17  19
ENDBRANCH   5  17
TORSDOF 5
ENDMDL
MODEL 4
REMARK VINA RESULT:     -10.1      1.288      3.402
REMARK  Name = 447022
REMARK  5 active torsions:
REMARK  status: ('A' for Active; 'I' for Inactive)
REMARK    1  A    between atoms: C_5  and  N_17
REMARK    2  A    between atoms: N_17  and  C_19
REMARK    3  A    between atoms: C_19  and  C_20
REMARK    4  A    between atoms: C_23  and  O_26
REMARK    5  A    between atoms: C_24  and  O_28
REMARK                            x       y       z     vdW  Elec       q    Type
REMARK                         _______ _______ _______ _____ _____    ______ ____
ROOT
ATOM      1  N   UNL     1      36.876 -20.934 -18.894  0.00  0.00    -0.180 NA
ATOM      2  N   UNL     1      36.785 -22.353 -17.066  0.00  0.00    -0.273 NA
ATOM      3  N   UNL     1      34.758 -23.507 -16.469  0.00  0.00    -0.312 NA
ATOM      4  N   UNL     1      36.711 -23.786 -15.208  0.00  0.00    -0.283 N 
ATOM      5  C   UNL     1      34.931 -20.556 -20.276  0.00  0.00    +0.069 C 
ATOM      6  C   UNL     1      34.207 -21.418 -19.470  0.00  0.00    +0.031 C 
ATOM      7  C   UNL     1      34.834 -22.033 -18.376  0.00  0.00    +0.121 C 
ATOM      8  C   UNL     1      36.253 -20.349 -19.946  0.00  0.00    +0.125 C 
ATOM      9  C   UNL     1      36.182 -21.770 -18.108  0.00  0.00    +0.105 C 
ATOM     10  C   UNL     1      34.173 -22.911 -17.521  0.00  0.00    +0.201 C 
ATOM     11  C   UNL     1      36.048 -23.187 -16.302  0.00  0.00    +0.206 C 
ATOM     12  H   UNL     1      37.661 -23.586 -15.039  0.00  0.00    +0.156 HD
ATOM     13  H   UNL     1      36.225 -24.402 -14.615  0.00  0.00    +0.156 HD
ATOM     14  N   UNL     1      32.807 -23.211 -17.749  0.00  0.00    -0.332 N 
ATOM     15  H   UNL     1      32.333 -23.831 -17.149  0.00  0.00    +0.145 HD
ATOM     16  H   UNL     1      32.333 -22.801 -18.507  0.00  0.00    +0.145 HD
ENDROOT
BRANCH   5  17
ATOM     17  N   UNL     1      34.344 -19.918 -21.377  0.00  0.00    -0.301 N 
ATOM     18  C   UNL     1      32.928 -19.590 -21.378  0.00  0.00    +0.113 C 
BRANCH  17  19
ATOM     19  C   UNL     1      35.143 -19.557 -22.538  0.00  0.00    +0.118 C 
BRANCH  19  20
ATOM     20  C   UNL     1      34.887 -18.128 -22.929  0.00  0.00    +0.004 C 
ATOM     21  C   UNL     1      34.885 -17.140 -21.954  0.00  0.00    +0.034 C 
ATOM     22  C   UNL     1      34.657 -17.815 -24.263  0.00  0.00    +0.034 C 
ATOM     23  C   UNL     1      34.420 -16.489 -24.626  0.00  0.00    +0.142 C 
ATOM     24  C   UNL     1      34.647 -15.814 -22.318  0.00  0.00    +0.142 C 
ATOM     25  C   UNL     1      34.415 -15.489 -23.654  0.00  0.00    +0.074 C 
BRANCH  23  26
ATOM     26  O   UNL     1      34.194 -16.171 -25.931  0.00  0.00    -0.471 OA
ATOM     27  C   UNL     1      33.159 -15.226 -26.199  0.00  0.00    +0.252 C 
ENDBRANCH  23  26
BRANCH  24  28
ATOM     28  O   UNL     1      34.642 -14.839 -21.369  0.00  0.00    -0.471 OA
ATOM     29  C   UNL     1      33.386 -14.513 -20.778  0.00  0.00    +0.252 C 
ENDBRANCH  24  28
ENDBRANCH  19  20
ENDBRANCH  17  19
ENDBRANCH   5  17
TORSDOF 5
ENDMDL
MODEL 5
REMARK VINA RESULT:     -10.0      8.247     11.133
REMARK  Name = 447022
REMARK  5 active torsions:
REMARK  status: ('A' for Active; 'I' for Inactive)
REMARK    1  A    between atoms: C_5  and  N_17
REMARK    2  A    between atoms: N_17  and  C_19
REMARK    3  A    between atoms: C_19  and  C_20
REMARK    4  A    between atoms: C_23  and  O_26
REMARK    5  A    between atoms: C_24  and  O_28
REMARK                            x       y       z     vdW  Elec       q    Type
REMARK                         _______ _______ _______ _____ _____    ______ ____
ROOT
ATOM      1  N   UNL     1      32.063 -22.581 -17.510  0.00  0.00    -0.180 NA
ATOM      2  N   UNL     1      29.807 -22.539 -16.992  0.00  0.00    -0.273 NA
ATOM      3  N   UNL     1      28.970 -23.487 -14.942  0.00  0.00    -0.312 NA
ATOM      4  N   UNL     1      27.515 -22.490 -16.483  0.00  0.00    -0.283 N 
ATOM      5  C   UNL     1      33.669 -23.581 -16.009  0.00  0.00    +0.069 C 
ATOM      6  C   UNL     1      32.640 -23.892 -15.137  0.00  0.00    +0.031 C 
ATOM      7  C   UNL     1      31.324 -23.539 -15.466  0.00  0.00    +0.121 C 
ATOM      8  C   UNL     1      33.329 -22.930 -17.175  0.00  0.00    +0.125 C 
ATOM      9  C   UNL     1      31.061 -22.878 -16.671  0.00  0.00    +0.105 C 
ATOM     10  C   UNL     1      30.237 -23.817 -14.641  0.00  0.00    +0.201 C 
ATOM     11  C   UNL     1      28.829 -22.859 -16.117  0.00  0.00    +0.206 C 
ATOM     12  H   UNL     1      27.354 -22.026 -17.336  0.00  0.00    +0.156 HD
ATOM     13  H   UNL     1      26.761 -22.698 -15.886  0.00  0.00    +0.156 HD
ATOM     14  N   UNL     1      30.449 -24.485 -13.409  0.00  0.00    -0.332 N 
ATOM     15  H   UNL     1      29.686 -24.685 -12.821  0.00  0.00    +0.145 HD
ATOM     16  H   UNL     1      31.359 -24.747 -13.142  0.00  0.00    +0.145 HD
ENDROOT
BRANCH   5  17
ATOM     17  N   UNL     1      35.000 -23.918 -15.721  0.00  0.00    -0.301 N 
ATOM     18  C   UNL     1      36.060 -22.933 -15.852  0.00  0.00    +0.113 C 
BRANCH  17  19
ATOM     19  C   UNL     1      35.345 -25.257 -15.273  0.00  0.00    +0.118 C 
BRANCH  19  20
ATOM     20  C   UNL     1      36.402 -25.199 -14.206  0.00  0.00    +0.004 C 
ATOM     21  C   UNL     1      36.088 -24.674 -12.959  0.00  0.00    +0.034 C 
ATOM     22  C   UNL     1      37.679 -25.671 -14.479  0.00  0.00    +0.034 C 
ATOM     23  C   UNL     1      38.659 -25.618 -13.488  0.00  0.00    +0.142 C 
ATOM     24  C   UNL     1      37.069 -24.620 -11.968  0.00  0.00    +0.142 C 
ATOM     25  C   UNL     1      38.354 -25.092 -12.233  0.00  0.00    +0.074 C 
BRANCH  23  26
ATOM     26  O   UNL     1      39.914 -26.079 -13.747  0.00  0.00    -0.471 OA
ATOM     27  C   UNL     1      40.501 -25.701 -14.991  0.00  0.00    +0.252 C 
ENDBRANCH  23  26
BRANCH  24  28
ATOM     28  O   UNL     1      36.771 -24.108 -10.743  0.00  0.00    -0.471 OA
ATOM     29  C   UNL     1      35.482 -24.404 -10.211  0.00  0.00    +0.252 C 
ENDBRANCH  24  28
ENDBRANCH  19  20
ENDBRANCH  17  19
ENDBRANCH   5  17
TORSDOF 5
ENDMDL
MODEL 6
REMARK VINA RESULT:     -10.0      8.250     10.981
REMARK  Name = 447022
REMARK  5 active torsions:
REMARK  status: ('A' for Active; 'I' for Inactive)
REMARK    1  A    between atoms: C_5  and  N_17
REMARK    2  A    between atoms: N_17  and  C_19
REMARK    3  A    between atoms: C_19  and  C_20
REMARK    4  A    between atoms: C_23  and  O_26
REMARK    5  A    between atoms: C_24  and  O_28
REMARK                            x       y       z     vdW  Elec       q    Type
REMARK                         _______ _______ _______ _____ _____    ______ ____
ROOT
ATOM      1  N   UNL     1      32.033 -22.564 -17.509  0.00  0.00    -0.180 NA
ATOM      2  N   UNL     1      29.773 -22.512 -17.008  0.00  0.00    -0.273 NA
ATOM      3  N   UNL     1      28.913 -23.469 -14.973  0.00  0.00    -0.312 NA
ATOM      4  N   UNL     1      27.478 -22.451 -16.518  0.00  0.00    -0.283 N 
ATOM      5  C   UNL     1      33.621 -23.586 -16.002  0.00  0.00    +0.069 C 
ATOM      6  C   UNL     1      32.582 -23.896 -15.141  0.00  0.00    +0.031 C 
ATOM      7  C   UNL     1      31.271 -23.532 -15.478  0.00  0.00    +0.121 C 
ATOM      8  C   UNL     1      33.294 -22.923 -17.166  0.00  0.00    +0.125 C 
ATOM      9  C   UNL     1      31.022 -22.861 -16.680  0.00  0.00    +0.105 C 
ATOM     10  C   UNL     1      30.175 -23.809 -14.664  0.00  0.00    +0.201 C 
ATOM     11  C   UNL     1      28.786 -22.831 -16.144  0.00  0.00    +0.206 C 
ATOM     12  H   UNL     1      27.327 -21.979 -17.369  0.00  0.00    +0.156 HD
ATOM     13  H   UNL     1      26.718 -22.659 -15.929  0.00  0.00    +0.156 HD
ATOM     14  N   UNL     1      30.373 -24.487 -13.436  0.00  0.00    -0.332 N 
ATOM     15  H   UNL     1      29.604 -24.687 -12.855  0.00  0.00    +0.145 HD
ATOM     16  H   UNL     1      31.279 -24.757 -13.163  0.00  0.00    +0.145 HD
ENDROOT
BRANCH   5  17
ATOM     17  N   UNL     1      34.946 -23.933 -15.706  0.00  0.00    -0.301 N 
ATOM     18  C   UNL     1      36.013 -22.952 -15.814  0.00  0.00    +0.113 C 
BRANCH  17  19
ATOM     19  C   UNL     1      35.281 -25.280 -15.272  0.00  0.00    +0.118 C 
BRANCH  19  20
ATOM     20  C   UNL     1      36.369 -25.245 -14.236  0.00  0.00    +0.004 C 
ATOM     21  C   UNL     1      37.631 -25.731 -14.552  0.00  0.00    +0.034 C 
ATOM     22  C   UNL     1      36.099 -24.726 -12.977  0.00  0.00    +0.034 C 
ATOM     23  C   UNL     1      37.109 -24.693 -12.015  0.00  0.00    +0.142 C 
ATOM     24  C   UNL     1      38.641 -25.699 -13.589  0.00  0.00    +0.142 C 
ATOM     25  C   UNL     1      38.380 -25.179 -12.322  0.00  0.00    +0.074 C 
BRANCH  23  26
ATOM     26  O   UNL     1      36.855 -24.186 -10.778  0.00  0.00    -0.471 OA
ATOM     27  C   UNL     1      35.539 -24.369 -10.259  0.00  0.00    +0.252 C 
ENDBRANCH  23  26
BRANCH  24  28
ATOM     28  O   UNL     1      39.881 -26.174 -13.889  0.00  0.00    -0.471 OA
ATOM     29  C   UNL     1      40.544 -25.595 -15.011  0.00  0.00    +0.252 C 
ENDBRANCH  24  28
ENDBRANCH  19  20
ENDBRANCH  17  19
ENDBRANCH   5  17
TORSDOF 5
ENDMDL
MODEL 7
REMARK VINA RESULT:      -9.9      5.232      8.196
REMARK  Name = 447022
REMARK  5 active torsions:
REMARK  status: ('A' for Active; 'I' for Inactive)
REMARK    1  A    between atoms: C_5  and  N_17
REMARK    2  A    between atoms: N_17  and  C_19
REMARK    3  A    between atoms: C_19  and  C_20
REMARK    4  A    between atoms: C_23  and  O_26
REMARK    5  A    between atoms: C_24  and  O_28
REMARK                            x       y       z     vdW  Elec       q    Type
REMARK                         _______ _______ _______ _____ _____    ______ ____
ROOT
ATOM      1  N   UNL     1      33.540 -15.085 -20.947  0.00  0.00    -0.180 NA
ATOM      2  N   UNL     1      34.431 -16.554 -22.500  0.00  0.00    -0.273 NA
ATOM      3  N   UNL     1      34.220 -16.162 -24.866  0.00  0.00    -0.312 NA
ATOM      4  N   UNL     1      35.339 -18.055 -24.060  0.00  0.00    -0.283 N 
ATOM      5  C   UNL     1      32.359 -13.097 -21.646  0.00  0.00    +0.069 C 
ATOM      6  C   UNL     1      32.580 -13.447 -22.967  0.00  0.00    +0.031 C 
ATOM      7  C   UNL     1      33.285 -14.622 -23.263  0.00  0.00    +0.121 C 
ATOM      8  C   UNL     1      32.856 -13.946 -20.680  0.00  0.00    +0.125 C 
ATOM      9  C   UNL     1      33.758 -15.430 -22.224  0.00  0.00    +0.105 C 
ATOM     10  C   UNL     1      33.547 -15.039 -24.566  0.00  0.00    +0.201 C 
ATOM     11  C   UNL     1      34.627 -16.862 -23.799  0.00  0.00    +0.206 C 
ATOM     12  H   UNL     1      35.662 -18.608 -23.313  0.00  0.00    +0.156 HD
ATOM     13  H   UNL     1      35.511 -18.332 -24.988  0.00  0.00    +0.156 HD
ATOM     14  N   UNL     1      33.090 -14.255 -25.654  0.00  0.00    -0.332 N 
ATOM     15  H   UNL     1      33.271 -14.544 -26.578  0.00  0.00    +0.145 HD
ATOM     16  H   UNL     1      32.593 -13.423 -25.487  0.00  0.00    +0.145 HD
ENDROOT
BRANCH   5  17
ATOM     17  N   UNL     1      31.656 -11.933 -21.304  0.00  0.00    -0.301 N 
ATOM     18  C   UNL     1      31.453 -11.570 -19.911  0.00  0.00    +0.113 C 
BRANCH  17  19
ATOM     19  C   UNL     1      31.127 -11.056 -22.336  0.00  0.00    +0.118 C 
BRANCH  19  20
ATOM     20  C   UNL     1      32.033  -9.875 -22.539  0.00  0.00    +0.004 C 
ATOM     21  C   UNL     1      31.765  -8.684 -21.878  0.00  0.00    +0.034 C 
ATOM     22  C   UNL     1      33.129  -9.990 -23.385  0.00  0.00    +0.034 C 
ATOM     23  C   UNL     1      33.970  -8.893 -23.574  0.00  0.00    +0.142 C 
ATOM     24  C   UNL     1      32.606  -7.587 -22.068  0.00  0.00    +0.142 C 
ATOM     25  C   UNL     1      33.709  -7.692 -22.915  0.00  0.00    +0.074 C 
BRANCH  23  26
ATOM     26  O   UNL     1      35.047  -8.996 -24.401  0.00  0.00    -0.471 OA
ATOM     27  C   UNL     1      35.184 -10.208 -25.141  0.00  0.00    +0.252 C 
ENDBRANCH  23  26
BRANCH  24  28
ATOM     28  O   UNL     1      32.352  -6.415 -21.425  0.00  0.00    -0.471 OA
ATOM     29  C   UNL     1      31.399  -5.539 -22.024  0.00  0.00    +0.252 C 
ENDBRANCH  24  28
ENDBRANCH  19  20
ENDBRANCH  17  19
ENDBRANCH   5  17
TORSDOF 5
ENDMDL
MODEL 8
REMARK VINA RESULT:      -9.9      5.249      8.073
REMARK  Name = 447022
REMARK  5 active torsions:
REMARK  status: ('A' for Active; 'I' for Inactive)
REMARK    1  A    between atoms: C_5  and  N_17
REMARK    2  A    between atoms: N_17  and  C_19
REMARK    3  A    between atoms: C_19  and  C_20
REMARK    4  A    between atoms: C_23  and  O_26
REMARK    5  A    between atoms: C_24  and  O_28
REMARK                            x       y       z     vdW  Elec       q    Type
REMARK                         _______ _______ _______ _____ _____    ______ ____
ROOT
ATOM      1  N   UNL     1      33.562 -15.031 -20.922  0.00  0.00    -0.180 NA
ATOM      2  N   UNL     1      34.412 -16.480 -22.515  0.00  0.00    -0.273 NA
ATOM      3  N   UNL     1      34.128 -16.066 -24.871  0.00  0.00    -0.312 NA
ATOM      4  N   UNL     1      35.279 -17.961 -24.117  0.00  0.00    -0.283 N 
ATOM      5  C   UNL     1      32.352 -13.041 -21.565  0.00  0.00    +0.069 C 
ATOM      6  C   UNL     1      32.534 -13.377 -22.896  0.00  0.00    +0.031 C 
ATOM      7  C   UNL     1      33.236 -14.546 -23.225  0.00  0.00    +0.121 C 
ATOM      8  C   UNL     1      32.882 -13.897 -20.624  0.00  0.00    +0.125 C 
ATOM      9  C   UNL     1      33.743 -15.362 -22.208  0.00  0.00    +0.105 C 
ATOM     10  C   UNL     1      33.460 -14.950 -24.539  0.00  0.00    +0.201 C 
ATOM     11  C   UNL     1      34.570 -16.775 -23.823  0.00  0.00    +0.206 C 
ATOM     12  H   UNL     1      35.628 -18.520 -23.385  0.00  0.00    +0.156 HD
ATOM     13  H   UNL     1      35.425 -18.229 -25.053  0.00  0.00    +0.156 HD
ATOM     14  N   UNL     1      32.967 -14.157 -25.605  0.00  0.00    -0.332 N 
ATOM     15  H   UNL     1      33.121 -14.436 -26.537  0.00  0.00    +0.145 HD
ATOM     16  H   UNL     1      32.472 -13.329 -25.415  0.00  0.00    +0.145 HD
ENDROOT
BRANCH   5  17
ATOM     17  N   UNL     1      31.655 -11.884 -21.191  0.00  0.00    -0.301 N 
ATOM     18  C   UNL     1      31.521 -11.518 -19.791  0.00  0.00    +0.113 C 
BRANCH  17  19
ATOM     19  C   UNL     1      31.062 -11.017 -22.197  0.00  0.00    +0.118 C 
BRANCH  19  20
ATOM     20  C   UNL     1      31.971  -9.859 -22.496  0.00  0.00    +0.004 C 
ATOM     21  C   UNL     1      33.053 -10.039 -23.347  0.00  0.00    +0.034 C 
ATOM     22  C   UNL     1      31.716  -8.621 -21.919  0.00  0.00    +0.034 C 
ATOM     23  C   UNL     1      32.560  -7.546 -22.198  0.00  0.00    +0.142 C 
ATOM     24  C   UNL     1      33.897  -8.964 -23.625  0.00  0.00    +0.142 C 
ATOM     25  C   UNL     1      33.650  -7.717 -23.051  0.00  0.00    +0.074 C 
BRANCH  23  26
ATOM     26  O   UNL     1      32.319  -6.329 -21.637  0.00  0.00    -0.471 OA
ATOM     27  C   UNL     1      31.139  -5.644 -22.054  0.00  0.00    +0.252 C 
ENDBRANCH  23  26
BRANCH  24  28
ATOM     28  O   UNL     1      34.960  -9.131 -24.458  0.00  0.00    -0.471 OA
ATOM     29  C   UNL     1      35.039 -10.363 -25.172  0.00  0.00    +0.252 C 
ENDBRANCH  24  28
ENDBRANCH  19  20
ENDBRANCH  17  19
ENDBRANCH   5  17
TORSDOF 5
ENDMDL
MODEL 9
REMARK VINA RESULT:      -9.8      1.991      3.182
REMARK  Name = 447022
REMARK  5 active torsions:
REMARK  status: ('A' for Active; 'I' for Inactive)
REMARK    1  A    between atoms: C_5  and  N_17
REMARK    2  A    between atoms: N_17  and  C_19
REMARK    3  A    between atoms: C_19  and  C_20
REMARK    4  A    between atoms: C_23  and  O_26
REMARK    5  A    between atoms: C_24  and  O_28
REMARK                            x       y       z     vdW  Elec       q    Type
REMARK                         _______ _______ _______ _____ _____    ______ ____
ROOT
ATOM      1  N   UNL     1      33.633 -23.538 -17.796  0.00  0.00    -0.180 NA
ATOM      2  N   UNL     1      34.732 -24.289 -15.902  0.00  0.00    -0.273 NA
ATOM      3  N   UNL     1      36.774 -23.263 -15.142  0.00  0.00    -0.312 NA
ATOM      4  N   UNL     1      35.833 -25.064 -13.978  0.00  0.00    -0.283 N 
ATOM      5  C   UNL     1      34.499 -21.690 -19.090  0.00  0.00    +0.069 C 
ATOM      6  C   UNL     1      35.560 -21.587 -18.206  0.00  0.00    +0.031 C 
ATOM      7  C   UNL     1      35.643 -22.468 -17.119  0.00  0.00    +0.121 C 
ATOM      8  C   UNL     1      33.569 -22.677 -18.841  0.00  0.00    +0.125 C 
ATOM      9  C   UNL     1      34.657 -23.444 -16.936  0.00  0.00    +0.105 C 
ATOM     10  C   UNL     1      36.679 -22.426 -16.188  0.00  0.00    +0.201 C 
ATOM     11  C   UNL     1      35.780 -24.158 -15.061  0.00  0.00    +0.206 C 
ATOM     12  H   UNL     1      35.128 -25.743 -13.870  0.00  0.00    +0.156 HD
ATOM     13  H   UNL     1      36.575 -25.018 -13.333  0.00  0.00    +0.156 HD
ATOM     14  N   UNL     1      37.702 -21.456 -16.328  0.00  0.00    -0.332 N 
ATOM     15  H   UNL     1      38.437 -21.420 -15.674  0.00  0.00    +0.145 HD
ATOM     16  H   UNL     1      37.677 -20.818 -17.077  0.00  0.00    +0.145 HD
ENDROOT
BRANCH   5  17
ATOM     17  N   UNL     1      34.377 -20.832 -20.192  0.00  0.00    -0.301 N 
ATOM     18  C   UNL     1      33.073 -20.362 -20.626  0.00  0.00    +0.113 C 
BRANCH  17  19
ATOM     19  C   UNL     1      35.555 -20.384 -20.916  0.00  0.00    +0.118 C 
BRANCH  19  20
ATOM     20  C   UNL     1      35.296 -19.059 -21.576  0.00  0.00    +0.004 C 
ATOM     21  C   UNL     1      35.120 -19.002 -22.952  0.00  0.00    +0.034 C 
ATOM     22  C   UNL     1      35.235 -17.908 -20.801  0.00  0.00    +0.034 C 
ATOM     23  C   UNL     1      34.993 -16.678 -21.413  0.00  0.00    +0.142 C 
ATOM     24  C   UNL     1      34.879 -17.771 -23.565  0.00  0.00    +0.142 C 
ATOM     25  C   UNL     1      34.815 -16.610 -22.795  0.00  0.00    +0.074 C 
BRANCH  23  26
ATOM     26  O   UNL     1      34.931 -15.544 -20.662  0.00  0.00    -0.471 OA
ATOM     27  C   UNL     1      33.702 -14.821 -20.679  0.00  0.00    +0.252 C 
ENDBRANCH  23  26
BRANCH  24  28
ATOM     28  O   UNL     1      34.705 -17.705 -24.912  0.00  0.00    -0.471 OA
ATOM     29  C   UNL     1      34.214 -16.476 -25.445  0.00  0.00    +0.252 C 
ENDBRANCH  24  28
ENDBRANCH  19  20
ENDBRANCH  17  19
ENDBRANCH   5  17
TORSDOF 5
ENDMDL
