MODEL 1
REMARK VINA RESULT:      -9.9      0.000      0.000
REMARK  Name = 445505
REMARK  12 active torsions:
REMARK  status: ('A' for Active; 'I' for Inactive)
REMARK    1  A    between atoms: C_1  and  S_22
REMARK    2  A    between atoms: C_4  and  C_9
REMARK    3  A    between atoms: N_8  and  CA_11
REMARK    4  A    between atoms: CA_11  and  C_13
REMARK    5  A    between atoms: CA_11  and  CB_16
REMARK    6  A    between atoms: C_13  and  O_14
REMARK    7  A    between atoms: CB_16  and  CG_17
REMARK    8  A    between atoms: CG_17  and  CD_19
REMARK    9  A    between atoms: CD_19  and  OE1_20
REMARK   10  A    between atoms: S_22  and  N_25
REMARK   11  A    between atoms: C_26  and  C_31
REMARK   12  A    between atoms: C_31  and  O_32
REMARK                            x       y       z     vdW  Elec       q    Type
REMARK                         _______ _______ _______ _____ _____    ______ ____
ROOT
ATOM      1  C   UNL     1      34.703 -19.847 -21.251  0.00  0.00    +0.122 C 
ATOM      2  C   UNL     1      35.629 -20.546 -20.477  0.00  0.00    +0.020 C 
ATOM      3  C   UNL     1      33.337 -20.032 -21.043  0.00  0.00    +0.020 C 
ATOM      4  C   UNL     1      33.821 -21.616 -19.284  0.00  0.00    +0.053 C 
ATOM      5  C   UNL     1      35.187 -21.431 -19.492  0.00  0.00    +0.006 C 
ATOM      6  C   UNL     1      32.895 -20.917 -20.059  0.00  0.00    +0.006 C 
ENDROOT
BRANCH   4   9
ATOM      7  O   UNL     1      34.079 -23.487 -17.894  0.00  0.00    -0.270 OA
ATOM      8  N   UNL     1      32.102 -22.291 -17.698  0.00  0.00    -0.293 N 
ATOM      9  C   ACE A   0      33.361 -22.539 -18.258  0.00  0.00    +0.246 C 
ATOM     10  H   UNL     1      31.586 -21.523 -18.034  0.00  0.00    +0.150 HD
BRANCH   8  11
ATOM     11  CA  UNL     1      31.518 -23.102 -16.654  0.00  0.00    +0.172 C 
BRANCH  11  13
ATOM     12  OXT UNL     1      29.411 -21.940 -17.031  0.00  0.00    -0.248 OA
ATOM     13  C   UNL     1      30.012 -22.970 -16.761  0.00  0.00    +0.332 C 
BRANCH  13  14
ATOM     14  O   UNL     1      29.383 -24.158 -16.555  0.00  0.00    -0.479 OA
ATOM     15  H   UNL     1      28.553 -24.179 -16.120  0.00  0.00    +0.295 HD
ENDBRANCH  13  14
ENDBRANCH  11  13
BRANCH  11  16
ATOM     16  CB  UNL     1      32.072 -22.767 -15.265  0.00  0.00    +0.043 C 
BRANCH  16  17
ATOM     17  CG  UNL     1      31.297 -23.350 -14.077  0.00  0.00    +0.112 C 
BRANCH  17  19
ATOM     18  OE2 UNL     1      30.722 -25.695 -14.400  0.00  0.00    -0.250 OA
ATOM     19  CD  UNL     1      31.458 -24.846 -13.917  0.00  0.00    +0.314 C 
BRANCH  19  20
ATOM     20  OE1 UNL     1      32.517 -25.154 -13.124  0.00  0.00    -0.480 OA
ATOM     21  HE1 UNL     1      33.377 -25.209 -13.491  0.00  0.00    +0.295 HD
ENDBRANCH  19  20
ENDBRANCH  17  19
ENDBRANCH  16  17
ENDBRANCH  11  16
ENDBRANCH   8  11
ENDBRANCH   4   9
BRANCH   1  22
ATOM     22  S   UNL     1      35.263 -18.727 -22.500  0.00  0.00    +0.064 S 
ATOM     23  O   UNL     1      36.658 -18.434 -22.229  0.00  0.00    -0.153 OA
ATOM     24  O   UNL     1      34.860 -19.265 -23.785  0.00  0.00    -0.153 OA
BRANCH  22  25
ATOM     25  N   UNL     1      34.314 -17.363 -22.136  0.00  0.00    -0.146 NA
ATOM     26  C   UNL     1      34.777 -16.037 -22.630  0.00  0.00    +0.178 C 
ATOM     27  C   UNL     1      34.557 -15.065 -21.475  0.00  0.00    +0.031 C 
ATOM     28  C   UNL     1      33.850 -17.205 -20.731  0.00  0.00    +0.096 C 
ATOM     29  C   UNL     1      33.485 -15.734 -20.631  0.00  0.00    +0.021 C 
BRANCH  26  31
ATOM     30  O   UNL     1      33.082 -14.836 -23.854  0.00  0.00    -0.249 OA
ATOM     31  C   UNL     1      33.909 -15.734 -23.805  0.00  0.00    +0.330 C 
BRANCH  31  32
ATOM     32  O   UNL     1      34.159 -16.597 -24.820  0.00  0.00    -0.479 OA
ATOM     33  H   UNL     1      34.123 -16.299 -25.708  0.00  0.00    +0.295 HD
ENDBRANCH  31  32
ENDBRANCH  26  31
ENDBRANCH  22  25
ENDBRANCH   1  22
TORSDOF 12
ENDMDL
MODEL 2
REMARK VINA RESULT:      -9.7      4.054      9.808
REMARK  Name = 445505
REMARK  12 active torsions:
REMARK  status: ('A' for Active; 'I' for Inactive)
REMARK    1  A    between atoms: C_1  and  S_22
REMARK    2  A    between atoms: C_4  and  C_9
REMARK    3  A    between atoms: N_8  and  CA_11
REMARK    4  A    between atoms: CA_11  and  C_13
REMARK    5  A    between atoms: CA_11  and  CB_16
REMARK    6  A    between atoms: C_13  and  O_14
REMARK    7  A    between atoms: CB_16  and  CG_17
REMARK    8  A    between atoms: CG_17  and  CD_19
REMARK    9  A    between atoms: CD_19  and  OE1_20
REMARK   10  A    between atoms: S_22  and  N_25
REMARK   11  A    between atoms: C_26  and  C_31
REMARK   12  A    between atoms: C_31  and  O_32
REMARK                            x       y       z     vdW  Elec       q    Type
REMARK                         _______ _______ _______ _____ _____    ______ ____
ROOT
ATOM      1  C   UNL     1      35.402 -23.051 -16.538  0.00  0.00    +0.122 C 
ATOM      2  C   UNL     1      36.594 -22.331 -16.623  0.00  0.00    +0.020 C 
ATOM      3  C   UNL     1      34.456 -22.958 -17.559  0.00  0.00    +0.020 C 
ATOM      4  C   UNL     1      35.895 -21.426 -18.751  0.00  0.00    +0.053 C 
ATOM      5  C   UNL     1      36.840 -21.519 -17.730  0.00  0.00    +0.006 C 
ATOM      6  C   UNL     1      34.703 -22.146 -18.666  0.00  0.00    +0.006 C 
ENDROOT
BRANCH   4   9
ATOM      7  O   UNL     1      37.225 -20.668 -20.527  0.00  0.00    -0.270 OA
ATOM      8  N   UNL     1      35.136 -19.693 -20.282  0.00  0.00    -0.293 N 
ATOM      9  C   ACE A   0      36.152 -20.579 -19.905  0.00  0.00    +0.246 C 
ATOM     10  H   UNL     1      34.311 -19.674 -19.744  0.00  0.00    +0.150 HD
BRANCH   8  11
ATOM     11  CA  UNL     1      35.231 -18.805 -21.419  0.00  0.00    +0.172 C 
BRANCH  11  13
ATOM     12  OXT UNL     1      35.400 -16.666 -20.267  0.00  0.00    -0.248 OA
ATOM     13  C   UNL     1      34.761 -17.436 -20.970  0.00  0.00    +0.332 C 
BRANCH  13  14
ATOM     14  O   UNL     1      33.537 -17.130 -21.476  0.00  0.00    -0.479 OA
ATOM     15  H   UNL     1      33.466 -16.571 -22.225  0.00  0.00    +0.295 HD
ENDBRANCH  13  14
ENDBRANCH  11  13
BRANCH  11  16
ATOM     16  CB  UNL     1      34.493 -19.340 -22.651  0.00  0.00    +0.043 C 
BRANCH  16  17
ATOM     17  CG  UNL     1      35.168 -19.076 -24.003  0.00  0.00    +0.112 C 
BRANCH  17  19
ATOM     18  OE2 UNL     1      33.847 -17.763 -25.573  0.00  0.00    -0.250 OA
ATOM     19  CD  UNL     1      34.690 -17.814 -24.688  0.00  0.00    +0.314 C 
BRANCH  19  20
ATOM     20  OE1 UNL     1      35.345 -16.716 -24.228  0.00  0.00    -0.480 OA
ATOM     21  HE1 UNL     1      35.468 -15.975 -24.788  0.00  0.00    +0.295 HD
ENDBRANCH  19  20
ENDBRANCH  17  19
ENDBRANCH  16  17
ENDBRANCH  11  16
ENDBRANCH   8  11
ENDBRANCH   4   9
BRANCH   1  22
ATOM     22  S   UNL     1      35.088 -24.079 -15.134  0.00  0.00    +0.064 S 
ATOM     23  O   UNL     1      33.971 -23.500 -14.410  0.00  0.00    -0.153 OA
ATOM     24  O   UNL     1      35.032 -25.452 -15.599  0.00  0.00    -0.153 OA
BRANCH  22  25
ATOM     25  N   UNL     1      36.523 -23.840 -14.252  0.00  0.00    -0.146 NA
ATOM     26  C   UNL     1      37.377 -25.026 -13.970  0.00  0.00    +0.178 C 
ATOM     27  C   UNL     1      37.823 -24.880 -12.519  0.00  0.00    +0.031 C 
ATOM     28  C   UNL     1      36.438 -23.017 -13.015  0.00  0.00    +0.096 C 
ATOM     29  C   UNL     1      37.691 -23.391 -12.242  0.00  0.00    +0.021 C 
BRANCH  26  31
ATOM     30  O   UNL     1      39.036 -23.880 -15.293  0.00  0.00    -0.249 OA
ATOM     31  C   UNL     1      38.515 -24.924 -14.931  0.00  0.00    +0.330 C 
BRANCH  31  32
ATOM     32  O   UNL     1      38.895 -26.154 -15.354  0.00  0.00    -0.479 OA
ATOM     33  H   UNL     1      38.249 -26.812 -15.522  0.00  0.00    +0.295 HD
ENDBRANCH  31  32
ENDBRANCH  26  31
ENDBRANCH  22  25
ENDBRANCH   1  22
TORSDOF 12
ENDMDL
MODEL 3
REMARK VINA RESULT:      -9.6      1.258      1.795
REMARK  Name = 445505
REMARK  12 active torsions:
REMARK  status: ('A' for Active; 'I' for Inactive)
REMARK    1  A    between atoms: C_1  and  S_22
REMARK    2  A    between atoms: C_4  and  C_9
REMARK    3  A    between atoms: N_8  and  CA_11
REMARK    4  A    between atoms: CA_11  and  C_13
REMARK    5  A    between atoms: CA_11  and  CB_16
REMARK    6  A    between atoms: C_13  and  O_14
REMARK    7  A    between atoms: CB_16  and  CG_17
REMARK    8  A    between atoms: CG_17  and  CD_19
REMARK    9  A    between atoms: CD_19  and  OE1_20
REMARK   10  A    between atoms: S_22  and  N_25
REMARK   11  A    between atoms: C_26  and  C_31
REMARK   12  A    between atoms: C_31  and  O_32
REMARK                            x       y       z     vdW  Elec       q    Type
REMARK                         _______ _______ _______ _____ _____    ______ ____
ROOT
ATOM      1  C   UNL     1      34.785 -19.773 -21.304  0.00  0.00    +0.122 C 
ATOM      2  C   UNL     1      35.690 -20.549 -20.579  0.00  0.00    +0.020 C 
ATOM      3  C   UNL     1      33.413 -19.949 -21.124  0.00  0.00    +0.020 C 
ATOM      4  C   UNL     1      33.850 -21.677 -19.492  0.00  0.00    +0.053 C 
ATOM      5  C   UNL     1      35.221 -21.501 -19.673  0.00  0.00    +0.006 C 
ATOM      6  C   UNL     1      32.945 -20.900 -20.217  0.00  0.00    +0.006 C 
ENDROOT
BRANCH   4   9
ATOM      7  O   UNL     1      33.749 -23.849 -18.615  0.00  0.00    -0.270 OA
ATOM      8  N   UNL     1      32.471 -22.226 -17.563  0.00  0.00    -0.293 N 
ATOM      9  C   ACE A   0      33.362 -22.669 -18.547  0.00  0.00    +0.246 C 
ATOM     10  H   UNL     1      32.205 -21.277 -17.568  0.00  0.00    +0.150 HD
BRANCH   8  11
ATOM     11  CA  UNL     1      31.918 -23.084 -16.540  0.00  0.00    +0.172 C 
BRANCH  11  13
ATOM     12  OXT UNL     1      29.678 -22.419 -17.225  0.00  0.00    -0.248 OA
ATOM     13  C   UNL     1      30.474 -22.677 -16.332  0.00  0.00    +0.332 C 
BRANCH  13  14
ATOM     14  O   UNL     1      30.135 -22.664 -15.016  0.00  0.00    -0.479 OA
ATOM     15  H   UNL     1      30.375 -23.383 -14.463  0.00  0.00    +0.295 HD
ENDBRANCH  13  14
ENDBRANCH  11  13
BRANCH  11  16
ATOM     16  CB  UNL     1      32.752 -23.086 -15.254  0.00  0.00    +0.043 C 
BRANCH  16  17
ATOM     17  CG  UNL     1      33.909 -24.091 -15.208  0.00  0.00    +0.112 C 
BRANCH  17  19
ATOM     18  OE2 UNL     1      35.844 -23.030 -14.175  0.00  0.00    -0.250 OA
ATOM     19  CD  UNL     1      35.278 -23.446 -15.176  0.00  0.00    +0.314 C 
BRANCH  19  20
ATOM     20  OE1 UNL     1      35.810 -23.341 -16.422  0.00  0.00    -0.480 OA
ATOM     21  HE1 UNL     1      36.467 -22.697 -16.598  0.00  0.00    +0.295 HD
ENDBRANCH  19  20
ENDBRANCH  17  19
ENDBRANCH  16  17
ENDBRANCH  11  16
ENDBRANCH   8  11
ENDBRANCH   4   9
BRANCH   1  22
ATOM     22  S   UNL     1      35.378 -18.568 -22.454  0.00  0.00    +0.064 S 
ATOM     23  O   UNL     1      36.746 -18.251 -22.087  0.00  0.00    -0.153 OA
ATOM     24  O   UNL     1      35.066 -19.044 -23.789  0.00  0.00    -0.153 OA
BRANCH  22  25
ATOM     25  N   UNL     1      34.367 -17.255 -22.072  0.00  0.00    -0.146 NA
ATOM     26  C   UNL     1      34.752 -15.907 -22.572  0.00  0.00    +0.178 C 
ATOM     27  C   UNL     1      34.503 -14.948 -21.412  0.00  0.00    +0.031 C 
ATOM     28  C   UNL     1      33.921 -17.122 -20.659  0.00  0.00    +0.096 C 
ATOM     29  C   UNL     1      33.482 -15.672 -20.550  0.00  0.00    +0.021 C 
BRANCH  26  31
ATOM     30  O   UNL     1      33.004 -14.767 -23.780  0.00  0.00    -0.249 OA
ATOM     31  C   UNL     1      33.849 -15.648 -23.731  0.00  0.00    +0.330 C 
BRANCH  31  32
ATOM     32  O   UNL     1      34.089 -16.531 -24.732  0.00  0.00    -0.479 OA
ATOM     33  H   UNL     1      33.677 -16.417 -25.565  0.00  0.00    +0.295 HD
ENDBRANCH  31  32
ENDBRANCH  26  31
ENDBRANCH  22  25
ENDBRANCH   1  22
TORSDOF 12
ENDMDL
MODEL 4
REMARK VINA RESULT:      -9.3      4.772      8.355
REMARK  Name = 445505
REMARK  12 active torsions:
REMARK  status: ('A' for Active; 'I' for Inactive)
REMARK    1  A    between atoms: C_1  and  S_22
REMARK    2  A    between atoms: C_4  and  C_9
REMARK    3  A    between atoms: N_8  and  CA_11
REMARK    4  A    between atoms: CA_11  and  C_13
REMARK    5  A    between atoms: CA_11  and  CB_16
REMARK    6  A    between atoms: C_13  and  O_14
REMARK    7  A    between atoms: CB_16  and  CG_17
REMARK    8  A    between atoms: CG_17  and  CD_19
REMARK    9  A    between atoms: CD_19  and  OE1_20
REMARK   10  A    between atoms: S_22  and  N_25
REMARK   11  A    between atoms: C_26  and  C_31
REMARK   12  A    between atoms: C_31  and  O_32
REMARK                            x       y       z     vdW  Elec       q    Type
REMARK                         _______ _______ _______ _____ _____    ______ ____
ROOT
ATOM      1  C   UNL     1      31.960 -12.459 -21.470  0.00  0.00    +0.122 C 
ATOM      2  C   UNL     1      32.437 -13.038 -22.645  0.00  0.00    +0.020 C 
ATOM      3  C   UNL     1      32.234 -13.052 -20.238  0.00  0.00    +0.020 C 
ATOM      4  C   UNL     1      33.465 -14.804 -21.356  0.00  0.00    +0.053 C 
ATOM      5  C   UNL     1      33.191 -14.211 -22.588  0.00  0.00    +0.006 C 
ATOM      6  C   UNL     1      32.988 -14.225 -20.181  0.00  0.00    +0.006 C 
ENDROOT
BRANCH   4   9
ATOM      7  O   UNL     1      35.036 -16.229 -20.355  0.00  0.00    -0.270 OA
ATOM      8  N   UNL     1      34.058 -16.956 -22.327  0.00  0.00    -0.293 N 
ATOM      9  C   ACE A   0      34.251 -16.027 -21.297  0.00  0.00    +0.246 C 
ATOM     10  H   UNL     1      33.420 -16.732 -23.044  0.00  0.00    +0.150 HD
BRANCH   8  11
ATOM     11  CA  UNL     1      34.745 -18.226 -22.397  0.00  0.00    +0.172 C 
BRANCH  11  13
ATOM     12  OXT UNL     1      34.969 -19.610 -24.388  0.00  0.00    -0.248 OA
ATOM     13  C   UNL     1      35.035 -18.510 -23.857  0.00  0.00    +0.332 C 
BRANCH  13  14
ATOM     14  O   UNL     1      35.348 -17.377 -24.541  0.00  0.00    -0.479 OA
ATOM     15  H   UNL     1      35.999 -16.792 -24.205  0.00  0.00    +0.295 HD
ENDBRANCH  13  14
ENDBRANCH  11  13
BRANCH  11  16
ATOM     16  CB  UNL     1      33.982 -19.350 -21.687  0.00  0.00    +0.043 C 
BRANCH  16  17
ATOM     17  CG  UNL     1      34.744 -20.075 -20.571  0.00  0.00    +0.112 C 
BRANCH  17  19
ATOM     18  OE2 UNL     1      34.293 -22.169 -19.411  0.00  0.00    -0.250 OA
ATOM     19  CD  UNL     1      33.905 -21.080 -19.812  0.00  0.00    +0.314 C 
BRANCH  19  20
ATOM     20  OE1 UNL     1      32.627 -20.648 -19.654  0.00  0.00    -0.480 OA
ATOM     21  HE1 UNL     1      32.006 -20.758 -20.347  0.00  0.00    +0.295 HD
ENDBRANCH  19  20
ENDBRANCH  17  19
ENDBRANCH  16  17
ENDBRANCH  11  16
ENDBRANCH   8  11
ENDBRANCH   4   9
BRANCH   1  22
ATOM     22  S   UNL     1      31.004 -10.973 -21.542  0.00  0.00    +0.064 S 
ATOM     23  O   UNL     1      30.214 -11.021 -22.759  0.00  0.00    -0.153 OA
ATOM     24  O   UNL     1      30.360 -10.802 -20.253  0.00  0.00    -0.153 OA
BRANCH  22  25
ATOM     25  N   UNL     1      32.241  -9.819 -21.712  0.00  0.00    -0.146 NA
ATOM     26  C   UNL     1      31.934  -8.406 -21.360  0.00  0.00    +0.178 C 
ATOM     27  C   UNL     1      32.572  -7.558 -22.455  0.00  0.00    +0.031 C 
ATOM     28  C   UNL     1      33.018  -9.829 -22.981  0.00  0.00    +0.096 C 
ATOM     29  C   UNL     1      33.659  -8.452 -23.026  0.00  0.00    +0.021 C 
BRANCH  26  31
ATOM     30  O   UNL     1      32.961  -7.113 -19.603  0.00  0.00    -0.249 OA
ATOM     31  C   UNL     1      32.569  -8.189 -20.027  0.00  0.00    +0.330 C 
BRANCH  31  32
ATOM     32  O   UNL     1      32.657  -9.356 -19.343  0.00  0.00    -0.479 OA
ATOM     33  H   UNL     1      32.822  -9.347 -18.421  0.00  0.00    +0.295 HD
ENDBRANCH  31  32
ENDBRANCH  26  31
ENDBRANCH  22  25
ENDBRANCH   1  22
TORSDOF 12
ENDMDL
MODEL 5
REMARK VINA RESULT:      -9.2      2.568      9.670
REMARK  Name = 445505
REMARK  12 active torsions:
REMARK  status: ('A' for Active; 'I' for Inactive)
REMARK    1  A    between atoms: C_1  and  S_22
REMARK    2  A    between atoms: C_4  and  C_9
REMARK    3  A    between atoms: N_8  and  CA_11
REMARK    4  A    between atoms: CA_11  and  C_13
REMARK    5  A    between atoms: CA_11  and  CB_16
REMARK    6  A    between atoms: C_13  and  O_14
REMARK    7  A    between atoms: CB_16  and  CG_17
REMARK    8  A    between atoms: CG_17  and  CD_19
REMARK    9  A    between atoms: CD_19  and  OE1_20
REMARK   10  A    between atoms: S_22  and  N_25
REMARK   11  A    between atoms: C_26  and  C_31
REMARK   12  A    between atoms: C_31  and  O_32
REMARK                            x       y       z     vdW  Elec       q    Type
REMARK                         _______ _______ _______ _____ _____    ______ ____
ROOT
ATOM      1  C   UNL     1      34.045 -21.835 -19.247  0.00  0.00    +0.122 C 
ATOM      2  C   UNL     1      35.343 -21.663 -19.728  0.00  0.00    +0.020 C 
ATOM      3  C   UNL     1      33.035 -20.954 -19.633  0.00  0.00    +0.020 C 
ATOM      4  C   UNL     1      34.621 -19.729 -20.983  0.00  0.00    +0.053 C 
ATOM      5  C   UNL     1      35.631 -20.610 -20.597  0.00  0.00    +0.006 C 
ATOM      6  C   UNL     1      33.323 -19.901 -20.502  0.00  0.00    +0.006 C 
ENDROOT
BRANCH   4   9
ATOM      7  O   UNL     1      35.589 -18.827 -22.919  0.00  0.00    -0.270 OA
ATOM      8  N   UNL     1      34.410 -17.372 -21.553  0.00  0.00    -0.293 N 
ATOM      9  C   ACE A   0      34.922 -18.631 -21.888  0.00  0.00    +0.246 C 
ATOM     10  H   UNL     1      33.890 -17.287 -20.720  0.00  0.00    +0.150 HD
BRANCH   8  11
ATOM     11  CA  UNL     1      34.602 -16.189 -22.361  0.00  0.00    +0.172 C 
BRANCH  11  13
ATOM     12  OXT UNL     1      34.951 -14.981 -20.276  0.00  0.00    -0.248 OA
ATOM     13  C   UNL     1      34.562 -14.990 -21.436  0.00  0.00    +0.332 C 
BRANCH  13  14
ATOM     14  O   UNL     1      34.068 -13.887 -22.057  0.00  0.00    -0.479 OA
ATOM     15  H   UNL     1      34.649 -13.298 -22.497  0.00  0.00    +0.295 HD
ENDBRANCH  13  14
ENDBRANCH  11  13
BRANCH  11  16
ATOM     16  CB  UNL     1      33.612 -16.104 -23.529  0.00  0.00    +0.043 C 
BRANCH  16  17
ATOM     17  CG  UNL     1      34.232 -15.939 -24.922  0.00  0.00    +0.112 C 
BRANCH  17  19
ATOM     18  OE2 UNL     1      33.514 -14.932 -27.020  0.00  0.00    -0.250 OA
ATOM     19  CD  UNL     1      33.510 -14.938 -25.797  0.00  0.00    +0.314 C 
BRANCH  19  20
ATOM     20  OE1 UNL     1      32.869 -13.996 -25.056  0.00  0.00    -0.480 OA
ATOM     21  HE1 UNL     1      33.363 -13.399 -24.530  0.00  0.00    +0.295 HD
ENDBRANCH  19  20
ENDBRANCH  17  19
ENDBRANCH  16  17
ENDBRANCH  11  16
ENDBRANCH   8  11
ENDBRANCH   4   9
BRANCH   1  22
ATOM     22  S   UNL     1      33.680 -23.168 -18.145  0.00  0.00    +0.064 S 
ATOM     23  O   UNL     1      32.524 -22.780 -17.358  0.00  0.00    -0.153 OA
ATOM     24  O   UNL     1      33.661 -24.391 -18.926  0.00  0.00    -0.153 OA
BRANCH  22  25
ATOM     25  N   UNL     1      35.070 -23.146 -17.165  0.00  0.00    -0.146 NA
ATOM     26  C   UNL     1      34.885 -23.176 -15.688  0.00  0.00    +0.178 C 
ATOM     27  C   UNL     1      35.879 -22.164 -15.126  0.00  0.00    +0.031 C 
ATOM     28  C   UNL     1      36.120 -22.143 -17.487  0.00  0.00    +0.096 C 
ATOM     29  C   UNL     1      36.937 -22.048 -16.210  0.00  0.00    +0.021 C 
BRANCH  26  31
ATOM     30  O   UNL     1      36.132 -25.239 -15.721  0.00  0.00    -0.249 OA
ATOM     31  C   UNL     1      35.204 -24.576 -15.283  0.00  0.00    +0.330 C 
BRANCH  31  32
ATOM     32  O   UNL     1      34.318 -25.021 -14.359  0.00  0.00    -0.479 OA
ATOM     33  H   UNL     1      33.512 -25.413 -14.634  0.00  0.00    +0.295 HD
ENDBRANCH  31  32
ENDBRANCH  26  31
ENDBRANCH  22  25
ENDBRANCH   1  22
TORSDOF 12
ENDMDL
MODEL 6
REMARK VINA RESULT:      -9.1      6.886      9.169
REMARK  Name = 445505
REMARK  12 active torsions:
REMARK  status: ('A' for Active; 'I' for Inactive)
REMARK    1  A    between atoms: C_1  and  S_22
REMARK    2  A    between atoms: C_4  and  C_9
REMARK    3  A    between atoms: N_8  and  CA_11
REMARK    4  A    between atoms: CA_11  and  C_13
REMARK    5  A    between atoms: CA_11  and  CB_16
REMARK    6  A    between atoms: C_13  and  O_14
REMARK    7  A    between atoms: CB_16  and  CG_17
REMARK    8  A    between atoms: CG_17  and  CD_19
REMARK    9  A    between atoms: CD_19  and  OE1_20
REMARK   10  A    between atoms: S_22  and  N_25
REMARK   11  A    between atoms: C_26  and  C_31
REMARK   12  A    between atoms: C_31  and  O_32
REMARK                            x       y       z     vdW  Elec       q    Type
REMARK                         _______ _______ _______ _____ _____    ______ ____
ROOT
ATOM      1  C   UNL     1      35.658 -23.636 -13.477  0.00  0.00    +0.122 C 
ATOM      2  C   UNL     1      34.547 -24.050 -12.742  0.00  0.00    +0.020 C 
ATOM      3  C   UNL     1      35.497 -23.171 -14.782  0.00  0.00    +0.020 C 
ATOM      4  C   UNL     1      33.114 -23.531 -14.616  0.00  0.00    +0.053 C 
ATOM      5  C   UNL     1      33.275 -23.996 -13.311  0.00  0.00    +0.006 C 
ATOM      6  C   UNL     1      34.225 -23.118 -15.352  0.00  0.00    +0.006 C 
ENDROOT
BRANCH   4   9
ATOM      7  O   UNL     1      31.650 -23.391 -16.442  0.00  0.00    -0.270 OA
ATOM      8  N   UNL     1      30.696 -23.549 -14.335  0.00  0.00    -0.293 N 
ATOM      9  C   ACE A   0      31.787 -23.477 -15.210  0.00  0.00    +0.246 C 
ATOM     10  H   UNL     1      30.877 -23.616 -13.369  0.00  0.00    +0.150 HD
BRANCH   8  11
ATOM     11  CA  UNL     1      29.319 -23.532 -14.772  0.00  0.00    +0.172 C 
BRANCH  11  13
ATOM     12  OXT UNL     1      28.609 -25.074 -16.518  0.00  0.00    -0.248 OA
ATOM     13  C   UNL     1      29.014 -24.886 -15.379  0.00  0.00    +0.332 C 
BRANCH  13  14
ATOM     14  O   UNL     1      29.280 -25.901 -14.514  0.00  0.00    -0.479 OA
ATOM     15  H   UNL     1      29.885 -26.574 -14.754  0.00  0.00    +0.295 HD
ENDBRANCH  13  14
ENDBRANCH  11  13
BRANCH  11  16
ATOM     16  CB  UNL     1      29.008 -22.353 -15.701  0.00  0.00    +0.043 C 
BRANCH  16  17
ATOM     17  CG  UNL     1      27.521 -22.039 -15.910  0.00  0.00    +0.112 C 
BRANCH  17  19
ATOM     18  OE2 UNL     1      26.537 -20.989 -17.875  0.00  0.00    -0.250 OA
ATOM     19  CD  UNL     1      27.117 -21.937 -17.365  0.00  0.00    +0.314 C 
BRANCH  19  20
ATOM     20  OE1 UNL     1      27.443 -23.061 -18.054  0.00  0.00    -0.480 OA
ATOM     21  HE1 UNL     1      27.073 -23.216 -18.901  0.00  0.00    +0.295 HD
ENDBRANCH  19  20
ENDBRANCH  17  19
ENDBRANCH  16  17
ENDBRANCH  11  16
ENDBRANCH   8  11
ENDBRANCH   4   9
BRANCH   1  22
ATOM     22  S   UNL     1      37.271 -23.704 -12.756  0.00  0.00    +0.064 S 
ATOM     23  O   UNL     1      38.040 -22.602 -13.303  0.00  0.00    -0.153 OA
ATOM     24  O   UNL     1      37.105 -23.846 -11.322  0.00  0.00    -0.153 OA
BRANCH  22  25
ATOM     25  N   UNL     1      37.836 -25.171 -13.407  0.00  0.00    -0.146 NA
ATOM     26  C   UNL     1      38.273 -25.182 -14.830  0.00  0.00    +0.178 C 
ATOM     27  C   UNL     1      37.710 -26.469 -15.425  0.00  0.00    +0.031 C 
ATOM     28  C   UNL     1      37.025 -26.391 -13.154  0.00  0.00    +0.096 C 
ATOM     29  C   UNL     1      37.494 -27.368 -14.220  0.00  0.00    +0.021 C 
BRANCH  26  31
ATOM     30  O   UNL     1      40.436 -24.723 -13.867  0.00  0.00    -0.249 OA
ATOM     31  C   UNL     1      39.765 -25.181 -14.780  0.00  0.00    +0.330 C 
BRANCH  31  32
ATOM     32  O   UNL     1      40.282 -25.757 -15.893  0.00  0.00    -0.479 OA
ATOM     33  H   UNL     1      41.077 -25.429 -16.263  0.00  0.00    +0.295 HD
ENDBRANCH  31  32
ENDBRANCH  26  31
ENDBRANCH  22  25
ENDBRANCH   1  22
TORSDOF 12
ENDMDL
MODEL 7
REMARK VINA RESULT:      -9.0      2.608      9.113
REMARK  Name = 445505
REMARK  12 active torsions:
REMARK  status: ('A' for Active; 'I' for Inactive)
REMARK    1  A    between atoms: C_1  and  S_22
REMARK    2  A    between atoms: C_4  and  C_9
REMARK    3  A    between atoms: N_8  and  CA_11
REMARK    4  A    between atoms: CA_11  and  C_13
REMARK    5  A    between atoms: CA_11  and  CB_16
REMARK    6  A    between atoms: C_13  and  O_14
REMARK    7  A    between atoms: CB_16  and  CG_17
REMARK    8  A    between atoms: CG_17  and  CD_19
REMARK    9  A    between atoms: CD_19  and  OE1_20
REMARK   10  A    between atoms: S_22  and  N_25
REMARK   11  A    between atoms: C_26  and  C_31
REMARK   12  A    between atoms: C_31  and  O_32
REMARK                            x       y       z     vdW  Elec       q    Type
REMARK                         _______ _______ _______ _____ _____    ______ ____
ROOT
ATOM      1  C   UNL     1      34.121 -21.849 -19.228  0.00  0.00    +0.122 C 
ATOM      2  C   UNL     1      35.430 -21.713 -19.693  0.00  0.00    +0.020 C 
ATOM      3  C   UNL     1      33.136 -20.954 -19.645  0.00  0.00    +0.020 C 
ATOM      4  C   UNL     1      34.767 -19.787 -20.993  0.00  0.00    +0.053 C 
ATOM      5  C   UNL     1      35.752 -20.682 -20.576  0.00  0.00    +0.006 C 
ATOM      6  C   UNL     1      33.459 -19.923 -20.528  0.00  0.00    +0.006 C 
ENDROOT
BRANCH   4   9
ATOM      7  O   UNL     1      36.288 -18.371 -22.078  0.00  0.00    -0.270 OA
ATOM      8  N   UNL     1      34.045 -18.115 -22.607  0.00  0.00    -0.293 N 
ATOM      9  C   ACE A   0      35.104 -18.713 -21.914  0.00  0.00    +0.246 C 
ATOM     10  H   UNL     1      33.131 -18.435 -22.428  0.00  0.00    +0.150 HD
BRANCH   8  11
ATOM     11  CA  UNL     1      34.221 -17.053 -23.572  0.00  0.00    +0.172 C 
BRANCH  11  13
ATOM     12  OXT UNL     1      34.506 -18.863 -25.175  0.00  0.00    -0.248 OA
ATOM     13  C   UNL     1      34.659 -17.687 -24.876  0.00  0.00    +0.332 C 
BRANCH  13  14
ATOM     14  O   UNL     1      35.223 -16.779 -25.716  0.00  0.00    -0.479 OA
ATOM     15  H   UNL     1      35.984 -17.009 -26.212  0.00  0.00    +0.295 HD
ENDBRANCH  13  14
ENDBRANCH  11  13
BRANCH  11  16
ATOM     16  CB  UNL     1      35.161 -15.949 -23.072  0.00  0.00    +0.043 C 
BRANCH  16  17
ATOM     17  CG  UNL     1      34.492 -14.780 -22.340  0.00  0.00    +0.112 C 
BRANCH  17  19
ATOM     18  OE2 UNL     1      34.970 -15.502 -20.063  0.00  0.00    -0.250 OA
ATOM     19  CD  UNL     1      34.178 -15.068 -20.888  0.00  0.00    +0.314 C 
BRANCH  19  20
ATOM     20  OE1 UNL     1      32.873 -14.822 -20.600  0.00  0.00    -0.480 OA
ATOM     21  HE1 UNL     1      32.211 -15.426 -20.873  0.00  0.00    +0.295 HD
ENDBRANCH  19  20
ENDBRANCH  17  19
ENDBRANCH  16  17
ENDBRANCH  11  16
ENDBRANCH   8  11
ENDBRANCH   4   9
BRANCH   1  22
ATOM     22  S   UNL     1      33.713 -23.154 -18.108  0.00  0.00    +0.064 S 
ATOM     23  O   UNL     1      32.563 -22.721 -17.335  0.00  0.00    -0.153 OA
ATOM     24  O   UNL     1      33.665 -24.388 -18.869  0.00  0.00    -0.153 OA
BRANCH  22  25
ATOM     25  N   UNL     1      35.096 -23.154 -17.118  0.00  0.00    -0.146 NA
ATOM     26  C   UNL     1      34.902 -23.239 -15.644  0.00  0.00    +0.178 C 
ATOM     27  C   UNL     1      35.882 -22.240 -15.039  0.00  0.00    +0.031 C 
ATOM     28  C   UNL     1      36.138 -22.129 -17.396  0.00  0.00    +0.096 C 
ATOM     29  C   UNL     1      36.946 -22.073 -16.111  0.00  0.00    +0.021 C 
BRANCH  26  31
ATOM     30  O   UNL     1      36.146 -25.301 -15.774  0.00  0.00    -0.249 OA
ATOM     31  C   UNL     1      35.232 -24.650 -15.289  0.00  0.00    +0.330 C 
BRANCH  31  32
ATOM     32  O   UNL     1      34.375 -25.121 -14.350  0.00  0.00    -0.479 OA
ATOM     33  H   UNL     1      33.500 -25.353 -14.590  0.00  0.00    +0.295 HD
ENDBRANCH  31  32
ENDBRANCH  26  31
ENDBRANCH  22  25
ENDBRANCH   1  22
TORSDOF 12
ENDMDL
MODEL 8
REMARK VINA RESULT:      -8.9      1.494      2.684
REMARK  Name = 445505
REMARK  12 active torsions:
REMARK  status: ('A' for Active; 'I' for Inactive)
REMARK    1  A    between atoms: C_1  and  S_22
REMARK    2  A    between atoms: C_4  and  C_9
REMARK    3  A    between atoms: N_8  and  CA_11
REMARK    4  A    between atoms: CA_11  and  C_13
REMARK    5  A    between atoms: CA_11  and  CB_16
REMARK    6  A    between atoms: C_13  and  O_14
REMARK    7  A    between atoms: CB_16  and  CG_17
REMARK    8  A    between atoms: CG_17  and  CD_19
REMARK    9  A    between atoms: CD_19  and  OE1_20
REMARK   10  A    between atoms: S_22  and  N_25
REMARK   11  A    between atoms: C_26  and  C_31
REMARK   12  A    between atoms: C_31  and  O_32
REMARK                            x       y       z     vdW  Elec       q    Type
REMARK                         _______ _______ _______ _____ _____    ______ ____
ROOT
ATOM      1  C   UNL     1      35.078 -19.768 -21.353  0.00  0.00    +0.122 C 
ATOM      2  C   UNL     1      36.100 -20.347 -20.599  0.00  0.00    +0.020 C 
ATOM      3  C   UNL     1      33.747 -20.073 -21.071  0.00  0.00    +0.020 C 
ATOM      4  C   UNL     1      34.458 -21.532 -19.282  0.00  0.00    +0.053 C 
ATOM      5  C   UNL     1      35.790 -21.228 -19.563  0.00  0.00    +0.006 C 
ATOM      6  C   UNL     1      33.436 -20.954 -20.035  0.00  0.00    +0.006 C 
ENDROOT
BRANCH   4   9
ATOM      7  O   UNL     1      33.323 -23.376 -18.382  0.00  0.00    -0.270 OA
ATOM      8  N   UNL     1      34.794 -22.257 -16.983  0.00  0.00    -0.293 N 
ATOM      9  C   ACE A   0      34.135 -22.452 -18.202  0.00  0.00    +0.246 C 
ATOM     10  H   UNL     1      35.426 -21.504 -16.910  0.00  0.00    +0.150 HD
BRANCH   8  11
ATOM     11  CA  UNL     1      34.599 -23.100 -15.825  0.00  0.00    +0.172 C 
BRANCH  11  13
ATOM     12  OXT UNL     1      35.615 -25.297 -15.553  0.00  0.00    -0.248 OA
ATOM     13  C   UNL     1      35.735 -24.103 -15.793  0.00  0.00    +0.332 C 
BRANCH  13  14
ATOM     14  O   UNL     1      36.927 -23.528 -16.102  0.00  0.00    -0.479 OA
ATOM     15  H   UNL     1      37.443 -23.128 -15.429  0.00  0.00    +0.295 HD
ENDBRANCH  13  14
ENDBRANCH  11  13
BRANCH  11  16
ATOM     16  CB  UNL     1      33.207 -23.740 -15.787  0.00  0.00    +0.043 C 
BRANCH  16  17
ATOM     17  CG  UNL     1      32.142 -22.979 -14.988  0.00  0.00    +0.112 C 
BRANCH  17  19
ATOM     18  OE2 UNL     1      29.723 -23.237 -15.120  0.00  0.00    -0.250 OA
ATOM     19  CD  UNL     1      30.784 -22.948 -15.655  0.00  0.00    +0.314 C 
BRANCH  19  20
ATOM     20  OE1 UNL     1      30.878 -22.590 -16.963  0.00  0.00    -0.480 OA
ATOM     21  HE1 UNL     1      30.683 -23.213 -17.635  0.00  0.00    +0.295 HD
ENDBRANCH  19  20
ENDBRANCH  17  19
ENDBRANCH  16  17
ENDBRANCH  11  16
ENDBRANCH   8  11
ENDBRANCH   4   9
BRANCH   1  22
ATOM     22  S   UNL     1      35.471 -18.652 -22.666  0.00  0.00    +0.064 S 
ATOM     23  O   UNL     1      36.874 -18.302 -22.536  0.00  0.00    -0.153 OA
ATOM     24  O   UNL     1      34.969 -19.229 -23.898  0.00  0.00    -0.153 OA
BRANCH  22  25
ATOM     25  N   UNL     1      34.510 -17.318 -22.233  0.00  0.00    -0.146 NA
ATOM     26  C   UNL     1      34.881 -15.983 -22.776  0.00  0.00    +0.178 C 
ATOM     27  C   UNL     1      34.725 -15.006 -21.615  0.00  0.00    +0.031 C 
ATOM     28  C   UNL     1      34.162 -17.161 -20.796  0.00  0.00    +0.096 C 
ATOM     29  C   UNL     1      33.754 -15.702 -20.677  0.00  0.00    +0.021 C 
BRANCH  26  31
ATOM     30  O   UNL     1      33.074 -14.828 -23.879  0.00  0.00    -0.249 OA
ATOM     31  C   UNL     1      33.905 -15.723 -23.875  0.00  0.00    +0.330 C 
BRANCH  31  32
ATOM     32  O   UNL     1      34.063 -16.622 -24.877  0.00  0.00    -0.479 OA
ATOM     33  H   UNL     1      33.603 -17.438 -24.851  0.00  0.00    +0.295 HD
ENDBRANCH  31  32
ENDBRANCH  26  31
ENDBRANCH  22  25
ENDBRANCH   1  22
TORSDOF 12
ENDMDL
MODEL 9
REMARK VINA RESULT:      -8.9      4.684      6.291
REMARK  Name = 445505
REMARK  12 active torsions:
REMARK  status: ('A' for Active; 'I' for Inactive)
REMARK    1  A    between atoms: C_1  and  S_22
REMARK    2  A    between atoms: C_4  and  C_9
REMARK    3  A    between atoms: N_8  and  CA_11
REMARK    4  A    between atoms: CA_11  and  C_13
REMARK    5  A    between atoms: CA_11  and  CB_16
REMARK    6  A    between atoms: C_13  and  O_14
REMARK    7  A    between atoms: CB_16  and  CG_17
REMARK    8  A    between atoms: CG_17  and  CD_19
REMARK    9  A    between atoms: CD_19  and  OE1_20
REMARK   10  A    between atoms: S_22  and  N_25
REMARK   11  A    between atoms: C_26  and  C_31
REMARK   12  A    between atoms: C_31  and  O_32
REMARK                            x       y       z     vdW  Elec       q    Type
REMARK                         _______ _______ _______ _____ _____    ______ ____
ROOT
ATOM      1  C   UNL     1      34.871 -22.403 -17.944  0.00  0.00    +0.122 C 
ATOM      2  C   UNL     1      36.191 -21.956 -17.997  0.00  0.00    +0.020 C 
ATOM      3  C   UNL     1      34.435 -23.167 -16.861  0.00  0.00    +0.020 C 
ATOM      4  C   UNL     1      36.640 -23.035 -15.882  0.00  0.00    +0.053 C 
ATOM      5  C   UNL     1      37.076 -22.272 -16.965  0.00  0.00    +0.006 C 
ATOM      6  C   UNL     1      35.320 -23.483 -15.830  0.00  0.00    +0.006 C 
ENDROOT
BRANCH   4   9
ATOM      7  O   UNL     1      37.694 -22.605 -13.832  0.00  0.00    -0.270 OA
ATOM      8  N   UNL     1      38.264 -24.572 -14.920  0.00  0.00    -0.293 N 
ATOM      9  C   ACE A   0      37.563 -23.365 -14.808  0.00  0.00    +0.246 C 
ATOM     10  H   UNL     1      38.113 -25.126 -15.720  0.00  0.00    +0.150 HD
BRANCH   8  11
ATOM     11  CA  UNL     1      39.197 -25.050 -13.925  0.00  0.00    +0.172 C 
BRANCH  11  13
ATOM     12  OXT UNL     1      41.112 -26.544 -14.106  0.00  0.00    -0.248 OA
ATOM     13  C   UNL     1      40.273 -25.836 -14.646  0.00  0.00    +0.332 C 
BRANCH  13  14
ATOM     14  O   UNL     1      40.182 -25.698 -15.995  0.00  0.00    -0.479 OA
ATOM     15  H   UNL     1      40.747 -25.100 -16.444  0.00  0.00    +0.295 HD
ENDBRANCH  13  14
ENDBRANCH  11  13
BRANCH  11  16
ATOM     16  CB  UNL     1      38.512 -25.829 -12.797  0.00  0.00    +0.043 C 
BRANCH  16  17
ATOM     17  CG  UNL     1      36.979 -25.847 -12.830  0.00  0.00    +0.112 C 
BRANCH  17  19
ATOM     18  OE2 UNL     1      36.933 -24.298 -10.950  0.00  0.00    -0.250 OA
ATOM     19  CD  UNL     1      36.334 -24.975 -11.775  0.00  0.00    +0.314 C 
BRANCH  19  20
ATOM     20  OE1 UNL     1      34.979 -25.056 -11.818  0.00  0.00    -0.480 OA
ATOM     21  HE1 UNL     1      34.554 -25.879 -11.681  0.00  0.00    +0.295 HD
ENDBRANCH  19  20
ENDBRANCH  17  19
ENDBRANCH  16  17
ENDBRANCH  11  16
ENDBRANCH   8  11
ENDBRANCH   4   9
BRANCH   1  22
ATOM     22  S   UNL     1      33.750 -22.004 -19.252  0.00  0.00    +0.064 S 
ATOM     23  O   UNL     1      33.813 -23.079 -20.224  0.00  0.00    -0.153 OA
ATOM     24  O   UNL     1      32.485 -21.632 -18.648  0.00  0.00    -0.153 OA
BRANCH  22  25
ATOM     25  N   UNL     1      34.502 -20.617 -19.888  0.00  0.00    -0.146 NA
ATOM     26  C   UNL     1      34.004 -20.085 -21.186  0.00  0.00    +0.178 C 
ATOM     27  C   UNL     1      35.249 -19.717 -21.987  0.00  0.00    +0.031 C 
ATOM     28  C   UNL     1      35.989 -20.592 -19.909  0.00  0.00    +0.096 C 
ATOM     29  C   UNL     1      36.321 -19.516 -20.929  0.00  0.00    +0.021 C 
BRANCH  26  31
ATOM     30  O   UNL     1      33.523 -17.730 -20.991  0.00  0.00    -0.249 OA
ATOM     31  C   UNL     1      33.181 -18.892 -20.829  0.00  0.00    +0.330 C 
BRANCH  31  32
ATOM     32  O   UNL     1      31.996 -19.270 -20.292  0.00  0.00    -0.479 OA
ATOM     33  H   UNL     1      31.685 -18.861 -19.509  0.00  0.00    +0.295 HD
ENDBRANCH  31  32
ENDBRANCH  26  31
ENDBRANCH  22  25
ENDBRANCH   1  22
TORSDOF 12
ENDMDL
