MODEL 1
REMARK VINA RESULT:      -9.8      0.000      0.000
REMARK  Name = 1510981
REMARK  2 active torsions:
REMARK  status: ('A' for Active; 'I' for Inactive)
REMARK    1  A    between atoms: N_1  and  C_10
REMARK    2  A    between atoms: C_8  and  N_17
REMARK                            x       y       z     vdW  Elec       q    Type
REMARK                         _______ _______ _______ _____ _____    ______ ____
ROOT
ATOM      1  N   UNL     1      34.579 -18.763 -22.352  0.00  0.00    -0.265 N 
ATOM      2  N   UNL     1      34.955 -18.026 -24.415  0.00  0.00    -0.250 NA
ATOM      3  C   UNL     1      34.462 -17.399 -22.281  0.00  0.00    +0.067 C 
ATOM      4  C   UNL     1      34.701 -16.962 -23.581  0.00  0.00    +0.075 C 
ATOM      5  C   UNL     1      34.873 -19.089 -23.648  0.00  0.00    +0.224 C 
ATOM      6  C   UNL     1      34.177 -16.535 -21.223  0.00  0.00    +0.017 C 
ATOM      7  C   UNL     1      34.657 -15.586 -23.860  0.00  0.00    +0.087 C 
ATOM      8  C   UNL     1      34.373 -14.700 -22.814  0.00  0.00    +0.025 C 
ATOM      9  C   UNL     1      34.138 -15.169 -21.519  0.00  0.00    +0.011 C 
ENDROOT
BRANCH   1  10
ATOM     10  C   UNL     1      34.428 -19.670 -21.305  0.00  0.00    +0.053 C 
ATOM     11  C   UNL     1      35.552 -20.171 -20.662  0.00  0.00    +0.011 C 
ATOM     12  C   UNL     1      33.153 -20.064 -20.917  0.00  0.00    +0.015 C 
ATOM     13  C   UNL     1      35.400 -21.080 -19.615  0.00  0.00    -0.021 C 
ATOM     14  C   UNL     1      33.001 -20.973 -19.871  0.00  0.00    +0.001 C 
ATOM     15  C   UNL     1      34.124 -21.480 -19.220  0.00  0.00    -0.004 C 
ATOM     16  C   UNL     1      36.603 -21.623 -18.918  0.00  0.00    +0.031 C 
ENDBRANCH   1  10
BRANCH   8  17
ATOM     17  N   UNL     1      34.323 -13.312 -23.073  0.00  0.00    -0.360 N 
ATOM     18  H   UNL     1      34.816 -12.685 -22.495  0.00  0.00    +0.142 HD
ATOM     19  H   UNL     1      33.795 -12.971 -23.831  0.00  0.00    +0.142 HD
ENDBRANCH   8  17
TORSDOF 2
ENDMDL
MODEL 2
REMARK VINA RESULT:      -9.7      1.813      5.910
REMARK  Name = 1510981
REMARK  2 active torsions:
REMARK  status: ('A' for Active; 'I' for Inactive)
REMARK    1  A    between atoms: N_1  and  C_10
REMARK    2  A    between atoms: C_8  and  N_17
REMARK                            x       y       z     vdW  Elec       q    Type
REMARK                         _______ _______ _______ _____ _____    ______ ____
ROOT
ATOM      1  N   UNL     1      35.518 -18.774 -21.646  0.00  0.00    -0.265 N 
ATOM      2  N   UNL     1      36.824 -19.957 -20.291  0.00  0.00    -0.250 NA
ATOM      3  C   UNL     1      34.680 -19.643 -20.995  0.00  0.00    +0.067 C 
ATOM      4  C   UNL     1      35.518 -20.371 -20.156  0.00  0.00    +0.075 C 
ATOM      5  C   UNL     1      36.788 -19.000 -21.190  0.00  0.00    +0.224 C 
ATOM      6  C   UNL     1      33.301 -19.849 -21.069  0.00  0.00    +0.017 C 
ATOM      7  C   UNL     1      34.966 -21.366 -19.333  0.00  0.00    +0.087 C 
ATOM      8  C   UNL     1      33.586 -21.591 -19.389  0.00  0.00    +0.025 C 
ATOM      9  C   UNL     1      32.770 -20.844 -20.242  0.00  0.00    +0.011 C 
ENDROOT
BRANCH   1  10
ATOM     10  C   UNL     1      35.159 -17.824 -22.600  0.00  0.00    +0.053 C 
ATOM     11  C   UNL     1      34.905 -16.516 -22.207  0.00  0.00    +0.011 C 
ATOM     12  C   UNL     1      35.060 -18.196 -23.935  0.00  0.00    +0.015 C 
ATOM     13  C   UNL     1      34.545 -15.567 -23.162  0.00  0.00    -0.021 C 
ATOM     14  C   UNL     1      34.701 -17.247 -24.891  0.00  0.00    +0.001 C 
ATOM     15  C   UNL     1      34.443 -15.932 -24.504  0.00  0.00    -0.004 C 
ATOM     16  C   UNL     1      34.269 -14.160 -22.748  0.00  0.00    +0.031 C 
ENDBRANCH   1  10
BRANCH   8  17
ATOM     17  N   UNL     1      33.011 -22.588 -18.569  0.00  0.00    -0.360 N 
ATOM     18  H   UNL     1      32.325 -23.192 -18.937  0.00  0.00    +0.142 HD
ATOM     19  H   UNL     1      33.294 -22.677 -17.630  0.00  0.00    +0.142 HD
ENDBRANCH   8  17
TORSDOF 2
ENDMDL
MODEL 3
REMARK VINA RESULT:      -9.4      1.418      2.217
REMARK  Name = 1510981
REMARK  2 active torsions:
REMARK  status: ('A' for Active; 'I' for Inactive)
REMARK    1  A    between atoms: N_1  and  C_10
REMARK    2  A    between atoms: C_8  and  N_17
REMARK                            x       y       z     vdW  Elec       q    Type
REMARK                         _______ _______ _______ _____ _____    ______ ____
ROOT
ATOM      1  N   UNL     1      34.646 -17.415 -22.561  0.00  0.00    -0.265 N 
ATOM      2  N   UNL     1      34.491 -16.214 -24.425  0.00  0.00    -0.250 NA
ATOM      3  C   UNL     1      33.918 -16.303 -22.222  0.00  0.00    +0.067 C 
ATOM      4  C   UNL     1      33.835 -15.569 -23.402  0.00  0.00    +0.075 C 
ATOM      5  C   UNL     1      34.964 -17.316 -23.888  0.00  0.00    +0.224 C 
ATOM      6  C   UNL     1      33.343 -15.889 -21.020  0.00  0.00    +0.017 C 
ATOM      7  C   UNL     1      33.141 -14.348 -23.401  0.00  0.00    +0.087 C 
ATOM      8  C   UNL     1      32.556 -13.912 -22.207  0.00  0.00    +0.025 C 
ATOM      9  C   UNL     1      32.657 -14.671 -21.038  0.00  0.00    +0.011 C 
ENDROOT
BRANCH   1  10
ATOM     10  C   UNL     1      35.005 -18.467 -21.721  0.00  0.00    +0.053 C 
ATOM     11  C   UNL     1      34.021 -19.300 -21.203  0.00  0.00    +0.011 C 
ATOM     12  C   UNL     1      36.344 -18.670 -21.409  0.00  0.00    +0.015 C 
ATOM     13  C   UNL     1      34.382 -20.351 -20.361  0.00  0.00    -0.021 C 
ATOM     14  C   UNL     1      36.704 -19.721 -20.568  0.00  0.00    +0.001 C 
ATOM     15  C   UNL     1      35.723 -20.562 -20.044  0.00  0.00    -0.004 C 
ATOM     16  C   UNL     1      33.332 -21.251 -19.801  0.00  0.00    +0.031 C 
ENDBRANCH   1  10
BRANCH   8  17
ATOM     17  N   UNL     1      31.853 -12.686 -22.185  0.00  0.00    -0.360 N 
ATOM     18  H   UNL     1      32.182 -11.922 -22.712  0.00  0.00    +0.142 HD
ATOM     19  H   UNL     1      31.037 -12.596 -21.642  0.00  0.00    +0.142 HD
ENDBRANCH   8  17
TORSDOF 2
ENDMDL
MODEL 4
REMARK VINA RESULT:      -9.4      1.849      5.939
REMARK  Name = 1510981
REMARK  2 active torsions:
REMARK  status: ('A' for Active; 'I' for Inactive)
REMARK    1  A    between atoms: N_1  and  C_10
REMARK    2  A    between atoms: C_8  and  N_17
REMARK                            x       y       z     vdW  Elec       q    Type
REMARK                         _______ _______ _______ _____ _____    ______ ____
ROOT
ATOM      1  N   UNL     1      35.489 -18.663 -21.197  0.00  0.00    -0.265 N 
ATOM      2  N   UNL     1      36.846 -20.137 -20.234  0.00  0.00    -0.250 NA
ATOM      3  C   UNL     1      34.667 -19.615 -20.650  0.00  0.00    +0.067 C 
ATOM      4  C   UNL     1      35.538 -20.524 -20.056  0.00  0.00    +0.075 C 
ATOM      5  C   UNL     1      36.781 -19.019 -20.921  0.00  0.00    +0.224 C 
ATOM      6  C   UNL     1      33.279 -19.756 -20.628  0.00  0.00    +0.017 C 
ATOM      7  C   UNL     1      35.010 -21.645 -19.393  0.00  0.00    +0.087 C 
ATOM      8  C   UNL     1      33.620 -21.807 -19.357  0.00  0.00    +0.025 C 
ATOM      9  C   UNL     1      32.771 -20.877 -19.964  0.00  0.00    +0.011 C 
ENDROOT
BRANCH   1  10
ATOM     10  C   UNL     1      35.098 -17.530 -21.908  0.00  0.00    +0.053 C 
ATOM     11  C   UNL     1      34.967 -17.596 -23.289  0.00  0.00    +0.011 C 
ATOM     12  C   UNL     1      34.843 -16.346 -21.226  0.00  0.00    +0.015 C 
ATOM     13  C   UNL     1      34.577 -16.462 -24.000  0.00  0.00    -0.021 C 
ATOM     14  C   UNL     1      34.452 -15.212 -21.937  0.00  0.00    +0.001 C 
ATOM     15  C   UNL     1      34.319 -15.270 -23.324  0.00  0.00    -0.004 C 
ATOM     16  C   UNL     1      34.434 -16.524 -25.484  0.00  0.00    +0.031 C 
ENDBRANCH   1  10
BRANCH   8  17
ATOM     17  N   UNL     1      33.068 -22.927 -18.696  0.00  0.00    -0.360 N 
ATOM     18  H   UNL     1      32.234 -23.333 -19.028  0.00  0.00    +0.142 HD
ATOM     19  H   UNL     1      33.516 -23.300 -17.902  0.00  0.00    +0.142 HD
ENDBRANCH   8  17
TORSDOF 2
ENDMDL
MODEL 5
REMARK VINA RESULT:      -9.4      1.205      2.121
REMARK  Name = 1510981
REMARK  2 active torsions:
REMARK  status: ('A' for Active; 'I' for Inactive)
REMARK    1  A    between atoms: N_1  and  C_10
REMARK    2  A    between atoms: C_8  and  N_17
REMARK                            x       y       z     vdW  Elec       q    Type
REMARK                         _______ _______ _______ _____ _____    ______ ____
ROOT
ATOM      1  N   UNL     1      34.711 -17.795 -23.331  0.00  0.00    -0.265 N 
ATOM      2  N   UNL     1      34.209 -17.195 -25.412  0.00  0.00    -0.250 NA
ATOM      3  C   UNL     1      34.454 -16.449 -23.273  0.00  0.00    +0.067 C 
ATOM      4  C   UNL     1      34.144 -16.098 -24.584  0.00  0.00    +0.075 C 
ATOM      5  C   UNL     1      34.550 -18.194 -24.630  0.00  0.00    +0.224 C 
ATOM      6  C   UNL     1      34.468 -15.536 -22.218  0.00  0.00    +0.017 C 
ATOM      7  C   UNL     1      33.825 -14.762 -24.877  0.00  0.00    +0.087 C 
ATOM      8  C   UNL     1      33.833 -13.828 -23.834  0.00  0.00    +0.025 C 
ATOM      9  C   UNL     1      34.149 -14.211 -22.528  0.00  0.00    +0.011 C 
ENDROOT
BRANCH   1  10
ATOM     10  C   UNL     1      35.070 -18.624 -22.270  0.00  0.00    +0.053 C 
ATOM     11  C   UNL     1      34.100 -19.394 -21.641  0.00  0.00    +0.011 C 
ATOM     12  C   UNL     1      36.395 -18.670 -21.853  0.00  0.00    +0.015 C 
ATOM     13  C   UNL     1      34.460 -20.223 -20.579  0.00  0.00    -0.021 C 
ATOM     14  C   UNL     1      36.755 -19.498 -20.791  0.00  0.00    +0.001 C 
ATOM     15  C   UNL     1      35.788 -20.275 -20.154  0.00  0.00    -0.004 C 
ATOM     16  C   UNL     1      33.425 -21.054 -19.898  0.00  0.00    +0.031 C 
ENDBRANCH   1  10
BRANCH   8  17
ATOM     17  N   UNL     1      33.514 -12.479 -24.108  0.00  0.00    -0.360 N 
ATOM     18  H   UNL     1      34.127 -11.929 -24.649  0.00  0.00    +0.142 HD
ATOM     19  H   UNL     1      32.681 -12.088 -23.758  0.00  0.00    +0.142 HD
ENDBRANCH   8  17
TORSDOF 2
ENDMDL
MODEL 6
REMARK VINA RESULT:      -9.1      1.578      2.883
REMARK  Name = 1510981
REMARK  2 active torsions:
REMARK  status: ('A' for Active; 'I' for Inactive)
REMARK    1  A    between atoms: N_1  and  C_10
REMARK    2  A    between atoms: C_8  and  N_17
REMARK                            x       y       z     vdW  Elec       q    Type
REMARK                         _______ _______ _______ _____ _____    ______ ____
ROOT
ATOM      1  N   UNL     1      34.787 -17.159 -21.617  0.00  0.00    -0.265 N 
ATOM      2  N   UNL     1      34.338 -14.982 -21.605  0.00  0.00    -0.250 NA
ATOM      3  C   UNL     1      34.487 -16.840 -22.916  0.00  0.00    +0.067 C 
ATOM      4  C   UNL     1      34.210 -15.476 -22.883  0.00  0.00    +0.075 C 
ATOM      5  C   UNL     1      34.684 -16.016 -20.872  0.00  0.00    +0.224 C 
ATOM      6  C   UNL     1      34.435 -17.604 -24.083  0.00  0.00    +0.017 C 
ATOM      7  C   UNL     1      33.860 -14.819 -24.074  0.00  0.00    +0.087 C 
ATOM      8  C   UNL     1      33.801 -15.566 -25.257  0.00  0.00    +0.025 C 
ATOM      9  C   UNL     1      34.085 -16.933 -25.259  0.00  0.00    +0.011 C 
ENDROOT
BRANCH   1  10
ATOM     10  C   UNL     1      35.136 -18.416 -21.125  0.00  0.00    +0.053 C 
ATOM     11  C   UNL     1      34.140 -19.299 -20.727  0.00  0.00    +0.011 C 
ATOM     12  C   UNL     1      36.476 -18.770 -21.037  0.00  0.00    +0.015 C 
ATOM     13  C   UNL     1      34.490 -20.555 -20.233  0.00  0.00    -0.021 C 
ATOM     14  C   UNL     1      36.827 -20.026 -20.544  0.00  0.00    +0.001 C 
ATOM     15  C   UNL     1      35.834 -20.919 -20.142  0.00  0.00    -0.004 C 
ATOM     16  C   UNL     1      33.428 -21.510 -19.803  0.00  0.00    +0.031 C 
ENDBRANCH   1  10
BRANCH   8  17
ATOM     17  N   UNL     1      33.452 -14.924 -26.467  0.00  0.00    -0.360 N 
ATOM     18  H   UNL     1      33.410 -13.940 -26.507  0.00  0.00    +0.142 HD
ATOM     19  H   UNL     1      33.249 -15.459 -27.268  0.00  0.00    +0.142 HD
ENDBRANCH   8  17
TORSDOF 2
ENDMDL
MODEL 7
REMARK VINA RESULT:      -8.8      3.401      7.113
REMARK  Name = 1510981
REMARK  2 active torsions:
REMARK  status: ('A' for Active; 'I' for Inactive)
REMARK    1  A    between atoms: N_1  and  C_10
REMARK    2  A    between atoms: C_8  and  N_17
REMARK                            x       y       z     vdW  Elec       q    Type
REMARK                         _______ _______ _______ _____ _____    ______ ____
ROOT
ATOM      1  N   UNL     1      33.398 -14.133 -24.767  0.00  0.00    -0.265 N 
ATOM      2  N   UNL     1      33.386 -15.673 -26.370  0.00  0.00    -0.250 NA
ATOM      3  C   UNL     1      33.996 -15.238 -24.218  0.00  0.00    +0.067 C 
ATOM      4  C   UNL     1      33.976 -16.186 -25.238  0.00  0.00    +0.075 C 
ATOM      5  C   UNL     1      33.052 -14.443 -26.054  0.00  0.00    +0.224 C 
ATOM      6  C   UNL     1      34.535 -15.484 -22.954  0.00  0.00    +0.017 C 
ATOM      7  C   UNL     1      34.523 -17.458 -25.001  0.00  0.00    +0.087 C 
ATOM      8  C   UNL     1      35.070 -17.726 -23.740  0.00  0.00    +0.025 C 
ATOM      9  C   UNL     1      35.075 -16.755 -22.737  0.00  0.00    +0.011 C 
ENDROOT
BRANCH   1  10
ATOM     10  C   UNL     1      33.175 -12.907 -24.144  0.00  0.00    +0.053 C 
ATOM     11  C   UNL     1      32.300 -12.833 -23.067  0.00  0.00    +0.011 C 
ATOM     12  C   UNL     1      33.831 -11.773 -24.606  0.00  0.00    +0.015 C 
ATOM     13  C   UNL     1      32.077 -11.605 -22.445  0.00  0.00    -0.021 C 
ATOM     14  C   UNL     1      33.607 -10.545 -23.984  0.00  0.00    +0.001 C 
ATOM     15  C   UNL     1      32.731 -10.462 -22.903  0.00  0.00    -0.004 C 
ATOM     16  C   UNL     1      31.139 -11.516 -21.288  0.00  0.00    +0.031 C 
ENDBRANCH   1  10
BRANCH   8  17
ATOM     17  N   UNL     1      35.626 -19.000 -23.482  0.00  0.00    -0.360 N 
ATOM     18  H   UNL     1      35.390 -19.481 -22.655  0.00  0.00    +0.142 HD
ATOM     19  H   UNL     1      36.249 -19.406 -24.127  0.00  0.00    +0.142 HD
ENDBRANCH   8  17
TORSDOF 2
ENDMDL
MODEL 8
REMARK VINA RESULT:      -8.8      1.992      5.996
REMARK  Name = 1510981
REMARK  2 active torsions:
REMARK  status: ('A' for Active; 'I' for Inactive)
REMARK    1  A    between atoms: N_1  and  C_10
REMARK    2  A    between atoms: C_8  and  N_17
REMARK                            x       y       z     vdW  Elec       q    Type
REMARK                         _______ _______ _______ _____ _____    ______ ____
ROOT
ATOM      1  N   UNL     1      34.078 -19.594 -21.336  0.00  0.00    -0.265 N 
ATOM      2  N   UNL     1      32.914 -20.982 -20.048  0.00  0.00    -0.250 NA
ATOM      3  C   UNL     1      34.996 -20.172 -20.497  0.00  0.00    +0.067 C 
ATOM      4  C   UNL     1      34.245 -21.034 -19.702  0.00  0.00    +0.075 C 
ATOM      5  C   UNL     1      32.849 -20.111 -21.029  0.00  0.00    +0.224 C 
ATOM      6  C   UNL     1      36.377 -20.018 -20.367  0.00  0.00    +0.017 C 
ATOM      7  C   UNL     1      34.893 -21.796 -18.717  0.00  0.00    +0.087 C 
ATOM      8  C   UNL     1      36.278 -21.659 -18.569  0.00  0.00    +0.025 C 
ATOM      9  C   UNL     1      37.005 -20.785 -19.381  0.00  0.00    +0.011 C 
ENDROOT
BRANCH   1  10
ATOM     10  C   UNL     1      34.333 -18.650 -22.329  0.00  0.00    +0.053 C 
ATOM     11  C   UNL     1      34.308 -17.297 -22.014  0.00  0.00    +0.011 C 
ATOM     12  C   UNL     1      34.607 -19.073 -23.624  0.00  0.00    +0.015 C 
ATOM     13  C   UNL     1      34.561 -16.353 -23.008  0.00  0.00    -0.021 C 
ATOM     14  C   UNL     1      34.860 -18.129 -24.618  0.00  0.00    +0.001 C 
ATOM     15  C   UNL     1      34.838 -16.769 -24.310  0.00  0.00    -0.004 C 
ATOM     16  C   UNL     1      34.537 -14.898 -22.678  0.00  0.00    +0.031 C 
ENDBRANCH   1  10
BRANCH   8  17
ATOM     17  N   UNL     1      36.950 -22.417 -17.583  0.00  0.00    -0.360 N 
ATOM     18  H   UNL     1      37.389 -23.264 -17.829  0.00  0.00    +0.142 HD
ATOM     19  H   UNL     1      36.978 -22.100 -16.652  0.00  0.00    +0.142 HD
ENDBRANCH   8  17
TORSDOF 2
ENDMDL
MODEL 9
REMARK VINA RESULT:      -8.7      3.435      7.289
REMARK  Name = 1510981
REMARK  2 active torsions:
REMARK  status: ('A' for Active; 'I' for Inactive)
REMARK    1  A    between atoms: N_1  and  C_10
REMARK    2  A    between atoms: C_8  and  N_17
REMARK                            x       y       z     vdW  Elec       q    Type
REMARK                         _______ _______ _______ _____ _____    ______ ____
ROOT
ATOM      1  N   UNL     1      33.412 -14.074 -24.805  0.00  0.00    -0.265 N 
ATOM      2  N   UNL     1      33.315 -15.618 -26.402  0.00  0.00    -0.250 NA
ATOM      3  C   UNL     1      33.993 -15.194 -24.268  0.00  0.00    +0.067 C 
ATOM      4  C   UNL     1      33.920 -16.144 -25.283  0.00  0.00    +0.075 C 
ATOM      5  C   UNL     1      33.024 -14.378 -26.082  0.00  0.00    +0.224 C 
ATOM      6  C   UNL     1      34.558 -15.450 -23.018  0.00  0.00    +0.017 C 
ATOM      7  C   UNL     1      34.438 -17.429 -25.056  0.00  0.00    +0.087 C 
ATOM      8  C   UNL     1      35.009 -17.709 -23.809  0.00  0.00    +0.025 C 
ATOM      9  C   UNL     1      35.068 -16.735 -22.810  0.00  0.00    +0.011 C 
ENDROOT
BRANCH   1  10
ATOM     10  C   UNL     1      33.239 -12.840 -24.180  0.00  0.00    +0.053 C 
ATOM     11  C   UNL     1      34.015 -11.757 -24.574  0.00  0.00    +0.011 C 
ATOM     12  C   UNL     1      32.294 -12.709 -23.170  0.00  0.00    +0.015 C 
ATOM     13  C   UNL     1      33.843 -10.523 -23.947  0.00  0.00    -0.021 C 
ATOM     14  C   UNL     1      32.122 -11.475 -22.544  0.00  0.00    +0.001 C 
ATOM     15  C   UNL     1      32.896 -10.382 -22.932  0.00  0.00    -0.004 C 
ATOM     16  C   UNL     1      34.671  -9.354 -24.363  0.00  0.00    +0.031 C 
ENDBRANCH   1  10
BRANCH   8  17
ATOM     17  N   UNL     1      35.536 -18.997 -23.561  0.00  0.00    -0.360 N 
ATOM     18  H   UNL     1      36.015 -19.479 -24.274  0.00  0.00    +0.142 HD
ATOM     19  H   UNL     1      35.425 -19.413 -22.675  0.00  0.00    +0.142 HD
ENDBRANCH   8  17
TORSDOF 2
ENDMDL
