MODEL 1
REMARK VINA RESULT:     -10.9      0.000      0.000
REMARK  Name = 16129582
REMARK  3 active torsions:
REMARK  status: ('A' for Active; 'I' for Inactive)
REMARK    1  A    between atoms: N_2  and  C_13
REMARK    2  A    between atoms: C_6  and  C_23
REMARK    3  A    between atoms: N_12  and  C_20
REMARK                            x       y       z     vdW  Elec       q    Type
REMARK                         _______ _______ _______ _____ _____    ______ ____
ROOT
ATOM      1 CL   UNL     1      32.883 -13.143 -26.821  0.00  0.00    -0.078 Cl
ATOM      2  N   UNL     1      34.478 -17.474 -23.286  0.00  0.00    -0.270 N 
ATOM      3  N   UNL     1      33.747 -15.259 -23.532  0.00  0.00    -0.337 NA
ATOM      4  N   UNL     1      34.098 -16.666 -25.456  0.00  0.00    -0.169 NA
ATOM      5  C   UNL     1      34.097 -16.437 -24.115  0.00  0.00    +0.145 C 
ATOM      6  C   UNL     1      33.381 -14.267 -24.371  0.00  0.00    +0.157 C 
ATOM      7  C   UNL     1      33.348 -14.397 -25.744  0.00  0.00    +0.108 C 
ATOM      8  C   UNL     1      33.720 -15.632 -26.236  0.00  0.00    +0.126 C 
ATOM      9  H   UNL     1      34.731 -18.332 -23.698  0.00  0.00    +0.159 HD
ENDROOT
BRANCH   2  13
ATOM     10  O   UNL     1      33.972 -21.400 -19.099  0.00  0.00    -0.253 OA
ATOM     11  N   UNL     1      34.912 -20.009 -20.699  0.00  0.00    -0.264 N 
ATOM     12  N   UNL     1      36.250 -21.151 -19.118  0.00  0.00    -0.289 N 
ATOM     13  C   UNL     1      34.524 -17.366 -21.841  0.00  0.00    +0.083 C 
ATOM     14  C   UNL     1      33.372 -18.167 -21.222  0.00  0.00    +0.042 C 
ATOM     15  C   UNL     1      35.887 -17.836 -21.315  0.00  0.00    +0.042 C 
ATOM     16  C   UNL     1      33.609 -19.677 -21.281  0.00  0.00    +0.097 C 
ATOM     17  C   UNL     1      36.044 -19.356 -21.369  0.00  0.00    +0.097 C 
ATOM     18  C   UNL     1      34.977 -20.890 -19.606  0.00  0.00    +0.304 C 
ATOM     19  H   UNL     1      37.024 -20.723 -19.551  0.00  0.00    +0.151 HD
BRANCH  12  20
ATOM     20  C   UNL     1      36.477 -22.032 -17.993  0.00  0.00    +0.091 C 
ATOM     21  C   UNL     1      37.202 -21.322 -16.870  0.00  0.00    +0.023 C 
ENDBRANCH  12  20
ENDBRANCH   2  13
BRANCH   6  23
ATOM     22  N   UNL     1      31.950 -11.689 -22.318  0.00  0.00    -0.311 N 
ATOM     23  C   UNL     1      33.020 -13.041 -23.713  0.00  0.00    +0.047 C 
ATOM     24  C   UNL     1      33.529 -11.726 -23.894  0.00  0.00    +0.017 C 
ATOM     25  C   UNL     1      32.840 -10.896 -23.008  0.00  0.00    +0.048 C 
ATOM     26  C   UNL     1      32.052 -12.988 -22.740  0.00  0.00    +0.065 C 
ATOM     27  C   UNL     1      34.511 -11.158 -24.730  0.00  0.00    +0.001 C 
ATOM     28  C   UNL     1      33.086  -9.521 -22.913  0.00  0.00    +0.015 C 
ATOM     29  C   UNL     1      34.767  -9.785 -24.648  0.00  0.00    +0.000 C 
ATOM     30  C   UNL     1      34.065  -8.981 -23.752  0.00  0.00    +0.001 C 
ATOM     31  H   UNL     1      31.330 -11.369 -21.624  0.00  0.00    +0.152 HD
ENDBRANCH   6  23
TORSDOF 3
ENDMDL
MODEL 2
REMARK VINA RESULT:      -9.8      1.923      2.689
REMARK  Name = 16129582
REMARK  3 active torsions:
REMARK  status: ('A' for Active; 'I' for Inactive)
REMARK    1  A    between atoms: N_2  and  C_13
REMARK    2  A    between atoms: C_6  and  C_23
REMARK    3  A    between atoms: N_12  and  C_20
REMARK                            x       y       z     vdW  Elec       q    Type
REMARK                         _______ _______ _______ _____ _____    ______ ____
ROOT
ATOM      1 CL   UNL     1      33.468 -14.741 -26.690  0.00  0.00    -0.078 Cl
ATOM      2  N   UNL     1      35.028 -18.744 -22.775  0.00  0.00    -0.270 N 
ATOM      3  N   UNL     1      34.207 -16.592 -23.217  0.00  0.00    -0.337 NA
ATOM      4  N   UNL     1      34.758 -18.099 -25.015  0.00  0.00    -0.169 NA
ATOM      5  C   UNL     1      34.654 -17.785 -23.695  0.00  0.00    +0.145 C 
ATOM      6  C   UNL     1      33.851 -15.677 -24.144  0.00  0.00    +0.157 C 
ATOM      7  C   UNL     1      33.919 -15.897 -25.504  0.00  0.00    +0.108 C 
ATOM      8  C   UNL     1      34.385 -17.139 -25.886  0.00  0.00    +0.126 C 
ATOM      9  H   UNL     1      35.351 -19.612 -23.111  0.00  0.00    +0.159 HD
ENDROOT
BRANCH   2  13
ATOM     10  O   UNL     1      32.418 -21.680 -18.560  0.00  0.00    -0.253 OA
ATOM     11  N   UNL     1      34.033 -20.981 -20.070  0.00  0.00    -0.264 N 
ATOM     12  N   UNL     1      34.561 -22.448 -18.291  0.00  0.00    -0.289 N 
ATOM     13  C   UNL     1      34.970 -18.542 -21.341  0.00  0.00    +0.083 C 
ATOM     14  C   UNL     1      33.526 -18.707 -20.850  0.00  0.00    +0.042 C 
ATOM     15  C   UNL     1      35.924 -19.509 -20.626  0.00  0.00    +0.042 C 
ATOM     16  C   UNL     1      33.077 -20.169 -20.826  0.00  0.00    +0.097 C 
ATOM     17  C   UNL     1      35.399 -20.944 -20.609  0.00  0.00    +0.097 C 
ATOM     18  C   UNL     1      33.591 -21.703 -18.949  0.00  0.00    +0.304 C 
ATOM     19  H   UNL     1      35.484 -22.438 -18.634  0.00  0.00    +0.151 HD
BRANCH  12  20
ATOM     20  C   UNL     1      34.261 -23.238 -17.117  0.00  0.00    +0.091 C 
ATOM     21  C   UNL     1      35.284 -23.019 -16.024  0.00  0.00    +0.023 C 
ENDBRANCH  12  20
ENDBRANCH   2  13
BRANCH   6  23
ATOM     22  N   UNL     1      32.846 -12.282 -23.533  0.00  0.00    -0.311 N 
ATOM     23  C   UNL     1      33.386 -14.432 -23.595  0.00  0.00    +0.047 C 
ATOM     24  C   UNL     1      32.921 -14.131 -22.286  0.00  0.00    +0.017 C 
ATOM     25  C   UNL     1      32.589 -12.775 -22.272  0.00  0.00    +0.048 C 
ATOM     26  C   UNL     1      33.328 -13.279 -24.339  0.00  0.00    +0.065 C 
ATOM     27  C   UNL     1      32.751 -14.882 -21.106  0.00  0.00    +0.001 C 
ATOM     28  C   UNL     1      32.092 -12.129 -21.135  0.00  0.00    +0.015 C 
ATOM     29  C   UNL     1      32.256 -14.250 -19.959  0.00  0.00    +0.000 C 
ATOM     30  C   UNL     1      31.932 -12.895 -19.977  0.00  0.00    +0.001 C 
ATOM     31  H   UNL     1      32.703 -11.350 -23.813  0.00  0.00    +0.152 HD
ENDBRANCH   6  23
TORSDOF 3
ENDMDL
MODEL 3
REMARK VINA RESULT:      -9.6      1.112      1.937
REMARK  Name = 16129582
REMARK  3 active torsions:
REMARK  status: ('A' for Active; 'I' for Inactive)
REMARK    1  A    between atoms: N_2  and  C_13
REMARK    2  A    between atoms: C_6  and  C_23
REMARK    3  A    between atoms: N_12  and  C_20
REMARK                            x       y       z     vdW  Elec       q    Type
REMARK                         _______ _______ _______ _____ _____    ______ ____
ROOT
ATOM      1 CL   UNL     1      32.726 -12.629 -27.094  0.00  0.00    -0.078 Cl
ATOM      2  N   UNL     1      34.471 -17.083 -23.790  0.00  0.00    -0.270 N 
ATOM      3  N   UNL     1      33.880 -14.819 -23.945  0.00  0.00    -0.337 NA
ATOM      4  N   UNL     1      33.854 -16.240 -25.891  0.00  0.00    -0.169 NA
ATOM      5  C   UNL     1      34.057 -16.017 -24.564  0.00  0.00    +0.145 C 
ATOM      6  C   UNL     1      33.475 -13.798 -24.731  0.00  0.00    +0.157 C 
ATOM      7  C   UNL     1      33.242 -13.920 -26.086  0.00  0.00    +0.108 C 
ATOM      8  C   UNL     1      33.450 -15.177 -26.617  0.00  0.00    +0.126 C 
ATOM      9  H   UNL     1      34.600 -17.956 -24.228  0.00  0.00    +0.159 HD
ENDROOT
BRANCH   2  13
ATOM     10  O   UNL     1      33.395 -20.676 -19.416  0.00  0.00    -0.253 OA
ATOM     11  N   UNL     1      34.485 -19.623 -21.172  0.00  0.00    -0.264 N 
ATOM     12  N   UNL     1      35.629 -21.093 -19.714  0.00  0.00    -0.289 N 
ATOM     13  C   UNL     1      34.726 -16.986 -22.367  0.00  0.00    +0.083 C 
ATOM     14  C   UNL     1      33.480 -17.419 -21.584  0.00  0.00    +0.042 C 
ATOM     15  C   UNL     1      35.953 -17.825 -21.986  0.00  0.00    +0.042 C 
ATOM     16  C   UNL     1      33.269 -18.933 -21.608  0.00  0.00    +0.097 C 
ATOM     17  C   UNL     1      35.663 -19.326 -21.996  0.00  0.00    +0.097 C 
ATOM     18  C   UNL     1      34.432 -20.479 -20.059  0.00  0.00    +0.304 C 
ATOM     19  H   UNL     1      36.433 -20.908 -20.252  0.00  0.00    +0.151 HD
BRANCH  12  20
ATOM     20  C   UNL     1      35.734 -21.996 -18.589  0.00  0.00    +0.091 C 
ATOM     21  C   UNL     1      36.847 -21.584 -17.649  0.00  0.00    +0.023 C 
ENDBRANCH  12  20
ENDBRANCH   2  13
BRANCH   6  23
ATOM     22  N   UNL     1      33.473 -10.378 -23.632  0.00  0.00    -0.311 N 
ATOM     23  C   UNL     1      33.302 -12.552 -24.036  0.00  0.00    +0.047 C 
ATOM     24  C   UNL     1      32.632 -12.276 -22.814  0.00  0.00    +0.017 C 
ATOM     25  C   UNL     1      32.755 -10.905 -22.581  0.00  0.00    +0.048 C 
ATOM     26  C   UNL     1      33.808 -11.368 -24.516  0.00  0.00    +0.065 C 
ATOM     27  C   UNL     1      31.932 -13.062 -21.877  0.00  0.00    +0.001 C 
ATOM     28  C   UNL     1      32.209 -10.277 -21.456  0.00  0.00    +0.015 C 
ATOM     29  C   UNL     1      31.381 -12.449 -20.746  0.00  0.00    +0.000 C 
ATOM     30  C   UNL     1      31.519 -11.077 -20.541  0.00  0.00    +0.001 C 
ATOM     31  H   UNL     1      33.711  -9.428 -23.732  0.00  0.00    +0.152 HD
ENDBRANCH   6  23
TORSDOF 3
ENDMDL
MODEL 4
REMARK VINA RESULT:      -9.6      1.781      2.260
REMARK  Name = 16129582
REMARK  3 active torsions:
REMARK  status: ('A' for Active; 'I' for Inactive)
REMARK    1  A    between atoms: N_2  and  C_13
REMARK    2  A    between atoms: C_6  and  C_23
REMARK    3  A    between atoms: N_12  and  C_20
REMARK                            x       y       z     vdW  Elec       q    Type
REMARK                         _______ _______ _______ _____ _____    ______ ____
ROOT
ATOM      1 CL   UNL     1      33.527 -15.189 -26.236  0.00  0.00    -0.078 Cl
ATOM      2  N   UNL     1      35.346 -19.213 -22.456  0.00  0.00    -0.270 N 
ATOM      3  N   UNL     1      34.387 -17.105 -22.827  0.00  0.00    -0.337 NA
ATOM      4  N   UNL     1      35.034 -18.511 -24.673  0.00  0.00    -0.169 NA
ATOM      5  C   UNL     1      34.910 -18.249 -23.344  0.00  0.00    +0.145 C 
ATOM      6  C   UNL     1      33.971 -16.184 -23.722  0.00  0.00    +0.157 C 
ATOM      7  C   UNL     1      34.053 -16.353 -25.089  0.00  0.00    +0.108 C 
ATOM      8  C   UNL     1      34.598 -17.549 -25.512  0.00  0.00    +0.126 C 
ATOM      9  H   UNL     1      35.724 -20.046 -22.821  0.00  0.00    +0.159 HD
ENDROOT
BRANCH   2  13
ATOM     10  O   UNL     1      32.120 -21.816 -18.454  0.00  0.00    -0.253 OA
ATOM     11  N   UNL     1      33.883 -21.350 -19.887  0.00  0.00    -0.264 N 
ATOM     12  N   UNL     1      34.085 -22.960 -18.166  0.00  0.00    -0.289 N 
ATOM     13  C   UNL     1      35.275 -19.064 -21.016  0.00  0.00    +0.083 C 
ATOM     14  C   UNL     1      33.809 -18.991 -20.571  0.00  0.00    +0.042 C 
ATOM     15  C   UNL     1      36.020 -20.213 -20.323  0.00  0.00    +0.042 C 
ATOM     16  C   UNL     1      33.111 -20.351 -20.629  0.00  0.00    +0.097 C 
ATOM     17  C   UNL     1      35.251 -21.533 -20.387  0.00  0.00    +0.097 C 
ATOM     18  C   UNL     1      33.283 -22.029 -18.813  0.00  0.00    +0.304 C 
ATOM     19  H   UNL     1      35.007 -23.099 -18.483  0.00  0.00    +0.151 HD
BRANCH  12  20
ATOM     20  C   UNL     1      33.611 -23.733 -17.039  0.00  0.00    +0.091 C 
ATOM     21  C   UNL     1      34.014 -23.101 -15.723  0.00  0.00    +0.023 C 
ENDBRANCH  12  20
ENDBRANCH   2  13
BRANCH   6  23
ATOM     22  N   UNL     1      32.349 -13.728 -21.663  0.00  0.00    -0.311 N 
ATOM     23  C   UNL     1      33.426 -14.992 -23.132  0.00  0.00    +0.047 C 
ATOM     24  C   UNL     1      33.478 -13.646 -23.586  0.00  0.00    +0.017 C 
ATOM     25  C   UNL     1      32.794 -12.872 -22.646  0.00  0.00    +0.048 C 
ATOM     26  C   UNL     1      32.728 -15.012 -21.949  0.00  0.00    +0.065 C 
ATOM     27  C   UNL     1      34.040 -13.008 -24.709  0.00  0.00    +0.001 C 
ATOM     28  C   UNL     1      32.644 -11.486 -22.773  0.00  0.00    +0.015 C 
ATOM     29  C   UNL     1      33.898 -11.623 -24.850  0.00  0.00    +0.000 C 
ATOM     30  C   UNL     1      33.211 -10.876 -23.895  0.00  0.00    +0.001 C 
ATOM     31  H   UNL     1      31.835 -13.455 -20.869  0.00  0.00    +0.152 HD
ENDBRANCH   6  23
TORSDOF 3
ENDMDL
MODEL 5
REMARK VINA RESULT:      -9.6      3.272      8.444
REMARK  Name = 16129582
REMARK  3 active torsions:
REMARK  status: ('A' for Active; 'I' for Inactive)
REMARK    1  A    between atoms: N_2  and  C_13
REMARK    2  A    between atoms: C_6  and  C_23
REMARK    3  A    between atoms: N_12  and  C_20
REMARK                            x       y       z     vdW  Elec       q    Type
REMARK                         _______ _______ _______ _____ _____    ______ ____
ROOT
ATOM      1 CL   UNL     1      34.944 -20.604 -24.722  0.00  0.00    -0.078 Cl
ATOM      2  N   UNL     1      33.973 -14.889 -24.285  0.00  0.00    -0.270 N 
ATOM      3  N   UNL     1      34.893 -16.839 -23.360  0.00  0.00    -0.337 NA
ATOM      4  N   UNL     1      33.745 -16.897 -25.478  0.00  0.00    -0.169 NA
ATOM      5  C   UNL     1      34.210 -16.246 -24.376  0.00  0.00    +0.145 C 
ATOM      6  C   UNL     1      35.107 -18.166 -23.482  0.00  0.00    +0.157 C 
ATOM      7  C   UNL     1      34.677 -18.916 -24.557  0.00  0.00    +0.108 C 
ATOM      8  C   UNL     1      33.995 -18.221 -25.535  0.00  0.00    +0.126 C 
ATOM      9  H   UNL     1      33.482 -14.451 -25.017  0.00  0.00    +0.159 HD
ENDROOT
BRANCH   2  13
ATOM     10  O   UNL     1      31.829 -10.089 -21.927  0.00  0.00    -0.253 OA
ATOM     11  N   UNL     1      32.234 -12.334 -22.347  0.00  0.00    -0.264 N 
ATOM     12  N   UNL     1      31.069 -11.633 -20.412  0.00  0.00    -0.289 N 
ATOM     13  C   UNL     1      34.410 -14.076 -23.167  0.00  0.00    +0.083 C 
ATOM     14  C   UNL     1      34.360 -12.592 -23.552  0.00  0.00    +0.042 C 
ATOM     15  C   UNL     1      33.553 -14.368 -21.928  0.00  0.00    +0.042 C 
ATOM     16  C   UNL     1      32.932 -12.046 -23.603  0.00  0.00    +0.097 C 
ATOM     17  C   UNL     1      32.152 -13.765 -22.029  0.00  0.00    +0.097 C 
ATOM     18  C   UNL     1      31.716 -11.272 -21.586  0.00  0.00    +0.304 C 
ATOM     19  H   UNL     1      31.002 -12.587 -20.178  0.00  0.00    +0.151 HD
BRANCH  12  20
ATOM     20  C   UNL     1      30.489 -10.652 -19.521  0.00  0.00    +0.091 C 
ATOM     21  C   UNL     1      31.448 -10.275 -18.412  0.00  0.00    +0.023 C 
ENDBRANCH  12  20
ENDBRANCH   2  13
BRANCH   6  23
ATOM     22  N   UNL     1      37.550 -19.200 -21.059  0.00  0.00    -0.311 N 
ATOM     23  C   UNL     1      35.830 -18.750 -22.385  0.00  0.00    +0.047 C 
ATOM     24  C   UNL     1      35.382 -19.631 -21.365  0.00  0.00    +0.017 C 
ATOM     25  C   UNL     1      36.480 -19.899 -20.545  0.00  0.00    +0.048 C 
ATOM     26  C   UNL     1      37.165 -18.502 -22.172  0.00  0.00    +0.065 C 
ATOM     27  C   UNL     1      34.144 -20.230 -21.056  0.00  0.00    +0.001 C 
ATOM     28  C   UNL     1      36.403 -20.738 -19.427  0.00  0.00    +0.015 C 
ATOM     29  C   UNL     1      34.051 -21.073 -19.943  0.00  0.00    +0.000 C 
ATOM     30  C   UNL     1      35.165 -21.321 -19.142  0.00  0.00    +0.001 C 
ATOM     31  H   UNL     1      38.458 -19.202 -20.681  0.00  0.00    +0.152 HD
ENDBRANCH   6  23
TORSDOF 3
ENDMDL
MODEL 6
REMARK VINA RESULT:      -9.2      4.120      9.559
REMARK  Name = 16129582
REMARK  3 active torsions:
REMARK  status: ('A' for Active; 'I' for Inactive)
REMARK    1  A    between atoms: N_2  and  C_13
REMARK    2  A    between atoms: C_6  and  C_23
REMARK    3  A    between atoms: N_12  and  C_20
REMARK                            x       y       z     vdW  Elec       q    Type
REMARK                         _______ _______ _______ _____ _____    ______ ____
ROOT
ATOM      1 CL   UNL     1      33.082 -16.644 -25.905  0.00  0.00    -0.078 Cl
ATOM      2  N   UNL     1      33.852 -10.939 -25.098  0.00  0.00    -0.270 N 
ATOM      3  N   UNL     1      33.720 -13.090 -24.173  0.00  0.00    -0.337 NA
ATOM      4  N   UNL     1      33.455 -12.744 -26.543  0.00  0.00    -0.169 NA
ATOM      5  C   UNL     1      33.670 -12.296 -25.276  0.00  0.00    +0.145 C 
ATOM      6  C   UNL     1      33.538 -14.411 -24.383  0.00  0.00    +0.157 C 
ATOM      7  C   UNL     1      33.313 -14.966 -25.626  0.00  0.00    +0.108 C 
ATOM      8  C   UNL     1      33.282 -14.075 -26.681  0.00  0.00    +0.126 C 
ATOM      9  H   UNL     1      33.820 -10.355 -25.891  0.00  0.00    +0.159 HD
ENDROOT
BRANCH   2  13
ATOM     10  O   UNL     1      32.931  -5.605 -23.121  0.00  0.00    -0.253 OA
ATOM     11  N   UNL     1      32.593  -7.840 -23.641  0.00  0.00    -0.264 N 
ATOM     12  N   UNL     1      31.120  -6.671 -22.206  0.00  0.00    -0.289 N 
ATOM     13  C   UNL     1      34.087 -10.327 -23.805  0.00  0.00    +0.083 C 
ATOM     14  C   UNL     1      34.753  -8.958 -23.990  0.00  0.00    +0.042 C 
ATOM     15  C   UNL     1      32.772 -10.214 -23.021  0.00  0.00    +0.042 C 
ATOM     16  C   UNL     1      33.779  -7.895 -24.499  0.00  0.00    +0.097 C 
ATOM     17  C   UNL     1      31.861  -9.110 -23.560  0.00  0.00    +0.097 C 
ATOM     18  C   UNL     1      32.259  -6.635 -23.000  0.00  0.00    +0.304 C 
ATOM     19  H   UNL     1      30.613  -7.513 -22.136  0.00  0.00    +0.151 HD
BRANCH  12  20
ATOM     20  C   UNL     1      30.652  -5.512 -21.478  0.00  0.00    +0.091 C 
ATOM     21  C   UNL     1      30.372  -4.350 -22.407  0.00  0.00    +0.023 C 
ENDBRANCH  12  20
ENDBRANCH   2  13
BRANCH   6  23
ATOM     22  N   UNL     1      33.123 -15.872 -21.127  0.00  0.00    -0.311 N 
ATOM     23  C   UNL     1      33.597 -15.211 -23.190  0.00  0.00    +0.047 C 
ATOM     24  C   UNL     1      34.375 -16.366 -22.906  0.00  0.00    +0.017 C 
ATOM     25  C   UNL     1      34.060 -16.761 -21.605  0.00  0.00    +0.048 C 
ATOM     26  C   UNL     1      32.838 -14.931 -22.080  0.00  0.00    +0.065 C 
ATOM     27  C   UNL     1      35.322 -17.117 -23.631  0.00  0.00    +0.001 C 
ATOM     28  C   UNL     1      34.645 -17.874 -20.989  0.00  0.00    +0.015 C 
ATOM     29  C   UNL     1      35.916 -18.232 -23.029  0.00  0.00    +0.000 C 
ATOM     30  C   UNL     1      35.580 -18.603 -21.728  0.00  0.00    +0.001 C 
ATOM     31  H   UNL     1      32.718 -15.907 -20.231  0.00  0.00    +0.152 HD
ENDBRANCH   6  23
TORSDOF 3
ENDMDL
MODEL 7
REMARK VINA RESULT:      -8.8      5.099     10.696
REMARK  Name = 16129582
REMARK  3 active torsions:
REMARK  status: ('A' for Active; 'I' for Inactive)
REMARK    1  A    between atoms: N_2  and  C_13
REMARK    2  A    between atoms: C_6  and  C_23
REMARK    3  A    between atoms: N_12  and  C_20
REMARK                            x       y       z     vdW  Elec       q    Type
REMARK                         _______ _______ _______ _____ _____    ______ ____
ROOT
ATOM      1 CL   UNL     1      32.261 -15.362 -20.755  0.00  0.00    -0.078 Cl
ATOM      2  N   UNL     1      32.257  -9.665 -21.913  0.00  0.00    -0.270 N 
ATOM      3  N   UNL     1      32.610 -11.859 -22.664  0.00  0.00    -0.337 NA
ATOM      4  N   UNL     1      31.917 -11.424 -20.398  0.00  0.00    -0.169 NA
ATOM      5  C   UNL     1      32.262 -11.021 -21.651  0.00  0.00    +0.145 C 
ATOM      6  C   UNL     1      32.605 -13.177 -22.373  0.00  0.00    +0.157 C 
ATOM      7  C   UNL     1      32.272 -13.688 -21.135  0.00  0.00    +0.108 C 
ATOM      8  C   UNL     1      31.933 -12.754 -20.176  0.00  0.00    +0.126 C 
ATOM      9  H   UNL     1      32.004  -9.050 -21.187  0.00  0.00    +0.159 HD
ENDROOT
BRANCH   2  13
ATOM     10  O   UNL     1      30.234  -5.112 -24.807  0.00  0.00    -0.253 OA
ATOM     11  N   UNL     1      31.527  -6.407 -23.383  0.00  0.00    -0.264 N 
ATOM     12  N   UNL     1      32.166  -4.207 -23.971  0.00  0.00    -0.289 N 
ATOM     13  C   UNL     1      32.604  -9.100 -23.202  0.00  0.00    +0.083 C 
ATOM     14  C   UNL     1      31.328  -8.780 -23.991  0.00  0.00    +0.042 C 
ATOM     15  C   UNL     1      33.483  -7.855 -23.019  0.00  0.00    +0.042 C 
ATOM     16  C   UNL     1      30.604  -7.542 -23.459  0.00  0.00    +0.097 C 
ATOM     17  C   UNL     1      32.691  -6.646 -22.520  0.00  0.00    +0.097 C 
ATOM     18  C   UNL     1      31.240  -5.233 -24.100  0.00  0.00    +0.304 C 
ATOM     19  H   UNL     1      32.955  -4.345 -23.397  0.00  0.00    +0.151 HD
BRANCH  12  20
ATOM     20  C   UNL     1      32.011  -2.940 -24.652  0.00  0.00    +0.091 C 
ATOM     21  C   UNL     1      31.970  -1.786 -23.674  0.00  0.00    +0.023 C 
ENDBRANCH  12  20
ENDBRANCH   2  13
BRANCH   6  23
ATOM     22  N   UNL     1      33.077 -14.771 -25.558  0.00  0.00    -0.311 N 
ATOM     23  C   UNL     1      32.979 -14.025 -23.472  0.00  0.00    +0.047 C 
ATOM     24  C   UNL     1      33.802 -15.184 -23.488  0.00  0.00    +0.017 C 
ATOM     25  C   UNL     1      33.847 -15.634 -24.810  0.00  0.00    +0.048 C 
ATOM     26  C   UNL     1      32.549 -13.795 -24.756  0.00  0.00    +0.065 C 
ATOM     27  C   UNL     1      34.515 -15.898 -22.505  0.00  0.00    +0.001 C 
ATOM     28  C   UNL     1      34.573 -16.765 -25.199  0.00  0.00    +0.015 C 
ATOM     29  C   UNL     1      35.245 -17.032 -22.878  0.00  0.00    +0.000 C 
ATOM     30  C   UNL     1      35.272 -17.457 -24.206  0.00  0.00    +0.001 C 
ATOM     31  H   UNL     1      32.929 -14.845 -26.528  0.00  0.00    +0.152 HD
ENDBRANCH   6  23
TORSDOF 3
ENDMDL
MODEL 8
REMARK VINA RESULT:      -8.2      6.884     11.868
REMARK  Name = 16129582
REMARK  3 active torsions:
REMARK  status: ('A' for Active; 'I' for Inactive)
REMARK    1  A    between atoms: N_2  and  C_13
REMARK    2  A    between atoms: C_6  and  C_23
REMARK    3  A    between atoms: N_12  and  C_20
REMARK                            x       y       z     vdW  Elec       q    Type
REMARK                         _______ _______ _______ _____ _____    ______ ____
ROOT
ATOM      1 CL   UNL     1      32.457 -10.035 -18.945  0.00  0.00    -0.078 Cl
ATOM      2  N   UNL     1      31.433  -5.886 -22.886  0.00  0.00    -0.270 N 
ATOM      3  N   UNL     1      31.705  -8.166 -22.406  0.00  0.00    -0.337 NA
ATOM      4  N   UNL     1      31.868  -6.508 -20.666  0.00  0.00    -0.169 NA
ATOM      5  C   UNL     1      31.676  -6.882 -21.960  0.00  0.00    +0.145 C 
ATOM      6  C   UNL     1      31.944  -9.113 -21.474  0.00  0.00    +0.157 C 
ATOM      7  C   UNL     1      32.152  -8.839 -20.138  0.00  0.00    +0.108 C 
ATOM      8  C   UNL     1      32.102  -7.505 -19.788  0.00  0.00    +0.126 C 
ATOM      9  H   UNL     1      31.408  -4.953 -22.573  0.00  0.00    +0.159 HD
ENDROOT
BRANCH   2  13
ATOM     10  O   UNL     1      33.106  -3.081 -27.633  0.00  0.00    -0.253 OA
ATOM     11  N   UNL     1      33.095  -4.572 -25.856  0.00  0.00    -0.264 N 
ATOM     12  N   UNL     1      34.639  -4.786 -27.635  0.00  0.00    -0.289 N 
ATOM     13  C   UNL     1      31.214  -6.144 -24.296  0.00  0.00    +0.083 C 
ATOM     14  C   UNL     1      30.806  -4.846 -25.005  0.00  0.00    +0.042 C 
ATOM     15  C   UNL     1      32.469  -6.762 -24.927  0.00  0.00    +0.042 C 
ATOM     16  C   UNL     1      31.981  -3.886 -25.195  0.00  0.00    +0.097 C 
ATOM     17  C   UNL     1      33.591  -5.742 -25.121  0.00  0.00    +0.097 C 
ATOM     18  C   UNL     1      33.582  -4.077 -27.078  0.00  0.00    +0.304 C 
ATOM     19  H   UNL     1      34.988  -5.574 -27.160  0.00  0.00    +0.151 HD
BRANCH  12  20
ATOM     20  C   UNL     1      35.244  -4.402 -28.892  0.00  0.00    +0.091 C 
ATOM     21  C   UNL     1      36.708  -4.783 -28.942  0.00  0.00    +0.023 C 
ENDBRANCH  12  20
ENDBRANCH   2  13
BRANCH   6  23
ATOM     22  N   UNL     1      31.454 -12.606 -22.156  0.00  0.00    -0.311 N 
ATOM     23  C   UNL     1      31.967 -10.455 -21.990  0.00  0.00    +0.047 C 
ATOM     24  C   UNL     1      32.702 -11.001 -23.076  0.00  0.00    +0.017 C 
ATOM     25  C   UNL     1      32.363 -12.353 -23.160  0.00  0.00    +0.048 C 
ATOM     26  C   UNL     1      31.209 -11.463 -21.444  0.00  0.00    +0.065 C 
ATOM     27  C   UNL     1      33.627 -10.476 -24.000  0.00  0.00    +0.001 C 
ATOM     28  C   UNL     1      32.904 -13.210 -24.126  0.00  0.00    +0.015 C 
ATOM     29  C   UNL     1      34.177 -11.320 -24.971  0.00  0.00    +0.000 C 
ATOM     30  C   UNL     1      33.819 -12.666 -25.031  0.00  0.00    +0.001 C 
ATOM     31  H   UNL     1      31.041 -13.482 -21.978  0.00  0.00    +0.152 HD
ENDBRANCH   6  23
TORSDOF 3
ENDMDL
MODEL 9
REMARK VINA RESULT:      -8.0      3.754      6.001
REMARK  Name = 16129582
REMARK  3 active torsions:
REMARK  status: ('A' for Active; 'I' for Inactive)
REMARK    1  A    between atoms: N_2  and  C_13
REMARK    2  A    between atoms: C_6  and  C_23
REMARK    3  A    between atoms: N_12  and  C_20
REMARK                            x       y       z     vdW  Elec       q    Type
REMARK                         _______ _______ _______ _____ _____    ______ ____
ROOT
ATOM      1 CL   UNL     1      31.981  -6.909 -19.870  0.00  0.00    -0.078 Cl
ATOM      2  N   UNL     1      32.160 -12.664 -20.674  0.00  0.00    -0.270 N 
ATOM      3  N   UNL     1      32.021 -10.517 -21.608  0.00  0.00    -0.337 NA
ATOM      4  N   UNL     1      32.173 -10.820 -19.223  0.00  0.00    -0.169 NA
ATOM      5  C   UNL     1      32.117 -11.295 -20.497  0.00  0.00    +0.145 C 
ATOM      6  C   UNL     1      31.981  -9.184 -21.399  0.00  0.00    +0.157 C 
ATOM      7  C   UNL     1      32.031  -8.603 -20.148  0.00  0.00    +0.108 C 
ATOM      8  C   UNL     1      32.128  -9.479 -19.086  0.00  0.00    +0.126 C 
ATOM      9  H   UNL     1      32.232 -13.236 -19.876  0.00  0.00    +0.159 HD
ENDROOT
BRANCH   2  13
ATOM     10  O   UNL     1      35.894 -16.041 -23.476  0.00  0.00    -0.253 OA
ATOM     11  N   UNL     1      34.148 -15.367 -22.107  0.00  0.00    -0.264 N 
ATOM     12  N   UNL     1      34.434 -17.635 -22.714  0.00  0.00    -0.289 N 
ATOM     13  C   UNL     1      32.107 -13.303 -21.974  0.00  0.00    +0.083 C 
ATOM     14  C   UNL     1      33.435 -13.094 -22.712  0.00  0.00    +0.042 C 
ATOM     15  C   UNL     1      31.773 -14.794 -21.822  0.00  0.00    +0.042 C 
ATOM     16  C   UNL     1      34.562 -13.962 -22.150  0.00  0.00    +0.097 C 
ATOM     17  C   UNL     1      32.952 -15.607 -21.290  0.00  0.00    +0.097 C 
ATOM     18  C   UNL     1      34.894 -16.328 -22.809  0.00  0.00    +0.304 C 
ATOM     19  H   UNL     1      33.633 -17.820 -22.172  0.00  0.00    +0.151 HD
BRANCH  12  20
ATOM     20  C   UNL     1      35.093 -18.734 -23.386  0.00  0.00    +0.091 C 
ATOM     21  C   UNL     1      34.463 -19.017 -24.733  0.00  0.00    +0.023 C 
ENDBRANCH  12  20
ENDBRANCH   2  13
BRANCH   6  23
ATOM     22  N   UNL     1      30.918  -7.382 -24.319  0.00  0.00    -0.311 N 
ATOM     23  C   UNL     1      31.879  -8.401 -22.600  0.00  0.00    +0.047 C 
ATOM     24  C   UNL     1      32.897  -7.766 -23.361  0.00  0.00    +0.017 C 
ATOM     25  C   UNL     1      32.268  -7.133 -24.436  0.00  0.00    +0.048 C 
ATOM     26  C   UNL     1      30.675  -8.148 -23.211  0.00  0.00    +0.065 C 
ATOM     27  C   UNL     1      34.298  -7.666 -23.243  0.00  0.00    +0.001 C 
ATOM     28  C   UNL     1      32.972  -6.403 -25.401  0.00  0.00    +0.015 C 
ATOM     29  C   UNL     1      35.015  -6.941 -24.200  0.00  0.00    +0.000 C 
ATOM     30  C   UNL     1      34.360  -6.319 -25.261  0.00  0.00    +0.001 C 
ATOM     31  H   UNL     1      30.229  -7.056 -24.942  0.00  0.00    +0.152 HD
ENDBRANCH   6  23
TORSDOF 3
ENDMDL
