MODEL 1
REMARK VINA RESULT:      -9.4      0.000      0.000
REMARK  Name = 16654980
REMARK  2 active torsions:
REMARK  status: ('A' for Active; 'I' for Inactive)
REMARK    1  A    between atoms: C_18  and  C_21
REMARK    2  A    between atoms: C_22  and  C_31
REMARK                            x       y       z     vdW  Elec       q    Type
REMARK                         _______ _______ _______ _____ _____    ______ ____
ROOT
ATOM      1  O   UNL     1      29.564 -24.321 -13.881  0.00  0.00    -0.350 OA
ATOM      2  O   UNL     1      35.256 -20.477 -20.342  0.00  0.00    -0.350 OA
ATOM      3  N   UNL     1      32.177 -24.143 -14.899  0.00  0.00    -0.281 N 
ATOM      4  N   UNL     1      34.959 -22.249 -18.180  0.00  0.00    -0.229 N 
ATOM      5  N   UNL     1      33.553 -23.178 -16.564  0.00  0.00    -0.317 NA
ATOM      6  N   UNL     1      35.937 -23.520 -16.484  0.00  0.00    -0.332 NA
ATOM      7  C   UNL     1      31.025 -24.171 -15.810  0.00  0.00    +0.125 C 
ATOM      8  C   UNL     1      31.882 -23.696 -13.534  0.00  0.00    +0.125 C 
ATOM      9  C   UNL     1      36.206 -21.492 -18.355  0.00  0.00    +0.135 C 
ATOM     10  C   UNL     1      33.779 -21.664 -18.827  0.00  0.00    +0.135 C 
ATOM     11  C   UNL     1      33.446 -23.925 -15.446  0.00  0.00    +0.181 C 
ATOM     12  C   UNL     1      29.862 -24.903 -15.149  0.00  0.00    +0.164 C 
ATOM     13  C   UNL     1      30.674 -24.453 -12.993  0.00  0.00    +0.164 C 
ATOM     14  C   UNL     1      34.809 -23.018 -17.022  0.00  0.00    +0.203 C 
ATOM     15  C   UNL     1      36.402 -21.155 -19.828  0.00  0.00    +0.164 C 
ATOM     16  C   UNL     1      34.104 -21.317 -20.276  0.00  0.00    +0.164 C 
ATOM     17  C   UNL     1      34.523 -24.495 -14.798  0.00  0.00    +0.136 C 
ATOM     18  C   UNL     1      35.757 -24.256 -15.368  0.00  0.00    +0.132 C 
ENDROOT
BRANCH  18  21
ATOM     19  N   UNL     1      38.705 -26.471 -14.885  0.00  0.00    -0.230 NA
ATOM     20  N   UNL     1      40.430 -26.465 -13.242  0.00  0.00    -0.343 N 
ATOM     21  C   UNL     1      36.964 -24.795 -14.788  0.00  0.00    +0.050 C 
ATOM     22  C   UNL     1      37.550 -24.241 -13.656  0.00  0.00    +0.078 C 
ATOM     23  C   UNL     1      37.575 -25.899 -15.361  0.00  0.00    +0.102 C 
ATOM     24  C   UNL     1      38.713 -24.801 -13.137  0.00  0.00    +0.038 C 
ATOM     25  C   UNL     1      39.245 -25.904 -13.784  0.00  0.00    +0.125 C 
ATOM     26  H   UNL     1      40.842 -27.250 -13.669  0.00  0.00    +0.144 HD
ATOM     27  H   UNL     1      40.839 -26.068 -12.439  0.00  0.00    +0.144 HD
BRANCH  22  31
ATOM     28  F   UNL     1      35.786 -23.318 -12.331  0.00  0.00    -0.166 F 
ATOM     29  F   UNL     1      37.774 -22.511 -12.020  0.00  0.00    -0.166 F 
ATOM     30  F   UNL     1      36.683 -22.036 -13.840  0.00  0.00    -0.166 F 
ATOM     31  C   UNL     1      36.959 -23.051 -12.973  0.00  0.00    +0.419 C 
ENDBRANCH  22  31
ENDBRANCH  18  21
TORSDOF 2
ENDMDL
MODEL 2
REMARK VINA RESULT:      -8.9      3.128      6.007
REMARK  Name = 16654980
REMARK  2 active torsions:
REMARK  status: ('A' for Active; 'I' for Inactive)
REMARK    1  A    between atoms: C_18  and  C_21
REMARK    2  A    between atoms: C_22  and  C_31
REMARK                            x       y       z     vdW  Elec       q    Type
REMARK                         _______ _______ _______ _____ _____    ______ ____
ROOT
ATOM      1  O   UNL     1      29.865 -24.626 -14.067  0.00  0.00    -0.350 OA
ATOM      2  O   UNL     1      39.113 -26.254 -13.199  0.00  0.00    -0.350 OA
ATOM      3  N   UNL     1      32.457 -23.953 -14.918  0.00  0.00    -0.281 N 
ATOM      4  N   UNL     1      37.059 -24.758 -14.401  0.00  0.00    -0.229 N 
ATOM      5  N   UNL     1      34.767 -24.375 -14.634  0.00  0.00    -0.317 NA
ATOM      6  N   UNL     1      36.359 -23.329 -16.109  0.00  0.00    -0.332 NA
ATOM      7  C   UNL     1      32.191 -24.235 -13.501  0.00  0.00    +0.125 C 
ATOM      8  C   UNL     1      31.494 -24.530 -15.861  0.00  0.00    +0.125 C 
ATOM      9  C   UNL     1      38.276 -25.090 -15.155  0.00  0.00    +0.135 C 
ATOM     10  C   UNL     1      36.765 -25.644 -13.269  0.00  0.00    +0.135 C 
ATOM     11  C   UNL     1      33.784 -23.749 -15.312  0.00  0.00    +0.181 C 
ATOM     12  C   UNL     1      30.733 -23.923 -13.179  0.00  0.00    +0.164 C 
ATOM     13  C   UNL     1      30.074 -24.203 -15.414  0.00  0.00    +0.164 C 
ATOM     14  C   UNL     1      36.014 -24.125 -15.079  0.00  0.00    +0.203 C 
ATOM     15  C   UNL     1      39.442 -25.283 -14.192  0.00  0.00    +0.164 C 
ATOM     16  C   UNL     1      38.013 -25.809 -12.406  0.00  0.00    +0.164 C 
ATOM     17  C   UNL     1      34.006 -22.908 -16.383  0.00  0.00    +0.136 C 
ATOM     18  C   UNL     1      35.327 -22.734 -16.741  0.00  0.00    +0.132 C 
ENDROOT
BRANCH  18  21
ATOM     19  N   UNL     1      37.298 -20.331 -18.783  0.00  0.00    -0.230 NA
ATOM     20  N   UNL     1      36.891 -19.380 -20.930  0.00  0.00    -0.343 N 
ATOM     21  C   UNL     1      35.695 -21.880 -17.845  0.00  0.00    +0.050 C 
ATOM     22  C   UNL     1      34.898 -21.751 -18.977  0.00  0.00    +0.078 C 
ATOM     23  C   UNL     1      36.875 -21.155 -17.797  0.00  0.00    +0.102 C 
ATOM     24  C   UNL     1      35.299 -20.913 -20.012  0.00  0.00    +0.038 C 
ATOM     25  C   UNL     1      36.497 -20.232 -19.867  0.00  0.00    +0.125 C 
ATOM     26  H   UNL     1      37.735 -18.877 -20.869  0.00  0.00    +0.144 HD
ATOM     27  H   UNL     1      36.321 -19.293 -21.727  0.00  0.00    +0.144 HD
BRANCH  22  31
ATOM     28  F   UNL     1      33.755 -23.850 -19.071  0.00  0.00    -0.166 F 
ATOM     29  F   UNL     1      32.706 -22.201 -18.133  0.00  0.00    -0.166 F 
ATOM     30  F   UNL     1      32.975 -22.229 -20.291  0.00  0.00    -0.166 F 
ATOM     31  C   UNL     1      33.609 -22.495 -19.113  0.00  0.00    +0.419 C 
ENDBRANCH  22  31
ENDBRANCH  18  21
TORSDOF 2
ENDMDL
MODEL 3
REMARK VINA RESULT:      -8.5      3.060      7.124
REMARK  Name = 16654980
REMARK  2 active torsions:
REMARK  status: ('A' for Active; 'I' for Inactive)
REMARK    1  A    between atoms: C_18  and  C_21
REMARK    2  A    between atoms: C_22  and  C_31
REMARK                            x       y       z     vdW  Elec       q    Type
REMARK                         _______ _______ _______ _____ _____    ______ ____
ROOT
ATOM      1  O   UNL     1      37.651 -24.906 -14.133  0.00  0.00    -0.350 OA
ATOM      2  O   UNL     1      28.377 -23.882 -15.505  0.00  0.00    -0.350 OA
ATOM      3  N   UNL     1      35.620 -23.904 -15.798  0.00  0.00    -0.281 N 
ATOM      4  N   UNL     1      30.987 -23.476 -16.466  0.00  0.00    -0.229 N 
ATOM      5  N   UNL     1      33.284 -23.707 -16.111  0.00  0.00    -0.317 NA
ATOM      6  N   UNL     1      32.434 -22.370 -17.927  0.00  0.00    -0.332 NA
ATOM      7  C   UNL     1      35.462 -25.205 -15.134  0.00  0.00    +0.125 C 
ATOM      8  C   UNL     1      36.574 -22.990 -15.160  0.00  0.00    +0.125 C 
ATOM      9  C   UNL     1      29.935 -22.485 -16.733  0.00  0.00    +0.135 C 
ATOM     10  C   UNL     1      30.751 -24.340 -15.304  0.00  0.00    +0.135 C 
ATOM     11  C   UNL     1      34.532 -23.390 -16.512  0.00  0.00    +0.181 C 
ATOM     12  C   UNL     1      36.833 -25.817 -14.867  0.00  0.00    +0.164 C 
ATOM     13  C   UNL     1      37.885 -23.719 -14.891  0.00  0.00    +0.164 C 
ATOM     14  C   UNL     1      32.296 -23.170 -16.852  0.00  0.00    +0.203 C 
ATOM     15  C   UNL     1      28.572 -23.168 -16.726  0.00  0.00    +0.164 C 
ATOM     16  C   UNL     1      29.343 -24.923 -15.373  0.00  0.00    +0.164 C 
ATOM     17  C   UNL     1      34.808 -22.581 -17.595  0.00  0.00    +0.136 C 
ATOM     18  C   UNL     1      33.709 -22.094 -18.271  0.00  0.00    +0.132 C 
ENDROOT
BRANCH  18  21
ATOM     19  N   UNL     1      32.787 -19.937 -21.157  0.00  0.00    -0.230 NA
ATOM     20  N   UNL     1      34.126 -18.768 -22.744  0.00  0.00    -0.343 N 
ATOM     21  C   UNL     1      33.860 -21.236 -19.423  0.00  0.00    +0.050 C 
ATOM     22  C   UNL     1      35.109 -20.878 -19.917  0.00  0.00    +0.078 C 
ATOM     23  C   UNL     1      32.739 -20.744 -20.072  0.00  0.00    +0.102 C 
ATOM     24  C   UNL     1      35.199 -20.050 -21.030  0.00  0.00    +0.038 C 
ATOM     25  C   UNL     1      34.018 -19.610 -21.608  0.00  0.00    +0.125 C 
ATOM     26  H   UNL     1      33.313 -18.433 -23.185  0.00  0.00    +0.144 HD
ATOM     27  H   UNL     1      35.013 -18.519 -23.089  0.00  0.00    +0.144 HD
BRANCH  22  31
ATOM     28  F   UNL     1      36.614 -20.804 -18.060  0.00  0.00    -0.166 F 
ATOM     29  F   UNL     1      36.388 -22.711 -19.066  0.00  0.00    -0.166 F 
ATOM     30  F   UNL     1      37.473 -21.095 -20.035  0.00  0.00    -0.166 F 
ATOM     31  C   UNL     1      36.371 -21.363 -19.280  0.00  0.00    +0.419 C 
ENDBRANCH  22  31
ENDBRANCH  18  21
TORSDOF 2
ENDMDL
MODEL 4
REMARK VINA RESULT:      -8.3      3.198      6.526
REMARK  Name = 16654980
REMARK  2 active torsions:
REMARK  status: ('A' for Active; 'I' for Inactive)
REMARK    1  A    between atoms: C_18  and  C_21
REMARK    2  A    between atoms: C_22  and  C_31
REMARK                            x       y       z     vdW  Elec       q    Type
REMARK                         _______ _______ _______ _____ _____    ______ ____
ROOT
ATOM      1  O   UNL     1      38.136 -25.013 -11.317  0.00  0.00    -0.350 OA
ATOM      2  O   UNL     1      29.425 -24.340 -14.866  0.00  0.00    -0.350 OA
ATOM      3  N   UNL     1      36.539 -24.204 -13.484  0.00  0.00    -0.281 N 
ATOM      4  N   UNL     1      32.184 -23.950 -15.234  0.00  0.00    -0.229 N 
ATOM      5  N   UNL     1      34.338 -24.092 -14.341  0.00  0.00    -0.317 NA
ATOM      6  N   UNL     1      33.924 -22.933 -16.413  0.00  0.00    -0.332 NA
ATOM      7  C   UNL     1      36.239 -25.449 -12.764  0.00  0.00    +0.125 C 
ATOM      8  C   UNL     1      37.315 -23.217 -12.726  0.00  0.00    +0.125 C 
ATOM      9  C   UNL     1      31.217 -23.012 -15.819  0.00  0.00    +0.135 C 
ATOM     10  C   UNL     1      31.691 -24.720 -14.086  0.00  0.00    +0.135 C 
ATOM     11  C   UNL     1      35.643 -23.779 -14.470  0.00  0.00    +0.181 C 
ATOM     12  C   UNL     1      37.514 -26.002 -12.137  0.00  0.00    +0.164 C 
ATOM     13  C   UNL     1      38.532 -23.888 -12.100  0.00  0.00    +0.164 C 
ATOM     14  C   UNL     1      33.545 -23.644 -15.334  0.00  0.00    +0.203 C 
ATOM     15  C   UNL     1      29.893 -23.725 -16.067  0.00  0.00    +0.164 C 
ATOM     16  C   UNL     1      30.340 -25.342 -14.426  0.00  0.00    +0.164 C 
ATOM     17  C   UNL     1      36.158 -23.057 -15.527  0.00  0.00    +0.136 C 
ATOM     18  C   UNL     1      35.242 -22.656 -16.478  0.00  0.00    +0.132 C 
ENDROOT
BRANCH  18  21
ATOM     19  N   UNL     1      37.282 -20.413 -18.632  0.00  0.00    -0.230 NA
ATOM     20  N   UNL     1      36.958 -19.648 -20.865  0.00  0.00    -0.343 N 
ATOM     21  C   UNL     1      35.651 -21.893 -17.634  0.00  0.00    +0.050 C 
ATOM     22  C   UNL     1      34.900 -21.867 -18.804  0.00  0.00    +0.078 C 
ATOM     23  C   UNL     1      36.823 -21.156 -17.598  0.00  0.00    +0.102 C 
ATOM     24  C   UNL     1      35.338 -21.114 -19.888  0.00  0.00    +0.038 C 
ATOM     25  C   UNL     1      36.525 -20.412 -19.752  0.00  0.00    +0.125 C 
ATOM     26  H   UNL     1      37.796 -19.134 -20.812  0.00  0.00    +0.144 HD
ATOM     27  H   UNL     1      36.421 -19.633 -21.690  0.00  0.00    +0.144 HD
BRANCH  22  31
ATOM     28  F   UNL     1      33.736 -23.944 -18.578  0.00  0.00    -0.166 F 
ATOM     29  F   UNL     1      32.615 -22.137 -18.152  0.00  0.00    -0.166 F 
ATOM     30  F   UNL     1      33.138 -22.631 -20.204  0.00  0.00    -0.166 F 
ATOM     31  C   UNL     1      33.622 -22.631 -18.930  0.00  0.00    +0.419 C 
ENDBRANCH  22  31
ENDBRANCH  18  21
TORSDOF 2
ENDMDL
MODEL 5
REMARK VINA RESULT:      -8.2      2.563      5.579
REMARK  Name = 16654980
REMARK  2 active torsions:
REMARK  status: ('A' for Active; 'I' for Inactive)
REMARK    1  A    between atoms: C_18  and  C_21
REMARK    2  A    between atoms: C_22  and  C_31
REMARK                            x       y       z     vdW  Elec       q    Type
REMARK                         _______ _______ _______ _____ _____    ______ ____
ROOT
ATOM      1  O   UNL     1      29.282 -24.964 -13.933  0.00  0.00    -0.350 OA
ATOM      2  O   UNL     1      38.596 -26.222 -13.155  0.00  0.00    -0.350 OA
ATOM      3  N   UNL     1      31.833 -24.264 -14.882  0.00  0.00    -0.281 N 
ATOM      4  N   UNL     1      36.469 -24.879 -14.410  0.00  0.00    -0.229 N 
ATOM      5  N   UNL     1      34.161 -24.590 -14.620  0.00  0.00    -0.317 NA
ATOM      6  N   UNL     1      35.688 -23.593 -16.195  0.00  0.00    -0.332 NA
ATOM      7  C   UNL     1      31.603 -24.459 -13.444  0.00  0.00    +0.125 C 
ATOM      8  C   UNL     1      30.873 -24.936 -15.764  0.00  0.00    +0.125 C 
ATOM      9  C   UNL     1      37.682 -25.221 -15.166  0.00  0.00    +0.135 C 
ATOM     10  C   UNL     1      36.228 -25.696 -13.216  0.00  0.00    +0.135 C 
ATOM     11  C   UNL     1      33.144 -24.043 -15.317  0.00  0.00    +0.181 C 
ATOM     12  C   UNL     1      30.142 -24.174 -13.113  0.00  0.00    +0.164 C 
ATOM     13  C   UNL     1      29.452 -24.626 -15.310  0.00  0.00    +0.164 C 
ATOM     14  C   UNL     1      35.390 -24.328 -15.107  0.00  0.00    +0.203 C 
ATOM     15  C   UNL     1      38.872 -25.310 -14.218  0.00  0.00    +0.164 C 
ATOM     16  C   UNL     1      37.496 -25.761 -12.371  0.00  0.00    +0.164 C 
ATOM     17  C   UNL     1      33.317 -23.270 -16.447  0.00  0.00    +0.136 C 
ATOM     18  C   UNL     1      34.624 -23.077 -16.844  0.00  0.00    +0.132 C 
ENDROOT
BRANCH  18  21
ATOM     19  N   UNL     1      34.280 -21.541 -20.213  0.00  0.00    -0.230 NA
ATOM     20  N   UNL     1      35.710 -20.075 -21.431  0.00  0.00    -0.343 N 
ATOM     21  C   UNL     1      34.942 -22.287 -18.010  0.00  0.00    +0.050 C 
ATOM     22  C   UNL     1      36.116 -21.549 -18.104  0.00  0.00    +0.078 C 
ATOM     23  C   UNL     1      34.064 -22.251 -19.082  0.00  0.00    +0.102 C 
ATOM     24  C   UNL     1      36.374 -20.806 -19.251  0.00  0.00    +0.038 C 
ATOM     25  C   UNL     1      35.432 -20.836 -20.267  0.00  0.00    +0.125 C 
ATOM     26  H   UNL     1      35.069 -20.067 -22.178  0.00  0.00    +0.144 HD
ATOM     27  H   UNL     1      36.544 -19.555 -21.492  0.00  0.00    +0.144 HD
BRANCH  22  31
ATOM     28  F   UNL     1      36.558 -21.478 -15.754  0.00  0.00    -0.166 F 
ATOM     29  F   UNL     1      37.927 -22.631 -16.978  0.00  0.00    -0.166 F 
ATOM     30  F   UNL     1      37.957 -20.458 -17.069  0.00  0.00    -0.166 F 
ATOM     31  C   UNL     1      37.119 -21.531 -16.996  0.00  0.00    +0.419 C 
ENDBRANCH  22  31
ENDBRANCH  18  21
TORSDOF 2
ENDMDL
MODEL 6
REMARK VINA RESULT:      -8.2      2.666      6.083
REMARK  Name = 16654980
REMARK  2 active torsions:
REMARK  status: ('A' for Active; 'I' for Inactive)
REMARK    1  A    between atoms: C_18  and  C_21
REMARK    2  A    between atoms: C_22  and  C_31
REMARK                            x       y       z     vdW  Elec       q    Type
REMARK                         _______ _______ _______ _____ _____    ______ ____
ROOT
ATOM      1  O   UNL     1      38.157 -25.952 -13.765  0.00  0.00    -0.350 OA
ATOM      2  O   UNL     1      36.118 -20.290 -21.025  0.00  0.00    -0.350 OA
ATOM      3  N   UNL     1      36.175 -24.485 -15.114  0.00  0.00    -0.281 N 
ATOM      4  N   UNL     1      35.225 -21.614 -18.712  0.00  0.00    -0.229 N 
ATOM      5  N   UNL     1      35.726 -23.039 -16.931  0.00  0.00    -0.317 NA
ATOM      6  N   UNL     1      33.452 -22.410 -17.418  0.00  0.00    -0.332 NA
ATOM      7  C   UNL     1      37.529 -23.937 -14.960  0.00  0.00    +0.125 C 
ATOM      8  C   UNL     1      36.079 -25.946 -15.016  0.00  0.00    +0.125 C 
ATOM      9  C   UNL     1      34.330 -21.449 -19.866  0.00  0.00    +0.135 C 
ATOM     10  C   UNL     1      36.658 -21.542 -19.019  0.00  0.00    +0.135 C 
ATOM     11  C   UNL     1      35.262 -23.777 -15.902  0.00  0.00    +0.181 C 
ATOM     12  C   UNL     1      38.185 -24.526 -13.715  0.00  0.00    +0.164 C 
ATOM     13  C   UNL     1      36.812 -26.428 -13.769  0.00  0.00    +0.164 C 
ATOM     14  C   UNL     1      34.781 -22.390 -17.637  0.00  0.00    +0.203 C 
ATOM     15  C   UNL     1      34.739 -20.215 -20.662  0.00  0.00    +0.164 C 
ATOM     16  C   UNL     1      36.943 -20.303 -19.861  0.00  0.00    +0.164 C 
ATOM     17  C   UNL     1      33.926 -23.880 -15.573  0.00  0.00    +0.136 C 
ATOM     18  C   UNL     1      33.058 -23.168 -16.375  0.00  0.00    +0.132 C 
ENDROOT
BRANCH  18  21
ATOM     19  N   UNL     1      29.423 -22.597 -16.919  0.00  0.00    -0.230 NA
ATOM     20  N   UNL     1      27.522 -23.169 -15.602  0.00  0.00    -0.343 N 
ATOM     21  C   UNL     1      31.634 -23.191 -16.138  0.00  0.00    +0.050 C 
ATOM     22  C   UNL     1      31.084 -23.770 -15.000  0.00  0.00    +0.078 C 
ATOM     23  C   UNL     1      30.769 -22.623 -17.060  0.00  0.00    +0.102 C 
ATOM     24  C   UNL     1      29.705 -23.763 -14.820  0.00  0.00    +0.038 C 
ATOM     25  C   UNL     1      28.926 -23.170 -15.800  0.00  0.00    +0.125 C 
ATOM     26  H   UNL     1      26.931 -22.758 -16.273  0.00  0.00    +0.144 HD
ATOM     27  H   UNL     1      27.140 -23.580 -14.793  0.00  0.00    +0.144 HD
BRANCH  22  31
ATOM     28  F   UNL     1      32.737 -25.403 -14.433  0.00  0.00    -0.166 F 
ATOM     29  F   UNL     1      32.794 -23.528 -13.345  0.00  0.00    -0.166 F 
ATOM     30  F   UNL     1      31.210 -24.965 -12.949  0.00  0.00    -0.166 F 
ATOM     31  C   UNL     1      31.942 -24.404 -13.953  0.00  0.00    +0.419 C 
ENDBRANCH  22  31
ENDBRANCH  18  21
TORSDOF 2
ENDMDL
MODEL 7
REMARK VINA RESULT:      -7.8      2.686      6.264
REMARK  Name = 16654980
REMARK  2 active torsions:
REMARK  status: ('A' for Active; 'I' for Inactive)
REMARK    1  A    between atoms: C_18  and  C_21
REMARK    2  A    between atoms: C_22  and  C_31
REMARK                            x       y       z     vdW  Elec       q    Type
REMARK                         _______ _______ _______ _____ _____    ______ ____
ROOT
ATOM      1  O   UNL     1      37.828 -24.897 -11.564  0.00  0.00    -0.350 OA
ATOM      2  O   UNL     1      28.959 -24.648 -14.760  0.00  0.00    -0.350 OA
ATOM      3  N   UNL     1      36.119 -24.248 -13.699  0.00  0.00    -0.281 N 
ATOM      4  N   UNL     1      31.688 -24.204 -15.267  0.00  0.00    -0.229 N 
ATOM      5  N   UNL     1      33.881 -24.241 -14.464  0.00  0.00    -0.317 NA
ATOM      6  N   UNL     1      33.346 -23.205 -16.573  0.00  0.00    -0.332 NA
ATOM      7  C   UNL     1      35.885 -25.461 -12.903  0.00  0.00    +0.125 C 
ATOM      8  C   UNL     1      36.897 -23.202 -13.028  0.00  0.00    +0.125 C 
ATOM      9  C   UNL     1      30.670 -23.325 -15.858  0.00  0.00    +0.135 C 
ATOM     10  C   UNL     1      31.266 -24.925 -14.061  0.00  0.00    +0.135 C 
ATOM     11  C   UNL     1      35.170 -23.900 -14.666  0.00  0.00    +0.181 C 
ATOM     12  C   UNL     1      37.201 -25.945 -12.303  0.00  0.00    +0.164 C 
ATOM     13  C   UNL     1      38.158 -23.805 -12.422  0.00  0.00    +0.164 C 
ATOM     14  C   UNL     1      33.034 -23.868 -15.443  0.00  0.00    +0.203 C 
ATOM     15  C   UNL     1      29.358 -24.086 -16.011  0.00  0.00    +0.164 C 
ATOM     16  C   UNL     1      29.921 -25.600 -14.309  0.00  0.00    +0.164 C 
ATOM     17  C   UNL     1      35.619 -23.222 -15.780  0.00  0.00    +0.136 C 
ATOM     18  C   UNL     1      34.652 -22.897 -16.710  0.00  0.00    +0.132 C 
ENDROOT
BRANCH  18  21
ATOM     19  N   UNL     1      34.332 -21.526 -20.152  0.00  0.00    -0.230 NA
ATOM     20  N   UNL     1      35.811 -20.197 -21.465  0.00  0.00    -0.343 N 
ATOM     21  C   UNL     1      34.989 -22.186 -17.920  0.00  0.00    +0.050 C 
ATOM     22  C   UNL     1      36.196 -21.511 -18.068  0.00  0.00    +0.078 C 
ATOM     23  C   UNL     1      34.099 -22.164 -18.982  0.00  0.00    +0.102 C 
ATOM     24  C   UNL     1      36.472 -20.843 -19.257  0.00  0.00    +0.038 C 
ATOM     25  C   UNL     1      35.515 -20.881 -20.258  0.00  0.00    +0.125 C 
ATOM     26  H   UNL     1      35.160 -20.198 -22.203  0.00  0.00    +0.144 HD
ATOM     27  H   UNL     1      36.667 -19.722 -21.563  0.00  0.00    +0.144 HD
BRANCH  22  31
ATOM     28  F   UNL     1      36.675 -21.336 -15.732  0.00  0.00    -0.166 F 
ATOM     29  F   UNL     1      37.969 -22.618 -16.907  0.00  0.00    -0.166 F 
ATOM     30  F   UNL     1      38.103 -20.458 -17.117  0.00  0.00    -0.166 F 
ATOM     31  C   UNL     1      37.215 -21.483 -16.976  0.00  0.00    +0.419 C 
ENDBRANCH  22  31
ENDBRANCH  18  21
TORSDOF 2
ENDMDL
MODEL 8
REMARK VINA RESULT:      -6.8      1.993      5.437
REMARK  Name = 16654980
REMARK  2 active torsions:
REMARK  status: ('A' for Active; 'I' for Inactive)
REMARK    1  A    between atoms: C_18  and  C_21
REMARK    2  A    between atoms: C_22  and  C_31
REMARK                            x       y       z     vdW  Elec       q    Type
REMARK                         _______ _______ _______ _____ _____    ______ ____
ROOT
ATOM      1  O   UNL     1      33.855 -20.132 -21.685  0.00  0.00    -0.350 OA
ATOM      2  O   UNL     1      28.287 -24.427 -15.402  0.00  0.00    -0.350 OA
ATOM      3  N   UNL     1      33.701 -21.519 -19.246  0.00  0.00    -0.281 N 
ATOM      4  N   UNL     1      30.875 -23.593 -16.114  0.00  0.00    -0.229 N 
ATOM      5  N   UNL     1      32.255 -22.553 -17.685  0.00  0.00    -0.317 NA
ATOM      6  N   UNL     1      33.184 -23.752 -15.813  0.00  0.00    -0.332 NA
ATOM      7  C   UNL     1      32.674 -20.532 -19.604  0.00  0.00    +0.125 C 
ATOM      8  C   UNL     1      34.442 -22.089 -20.377  0.00  0.00    +0.125 C 
ATOM      9  C   UNL     1      30.675 -24.847 -15.376  0.00  0.00    +0.135 C 
ATOM     10  C   UNL     1      29.710 -23.123 -16.872  0.00  0.00    +0.135 C 
ATOM     11  C   UNL     1      33.514 -22.275 -18.084  0.00  0.00    +0.181 C 
ATOM     12  C   UNL     1      33.266 -19.494 -20.552  0.00  0.00    +0.164 C 
ATOM     13  C   UNL     1      34.939 -20.969 -21.283  0.00  0.00    +0.164 C 
ATOM     14  C   UNL     1      32.164 -23.285 -16.558  0.00  0.00    +0.203 C 
ATOM     15  C   UNL     1      29.390 -24.767 -14.561  0.00  0.00    +0.164 C 
ATOM     16  C   UNL     1      28.474 -23.134 -15.977  0.00  0.00    +0.164 C 
ATOM     17  C   UNL     1      34.642 -22.694 -17.409  0.00  0.00    +0.136 C 
ATOM     18  C   UNL     1      34.414 -23.437 -16.269  0.00  0.00    +0.132 C 
ENDROOT
BRANCH  18  21
ATOM     19  N   UNL     1      36.294 -25.580 -13.880  0.00  0.00    -0.230 NA
ATOM     20  N   UNL     1      38.550 -25.490 -13.120  0.00  0.00    -0.343 N 
ATOM     21  C   UNL     1      35.509 -23.937 -15.472  0.00  0.00    +0.050 C 
ATOM     22  C   UNL     1      36.764 -23.339 -15.485  0.00  0.00    +0.078 C 
ATOM     23  C   UNL     1      35.326 -25.045 -14.660  0.00  0.00    +0.102 C 
ATOM     24  C   UNL     1      37.785 -23.860 -14.697  0.00  0.00    +0.038 C 
ATOM     25  C   UNL     1      37.500 -24.972 -13.920  0.00  0.00    +0.125 C 
ATOM     26  H   UNL     1      38.392 -26.279 -12.552  0.00  0.00    +0.144 HD
ATOM     27  H   UNL     1      39.436 -25.061 -13.133  0.00  0.00    +0.144 HD
BRANCH  22  31
ATOM     28  F   UNL     1      37.088 -22.412 -17.666  0.00  0.00    -0.166 F 
ATOM     29  F   UNL     1      36.126 -21.146 -16.193  0.00  0.00    -0.166 F 
ATOM     30  F   UNL     1      38.253 -21.570 -16.035  0.00  0.00    -0.166 F 
ATOM     31  C   UNL     1      37.050 -22.140 -16.330  0.00  0.00    +0.419 C 
ENDBRANCH  22  31
ENDBRANCH  18  21
TORSDOF 2
ENDMDL
MODEL 9
REMARK VINA RESULT:      -6.7      2.196      5.436
REMARK  Name = 16654980
REMARK  2 active torsions:
REMARK  status: ('A' for Active; 'I' for Inactive)
REMARK    1  A    between atoms: C_18  and  C_21
REMARK    2  A    between atoms: C_22  and  C_31
REMARK                            x       y       z     vdW  Elec       q    Type
REMARK                         _______ _______ _______ _____ _____    ______ ____
ROOT
ATOM      1  O   UNL     1      34.641 -20.828 -21.274  0.00  0.00    -0.350 OA
ATOM      2  O   UNL     1      28.830 -24.899 -15.061  0.00  0.00    -0.350 OA
ATOM      3  N   UNL     1      34.343 -21.911 -18.697  0.00  0.00    -0.281 N 
ATOM      4  N   UNL     1      31.390 -23.879 -15.616  0.00  0.00    -0.229 N 
ATOM      5  N   UNL     1      32.834 -22.896 -17.165  0.00  0.00    -0.317 NA
ATOM      6  N   UNL     1      33.654 -23.743 -15.064  0.00  0.00    -0.332 NA
ATOM      7  C   UNL     1      33.273 -21.095 -19.288  0.00  0.00    +0.125 C 
ATOM      8  C   UNL     1      35.259 -22.531 -19.660  0.00  0.00    +0.125 C 
ATOM      9  C   UNL     1      31.230 -25.047 -14.738  0.00  0.00    +0.135 C 
ATOM     10  C   UNL     1      30.279 -23.639 -16.544  0.00  0.00    +0.135 C 
ATOM     11  C   UNL     1      34.097 -22.532 -17.469  0.00  0.00    +0.181 C 
ATOM     12  C   UNL     1      33.867 -20.124 -20.303  0.00  0.00    +0.164 C 
ATOM     13  C   UNL     1      35.747 -21.484 -20.655  0.00  0.00    +0.164 C 
ATOM     14  C   UNL     1      32.686 -23.488 -15.965  0.00  0.00    +0.203 C 
ATOM     15  C   UNL     1      29.857 -25.008 -14.076  0.00  0.00    +0.164 C 
ATOM     16  C   UNL     1      28.956 -23.676 -15.785  0.00  0.00    +0.164 C 
ATOM     17  C   UNL     1      35.176 -22.737 -16.633  0.00  0.00    +0.136 C 
ATOM     18  C   UNL     1      34.892 -23.353 -15.432  0.00  0.00    +0.132 C 
ENDROOT
BRANCH  18  21
ATOM     19  N   UNL     1      37.454 -22.754 -12.804  0.00  0.00    -0.230 NA
ATOM     20  N   UNL     1      38.926 -24.243 -11.668  0.00  0.00    -0.343 N 
ATOM     21  C   UNL     1      35.932 -23.626 -14.468  0.00  0.00    +0.050 C 
ATOM     22  C   UNL     1      36.419 -24.910 -14.251  0.00  0.00    +0.078 C 
ATOM     23  C   UNL     1      36.477 -22.591 -13.726  0.00  0.00    +0.102 C 
ATOM     24  C   UNL     1      37.423 -25.118 -13.312  0.00  0.00    +0.038 C 
ATOM     25  C   UNL     1      37.901 -24.016 -12.621  0.00  0.00    +0.125 C 
ATOM     26  H   UNL     1      39.295 -23.489 -11.154  0.00  0.00    +0.144 HD
ATOM     27  H   UNL     1      39.267 -25.154 -11.520  0.00  0.00    +0.144 HD
BRANCH  22  31
ATOM     28  F   UNL     1      34.573 -26.344 -14.761  0.00  0.00    -0.166 F 
ATOM     29  F   UNL     1      35.979 -25.944 -16.362  0.00  0.00    -0.166 F 
ATOM     30  F   UNL     1      36.554 -27.238 -14.712  0.00  0.00    -0.166 F 
ATOM     31  C   UNL     1      35.889 -26.085 -15.008  0.00  0.00    +0.419 C 
ENDBRANCH  22  31
ENDBRANCH  18  21
TORSDOF 2
ENDMDL
