MODEL 1
REMARK VINA RESULT:     -10.3      0.000      0.000
REMARK  Name = 9819610
REMARK  4 active torsions:
REMARK  status: ('A' for Active; 'I' for Inactive)
REMARK    1  A    between atoms: C_1  and  C_11
REMARK    2  A    between atoms: C_2  and  N_17
REMARK    3  A    between atoms: C_3  and  S_20
REMARK    4  A    between atoms: S_20  and  C_24
REMARK                            x       y       z     vdW  Elec       q    Type
REMARK                         _______ _______ _______ _____ _____    ______ ____
ROOT
ATOM      1  C   UNL     1      34.062 -15.786 -23.445  0.00  0.00    +0.067 C 
ATOM      2  C   UNL     1      34.046 -16.310 -24.737  0.00  0.00    +0.046 C 
ATOM      3  C   UNL     1      35.283 -17.724 -22.676  0.00  0.00    +0.032 C 
ATOM      4  C   UNL     1      34.681 -16.493 -22.413  0.00  0.00    +0.012 C 
ATOM      5  C   UNL     1      34.646 -17.541 -24.999  0.00  0.00    +0.015 C 
ATOM      6  C   UNL     1      35.265 -18.247 -23.969  0.00  0.00    +0.008 C 
ENDROOT
BRANCH   1  11
ATOM      7  S   UNL     1      34.504 -10.972 -24.662  0.00  0.00    -0.060 S 
ATOM      8  O   UNL     1      32.515 -14.464 -22.318  0.00  0.00    -0.270 OA
ATOM      9  N   UNL     1      33.983 -13.393 -23.802  0.00  0.00    -0.251 N 
ATOM     10  N   UNL     1      32.676 -11.564 -22.934  0.00  0.00    -0.388 NA
ATOM     11  C   UNL     1      33.443 -14.502 -23.140  0.00  0.00    +0.253 C 
ATOM     12  C   UNL     1      33.607 -12.032 -23.689  0.00  0.00    +0.213 C 
ATOM     13  C   UNL     1      32.642 -10.198 -23.127  0.00  0.00    +0.101 C 
ATOM     14  C   UNL     1      33.557  -9.692 -24.027  0.00  0.00    +0.120 C 
ATOM     15  C   UNL     1      31.649  -9.407 -22.371  0.00  0.00    +0.063 C 
ATOM     16  H   UNL     1      34.720 -13.583 -24.428  0.00  0.00    +0.158 HD
ENDBRANCH   1  11
BRANCH   2  17
ATOM     17  N   UNL     1      33.424 -15.610 -25.795  0.00  0.00    -0.357 N 
ATOM     18  H   UNL     1      32.662 -15.014 -25.611  0.00  0.00    +0.142 HD
ATOM     19  H   UNL     1      33.753 -15.717 -26.717  0.00  0.00    +0.142 HD
ENDBRANCH   2  17
BRANCH   3  20
ATOM     20  S   UNL     1      36.073 -18.629 -21.360  0.00  0.00    -0.051 S 
BRANCH  20  24
ATOM     21  N   UNL     1      34.810 -20.665 -20.067  0.00  0.00    -0.246 N 
ATOM     22  N   UNL     1      33.449 -19.318 -21.127  0.00  0.00    -0.124 NA
ATOM     23  N   UNL     1      32.699 -20.302 -20.514  0.00  0.00    -0.128 NA
ATOM     24  C   UNL     1      34.674 -19.579 -20.833  0.00  0.00    +0.189 C 
ATOM     25  C   UNL     1      35.996 -21.286 -19.527  0.00  0.00    +0.121 C 
ATOM     26  C   UNL     1      33.532 -21.099 -19.884  0.00  0.00    +0.193 C 
ENDBRANCH  20  24
ENDBRANCH   3  20
TORSDOF 4
ENDMDL
MODEL 2
REMARK VINA RESULT:     -10.2      4.042      9.978
REMARK  Name = 9819610
REMARK  4 active torsions:
REMARK  status: ('A' for Active; 'I' for Inactive)
REMARK    1  A    between atoms: C_1  and  C_11
REMARK    2  A    between atoms: C_2  and  N_17
REMARK    3  A    between atoms: C_3  and  S_20
REMARK    4  A    between atoms: S_20  and  C_24
REMARK                            x       y       z     vdW  Elec       q    Type
REMARK                         _______ _______ _______ _____ _____    ______ ____
ROOT
ATOM      1  C   UNL     1      34.897 -21.145 -19.463  0.00  0.00    +0.067 C 
ATOM      2  C   UNL     1      33.515 -21.264 -19.601  0.00  0.00    +0.046 C 
ATOM      3  C   UNL     1      34.938 -19.523 -21.253  0.00  0.00    +0.032 C 
ATOM      4  C   UNL     1      35.609 -20.275 -20.288  0.00  0.00    +0.012 C 
ATOM      5  C   UNL     1      32.843 -20.513 -20.567  0.00  0.00    +0.015 C 
ATOM      6  C   UNL     1      33.554 -19.643 -21.392  0.00  0.00    +0.008 C 
ENDROOT
BRANCH   1  11
ATOM      7  S   UNL     1      34.066 -23.576 -15.190  0.00  0.00    -0.060 S 
ATOM      8  O   UNL     1      36.850 -22.069 -18.601  0.00  0.00    -0.270 OA
ATOM      9  N   UNL     1      34.864 -22.408 -17.398  0.00  0.00    -0.251 N 
ATOM     10  N   UNL     1      36.507 -23.535 -16.042  0.00  0.00    -0.388 NA
ATOM     11  C   UNL     1      35.627 -21.917 -18.464  0.00  0.00    +0.253 C 
ATOM     12  C   UNL     1      35.298 -23.161 -16.279  0.00  0.00    +0.213 C 
ATOM     13  C   UNL     1      36.490 -24.241 -14.856  0.00  0.00    +0.101 C 
ATOM     14  C   UNL     1      35.258 -24.370 -14.247  0.00  0.00    +0.120 C 
ATOM     15  C   UNL     1      37.763 -24.789 -14.347  0.00  0.00    +0.063 C 
ATOM     16  H   UNL     1      33.901 -22.204 -17.429  0.00  0.00    +0.158 HD
ENDBRANCH   1  11
BRANCH   2  17
ATOM     17  N   UNL     1      32.775 -22.140 -18.776  0.00  0.00    -0.357 N 
ATOM     18  H   UNL     1      32.105 -22.742 -19.173  0.00  0.00    +0.142 HD
ATOM     19  H   UNL     1      32.930 -22.148 -17.804  0.00  0.00    +0.142 HD
ENDBRANCH   2  17
BRANCH   3  20
ATOM     20  S   UNL     1      35.845 -18.412 -22.309  0.00  0.00    -0.051 S 
BRANCH  20  24
ATOM     21  N   UNL     1      34.759 -15.920 -22.450  0.00  0.00    -0.246 N 
ATOM     22  N   UNL     1      35.181 -16.581 -20.407  0.00  0.00    -0.124 NA
ATOM     23  N   UNL     1      34.637 -15.314 -20.351  0.00  0.00    -0.128 NA
ATOM     24  C   UNL     1      35.230 -16.885 -21.656  0.00  0.00    +0.189 C 
ATOM     25  C   UNL     1      34.640 -15.866 -23.887  0.00  0.00    +0.121 C 
ATOM     26  C   UNL     1      34.390 -14.935 -21.585  0.00  0.00    +0.193 C 
ENDBRANCH  20  24
ENDBRANCH   3  20
TORSDOF 4
ENDMDL
MODEL 3
REMARK VINA RESULT:     -10.0      3.454      8.072
REMARK  Name = 9819610
REMARK  4 active torsions:
REMARK  status: ('A' for Active; 'I' for Inactive)
REMARK    1  A    between atoms: C_1  and  C_11
REMARK    2  A    between atoms: C_2  and  N_17
REMARK    3  A    between atoms: C_3  and  S_20
REMARK    4  A    between atoms: S_20  and  C_24
REMARK                            x       y       z     vdW  Elec       q    Type
REMARK                         _______ _______ _______ _____ _____    ______ ____
ROOT
ATOM      1  C   UNL     1      33.898 -10.743 -24.228  0.00  0.00    +0.067 C 
ATOM      2  C   UNL     1      34.903  -9.880 -24.662  0.00  0.00    +0.046 C 
ATOM      3  C   UNL     1      32.804  -8.905 -23.105  0.00  0.00    +0.032 C 
ATOM      4  C   UNL     1      32.848 -10.256 -23.449  0.00  0.00    +0.012 C 
ATOM      5  C   UNL     1      34.860  -8.529 -24.318  0.00  0.00    +0.015 C 
ATOM      6  C   UNL     1      33.811  -8.042 -23.540  0.00  0.00    +0.008 C 
ENDROOT
BRANCH   1  11
ATOM      7  S   UNL     1      34.510 -15.177 -22.032  0.00  0.00    -0.060 S 
ATOM      8  O   UNL     1      33.758 -12.491 -25.756  0.00  0.00    -0.270 OA
ATOM      9  N   UNL     1      34.138 -13.042 -23.507  0.00  0.00    -0.251 N 
ATOM     10  N   UNL     1      34.123 -15.196 -24.588  0.00  0.00    -0.388 NA
ATOM     11  C   UNL     1      33.915 -12.160 -24.571  0.00  0.00    +0.253 C 
ATOM     12  C   UNL     1      34.231 -14.455 -23.541  0.00  0.00    +0.213 C 
ATOM     13  C   UNL     1      34.276 -16.506 -24.179  0.00  0.00    +0.101 C 
ATOM     14  C   UNL     1      34.493 -16.695 -22.829  0.00  0.00    +0.120 C 
ATOM     15  C   UNL     1      34.195 -17.573 -25.196  0.00  0.00    +0.063 C 
ATOM     16  H   UNL     1      34.244 -12.627 -22.621  0.00  0.00    +0.158 HD
ENDBRANCH   1  11
BRANCH   2  17
ATOM     17  N   UNL     1      35.974 -10.354 -25.451  0.00  0.00    -0.357 N 
ATOM     18  H   UNL     1      35.895 -10.368 -26.433  0.00  0.00    +0.142 HD
ATOM     19  H   UNL     1      36.802 -10.668 -25.020  0.00  0.00    +0.142 HD
ENDBRANCH   2  17
BRANCH   3  20
ATOM     20  S   UNL     1      31.465  -8.280 -22.109  0.00  0.00    -0.051 S 
BRANCH  20  24
ATOM     21  N   UNL     1      31.282 -10.453 -20.479  0.00  0.00    -0.246 N 
ATOM     22  N   UNL     1      32.488  -8.828 -19.647  0.00  0.00    -0.124 NA
ATOM     23  N   UNL     1      32.469  -9.867 -18.738  0.00  0.00    -0.128 NA
ATOM     24  C   UNL     1      31.780  -9.224 -20.644  0.00  0.00    +0.189 C 
ATOM     25  C   UNL     1      30.450 -11.249 -21.349  0.00  0.00    +0.121 C 
ATOM     26  C   UNL     1      31.742 -10.831 -19.254  0.00  0.00    +0.193 C 
ENDBRANCH  20  24
ENDBRANCH   3  20
TORSDOF 4
ENDMDL
MODEL 4
REMARK VINA RESULT:      -9.6      1.859      8.238
REMARK  Name = 9819610
REMARK  4 active torsions:
REMARK  status: ('A' for Active; 'I' for Inactive)
REMARK    1  A    between atoms: C_1  and  C_11
REMARK    2  A    between atoms: C_2  and  N_17
REMARK    3  A    between atoms: C_3  and  S_20
REMARK    4  A    between atoms: S_20  and  C_24
REMARK                            x       y       z     vdW  Elec       q    Type
REMARK                         _______ _______ _______ _____ _____    ______ ____
ROOT
ATOM      1  C   UNL     1      34.222 -16.341 -23.264  0.00  0.00    +0.067 C 
ATOM      2  C   UNL     1      34.222 -16.391 -24.658  0.00  0.00    +0.046 C 
ATOM      3  C   UNL     1      33.000 -14.259 -23.338  0.00  0.00    +0.032 C 
ATOM      4  C   UNL     1      33.612 -15.275 -22.604  0.00  0.00    +0.012 C 
ATOM      5  C   UNL     1      33.612 -15.374 -25.392  0.00  0.00    +0.015 C 
ATOM      6  C   UNL     1      33.001 -14.309 -24.733  0.00  0.00    +0.008 C 
ENDROOT
BRANCH   1  11
ATOM      7  S   UNL     1      32.951 -20.254 -20.447  0.00  0.00    -0.060 S 
ATOM      8  O   UNL     1      36.088 -17.405 -22.371  0.00  0.00    -0.270 OA
ATOM      9  N   UNL     1      33.979 -18.291 -21.851  0.00  0.00    -0.251 N 
ATOM     10  N   UNL     1      35.478 -19.748 -20.652  0.00  0.00    -0.388 NA
ATOM     11  C   UNL     1      34.852 -17.389 -22.469  0.00  0.00    +0.253 C 
ATOM     12  C   UNL     1      34.296 -19.385 -21.007  0.00  0.00    +0.213 C 
ATOM     13  C   UNL     1      35.337 -20.851 -19.833  0.00  0.00    +0.101 C 
ATOM     14  C   UNL     1      34.044 -21.273 -19.607  0.00  0.00    +0.120 C 
ATOM     15  C   UNL     1      36.556 -21.474 -19.280  0.00  0.00    +0.063 C 
ATOM     16  H   UNL     1      33.020 -18.149 -22.024  0.00  0.00    +0.158 HD
ENDBRANCH   1  11
BRANCH   2  17
ATOM     17  N   UNL     1      34.836 -17.462 -25.345  0.00  0.00    -0.357 N 
ATOM     18  H   UNL     1      34.650 -18.391 -25.076  0.00  0.00    +0.142 HD
ATOM     19  H   UNL     1      35.448 -17.279 -26.094  0.00  0.00    +0.142 HD
ENDBRANCH   2  17
BRANCH   3  20
ATOM     20  S   UNL     1      32.220 -12.896 -22.497  0.00  0.00    -0.051 S 
BRANCH  20  24
ATOM     21  N   UNL     1      32.713 -10.302 -23.163  0.00  0.00    -0.246 N 
ATOM     22  N   UNL     1      34.135 -11.720 -24.033  0.00  0.00    -0.124 NA
ATOM     23  N   UNL     1      34.485 -10.447 -24.438  0.00  0.00    -0.128 NA
ATOM     24  C   UNL     1      33.095 -11.576 -23.292  0.00  0.00    +0.189 C 
ATOM     25  C   UNL     1      31.613  -9.726 -22.429  0.00  0.00    +0.121 C 
ATOM     26  C   UNL     1      33.622  -9.612 -23.906  0.00  0.00    +0.193 C 
ENDBRANCH  20  24
ENDBRANCH   3  20
TORSDOF 4
ENDMDL
MODEL 5
REMARK VINA RESULT:      -9.5      4.088      9.949
REMARK  Name = 9819610
REMARK  4 active torsions:
REMARK  status: ('A' for Active; 'I' for Inactive)
REMARK    1  A    between atoms: C_1  and  C_11
REMARK    2  A    between atoms: C_2  and  N_17
REMARK    3  A    between atoms: C_3  and  S_20
REMARK    4  A    between atoms: S_20  and  C_24
REMARK                            x       y       z     vdW  Elec       q    Type
REMARK                         _______ _______ _______ _____ _____    ______ ____
ROOT
ATOM      1  C   UNL     1      34.959 -21.085 -19.494  0.00  0.00    +0.067 C 
ATOM      2  C   UNL     1      33.590 -21.123 -19.755  0.00  0.00    +0.046 C 
ATOM      3  C   UNL     1      35.237 -19.391 -21.193  0.00  0.00    +0.032 C 
ATOM      4  C   UNL     1      35.784 -20.220 -20.213  0.00  0.00    +0.012 C 
ATOM      5  C   UNL     1      33.044 -20.295 -20.736  0.00  0.00    +0.015 C 
ATOM      6  C   UNL     1      33.867 -19.429 -21.454  0.00  0.00    +0.008 C 
ENDROOT
BRANCH   1  11
ATOM      7  S   UNL     1      33.659 -23.564 -15.368  0.00  0.00    -0.060 S 
ATOM      8  O   UNL     1      36.774 -22.181 -18.536  0.00  0.00    -0.270 OA
ATOM      9  N   UNL     1      34.691 -22.399 -17.479  0.00  0.00    -0.251 N 
ATOM     10  N   UNL     1      36.148 -23.687 -16.055  0.00  0.00    -0.388 NA
ATOM     11  C   UNL     1      35.559 -21.939 -18.475  0.00  0.00    +0.253 C 
ATOM     12  C   UNL     1      34.990 -23.214 -16.359  0.00  0.00    +0.213 C 
ATOM     13  C   UNL     1      35.998 -24.423 -14.897  0.00  0.00    +0.101 C 
ATOM     14  C   UNL     1      34.722 -24.474 -14.376  0.00  0.00    +0.120 C 
ATOM     15  C   UNL     1      37.189 -25.082 -14.325  0.00  0.00    +0.063 C 
ATOM     16  H   UNL     1      33.751 -22.121 -17.566  0.00  0.00    +0.158 HD
ENDBRANCH   1  11
BRANCH   2  17
ATOM     17  N   UNL     1      32.738 -21.993 -19.039  0.00  0.00    -0.357 N 
ATOM     18  H   UNL     1      32.900 -22.964 -19.056  0.00  0.00    +0.142 HD
ATOM     19  H   UNL     1      31.984 -21.628 -18.522  0.00  0.00    +0.142 HD
ENDBRANCH   2  17
BRANCH   3  20
ATOM     20  S   UNL     1      36.288 -18.284 -22.113  0.00  0.00    -0.051 S 
BRANCH  20  24
ATOM     21  N   UNL     1      34.777 -16.991 -23.972  0.00  0.00    -0.246 N 
ATOM     22  N   UNL     1      35.005 -19.133 -24.359  0.00  0.00    -0.124 NA
ATOM     23  N   UNL     1      34.226 -18.589 -25.361  0.00  0.00    -0.128 NA
ATOM     24  C   UNL     1      35.298 -18.156 -23.576  0.00  0.00    +0.189 C 
ATOM     25  C   UNL     1      34.868 -15.677 -23.382  0.00  0.00    +0.121 C 
ATOM     26  C   UNL     1      34.101 -17.305 -25.112  0.00  0.00    +0.193 C 
ENDBRANCH  20  24
ENDBRANCH   3  20
TORSDOF 4
ENDMDL
MODEL 6
REMARK VINA RESULT:      -9.3      5.455      9.030
REMARK  Name = 9819610
REMARK  4 active torsions:
REMARK  status: ('A' for Active; 'I' for Inactive)
REMARK    1  A    between atoms: C_1  and  C_11
REMARK    2  A    between atoms: C_2  and  N_17
REMARK    3  A    between atoms: C_3  and  S_20
REMARK    4  A    between atoms: S_20  and  C_24
REMARK                            x       y       z     vdW  Elec       q    Type
REMARK                         _______ _______ _______ _____ _____    ______ ____
ROOT
ATOM      1  C   UNL     1      34.370 -22.331 -17.981  0.00  0.00    +0.067 C 
ATOM      2  C   UNL     1      33.266 -22.836 -17.296  0.00  0.00    +0.046 C 
ATOM      3  C   UNL     1      35.812 -23.025 -16.172  0.00  0.00    +0.032 C 
ATOM      4  C   UNL     1      35.644 -22.425 -17.420  0.00  0.00    +0.012 C 
ATOM      5  C   UNL     1      33.434 -23.435 -16.047  0.00  0.00    +0.015 C 
ATOM      6  C   UNL     1      34.706 -23.530 -15.486  0.00  0.00    +0.008 C 
ENDROOT
BRANCH   1  11
ATOM      7  S   UNL     1      36.715 -19.018 -20.877  0.00  0.00    -0.060 S 
ATOM      8  O   UNL     1      33.240 -21.981 -19.984  0.00  0.00    -0.270 OA
ATOM      9  N   UNL     1      35.231 -20.789 -19.637  0.00  0.00    -0.251 N 
ATOM     10  N   UNL     1      34.516 -20.013 -21.804  0.00  0.00    -0.388 NA
ATOM     11  C   UNL     1      34.227 -21.700 -19.288  0.00  0.00    +0.253 C 
ATOM     12  C   UNL     1      35.343 -20.014 -20.818  0.00  0.00    +0.213 C 
ATOM     13  C   UNL     1      34.999 -19.121 -22.741  0.00  0.00    +0.101 C 
ATOM     14  C   UNL     1      36.180 -18.486 -22.417  0.00  0.00    +0.120 C 
ATOM     15  C   UNL     1      34.230 -18.927 -23.986  0.00  0.00    +0.063 C 
ATOM     16  H   UNL     1      35.953 -20.671 -18.978  0.00  0.00    +0.158 HD
ENDBRANCH   1  11
BRANCH   2  17
ATOM     17  N   UNL     1      31.968 -22.750 -17.847  0.00  0.00    -0.357 N 
ATOM     18  H   UNL     1      31.377 -22.002 -17.600  0.00  0.00    +0.142 HD
ATOM     19  H   UNL     1      31.655 -23.437 -18.479  0.00  0.00    +0.142 HD
ENDBRANCH   2  17
BRANCH   3  20
ATOM     20  S   UNL     1      37.437 -23.146 -15.451  0.00  0.00    -0.051 S 
BRANCH  20  24
ATOM     21  N   UNL     1      37.349 -24.962 -13.425  0.00  0.00    -0.246 N 
ATOM     22  N   UNL     1      37.090 -25.845 -15.411  0.00  0.00    -0.124 NA
ATOM     23  N   UNL     1      37.027 -26.856 -14.473  0.00  0.00    -0.128 NA
ATOM     24  C   UNL     1      37.280 -24.762 -14.745  0.00  0.00    +0.189 C 
ATOM     25  C   UNL     1      37.550 -24.025 -12.347  0.00  0.00    +0.121 C 
ATOM     26  C   UNL     1      37.184 -26.307 -13.289  0.00  0.00    +0.193 C 
ENDBRANCH  20  24
ENDBRANCH   3  20
TORSDOF 4
ENDMDL
MODEL 7
REMARK VINA RESULT:      -9.3      3.424      9.609
REMARK  Name = 9819610
REMARK  4 active torsions:
REMARK  status: ('A' for Active; 'I' for Inactive)
REMARK    1  A    between atoms: C_1  and  C_11
REMARK    2  A    between atoms: C_2  and  N_17
REMARK    3  A    between atoms: C_3  and  S_20
REMARK    4  A    between atoms: S_20  and  C_24
REMARK                            x       y       z     vdW  Elec       q    Type
REMARK                         _______ _______ _______ _____ _____    ______ ____
ROOT
ATOM      1  C   UNL     1      33.951 -10.818 -24.073  0.00  0.00    +0.067 C 
ATOM      2  C   UNL     1      34.871  -9.930 -24.630  0.00  0.00    +0.046 C 
ATOM      3  C   UNL     1      33.034  -9.028 -22.734  0.00  0.00    +0.032 C 
ATOM      4  C   UNL     1      33.032 -10.367 -23.125  0.00  0.00    +0.012 C 
ATOM      5  C   UNL     1      34.874  -8.591 -24.238  0.00  0.00    +0.015 C 
ATOM      6  C   UNL     1      33.956  -8.140 -23.291  0.00  0.00    +0.008 C 
ENDROOT
BRANCH   1  11
ATOM      7  S   UNL     1      34.623 -15.329 -22.060  0.00  0.00    -0.060 S 
ATOM      8  O   UNL     1      33.688 -12.513 -25.644  0.00  0.00    -0.270 OA
ATOM      9  N   UNL     1      34.196 -13.142 -23.441  0.00  0.00    -0.251 N 
ATOM     10  N   UNL     1      34.079 -15.259 -24.586  0.00  0.00    -0.388 NA
ATOM     11  C   UNL     1      33.923 -12.223 -24.461  0.00  0.00    +0.253 C 
ATOM     12  C   UNL     1      34.263 -14.554 -23.525  0.00  0.00    +0.213 C 
ATOM     13  C   UNL     1      34.235 -16.583 -24.228  0.00  0.00    +0.101 C 
ATOM     14  C   UNL     1      34.531 -16.820 -22.902  0.00  0.00    +0.120 C 
ATOM     15  C   UNL     1      34.073 -17.616 -25.272  0.00  0.00    +0.063 C 
ATOM     16  H   UNL     1      34.364 -12.757 -22.550  0.00  0.00    +0.158 HD
ENDBRANCH   1  11
BRANCH   2  17
ATOM     17  N   UNL     1      35.810 -10.367 -25.590  0.00  0.00    -0.357 N 
ATOM     18  H   UNL     1      35.504 -10.659 -26.480  0.00  0.00    +0.142 HD
ATOM     19  H   UNL     1      36.769 -10.378 -25.371  0.00  0.00    +0.142 HD
ENDBRANCH   2  17
BRANCH   3  20
ATOM     20  S   UNL     1      31.863  -8.450 -21.523  0.00  0.00    -0.051 S 
BRANCH  20  24
ATOM     21  N   UNL     1      31.006  -6.627 -23.355  0.00  0.00    -0.246 N 
ATOM     22  N   UNL     1      31.957  -5.730 -21.599  0.00  0.00    -0.124 NA
ATOM     23  N   UNL     1      31.567  -4.716 -22.450  0.00  0.00    -0.128 NA
ATOM     24  C   UNL     1      31.605  -6.824 -22.177  0.00  0.00    +0.189 C 
ATOM     25  C   UNL     1      30.471  -7.575 -24.302  0.00  0.00    +0.121 C 
ATOM     26  C   UNL     1      30.999  -5.272 -23.495  0.00  0.00    +0.193 C 
ENDBRANCH  20  24
ENDBRANCH   3  20
TORSDOF 4
ENDMDL
MODEL 8
REMARK VINA RESULT:      -9.3      9.927     12.083
REMARK  Name = 9819610
REMARK  4 active torsions:
REMARK  status: ('A' for Active; 'I' for Inactive)
REMARK    1  A    between atoms: C_1  and  C_11
REMARK    2  A    between atoms: C_2  and  N_17
REMARK    3  A    between atoms: C_3  and  S_20
REMARK    4  A    between atoms: S_20  and  C_24
REMARK                            x       y       z     vdW  Elec       q    Type
REMARK                         _______ _______ _______ _____ _____    ______ ____
ROOT
ATOM      1  C   UNL     1      34.958 -23.055 -16.191  0.00  0.00    +0.067 C 
ATOM      2  C   UNL     1      35.800 -22.424 -17.106  0.00  0.00    +0.046 C 
ATOM      3  C   UNL     1      36.834 -23.410 -14.711  0.00  0.00    +0.032 C 
ATOM      4  C   UNL     1      35.475 -23.548 -14.993  0.00  0.00    +0.012 C 
ATOM      5  C   UNL     1      37.159 -22.287 -16.825  0.00  0.00    +0.015 C 
ATOM      6  C   UNL     1      37.676 -22.779 -15.627  0.00  0.00    +0.008 C 
ENDROOT
BRANCH   1  11
ATOM      7  S   UNL     1      30.834 -24.711 -13.930  0.00  0.00    -0.060 S 
ATOM      8  O   UNL     1      33.091 -22.885 -17.567  0.00  0.00    -0.270 OA
ATOM      9  N   UNL     1      32.777 -23.759 -15.413  0.00  0.00    -0.251 N 
ATOM     10  N   UNL     1      30.561 -23.855 -16.354  0.00  0.00    -0.388 NA
ATOM     11  C   UNL     1      33.533 -23.213 -16.456  0.00  0.00    +0.253 C 
ATOM     12  C   UNL     1      31.390 -24.049 -15.390  0.00  0.00    +0.213 C 
ATOM     13  C   UNL     1      29.320 -24.272 -15.915  0.00  0.00    +0.101 C 
ATOM     14  C   UNL     1      29.269 -24.765 -14.628  0.00  0.00    +0.120 C 
ATOM     15  C   UNL     1      28.173 -24.157 -16.839  0.00  0.00    +0.063 C 
ATOM     16  H   UNL     1      33.272 -23.969 -14.588  0.00  0.00    +0.158 HD
ENDBRANCH   1  11
BRANCH   2  17
ATOM     17  N   UNL     1      35.297 -21.918 -18.325  0.00  0.00    -0.357 N 
ATOM     18  H   UNL     1      34.416 -22.213 -18.655  0.00  0.00    +0.142 HD
ATOM     19  H   UNL     1      35.825 -21.270 -18.845  0.00  0.00    +0.142 HD
ENDBRANCH   2  17
BRANCH   3  20
ATOM     20  S   UNL     1      37.497 -24.040 -13.182  0.00  0.00    -0.051 S 
BRANCH  20  24
ATOM     21  N   UNL     1      38.665 -26.096 -14.530  0.00  0.00    -0.246 N 
ATOM     22  N   UNL     1      40.091 -24.626 -13.760  0.00  0.00    -0.124 NA
ATOM     23  N   UNL     1      40.796 -25.613 -14.420  0.00  0.00    -0.128 NA
ATOM     24  C   UNL     1      38.853 -24.959 -13.855  0.00  0.00    +0.189 C 
ATOM     25  C   UNL     1      37.448 -26.802 -14.853  0.00  0.00    +0.121 C 
ATOM     26  C   UNL     1      39.924 -26.484 -14.874  0.00  0.00    +0.193 C 
ENDBRANCH  20  24
ENDBRANCH   3  20
TORSDOF 4
ENDMDL
MODEL 9
REMARK VINA RESULT:      -9.2      4.329     10.214
REMARK  Name = 9819610
REMARK  4 active torsions:
REMARK  status: ('A' for Active; 'I' for Inactive)
REMARK    1  A    between atoms: C_1  and  C_11
REMARK    2  A    between atoms: C_2  and  N_17
REMARK    3  A    between atoms: C_3  and  S_20
REMARK    4  A    between atoms: S_20  and  C_24
REMARK                            x       y       z     vdW  Elec       q    Type
REMARK                         _______ _______ _______ _____ _____    ______ ____
ROOT
ATOM      1  C   UNL     1      34.268 -21.700 -18.946  0.00  0.00    +0.067 C 
ATOM      2  C   UNL     1      32.935 -21.360 -19.174  0.00  0.00    +0.046 C 
ATOM      3  C   UNL     1      34.969 -20.028 -20.543  0.00  0.00    +0.032 C 
ATOM      4  C   UNL     1      35.286 -21.034 -19.630  0.00  0.00    +0.012 C 
ATOM      5  C   UNL     1      32.618 -20.354 -20.088  0.00  0.00    +0.015 C 
ATOM      6  C   UNL     1      33.635 -19.689 -20.772  0.00  0.00    +0.008 C 
ENDROOT
BRANCH   1  11
ATOM      7  S   UNL     1      37.552 -22.539 -15.289  0.00  0.00    -0.060 S 
ATOM      8  O   UNL     1      34.012 -23.820 -18.024  0.00  0.00    -0.270 OA
ATOM      9  N   UNL     1      35.691 -22.444 -17.135  0.00  0.00    -0.251 N 
ATOM     10  N   UNL     1      35.918 -24.465 -15.841  0.00  0.00    -0.388 NA
ATOM     11  C   UNL     1      34.631 -22.746 -17.997  0.00  0.00    +0.253 C 
ATOM     12  C   UNL     1      36.274 -23.264 -16.137  0.00  0.00    +0.213 C 
ATOM     13  C   UNL     1      36.741 -24.894 -14.819  0.00  0.00    +0.101 C 
ATOM     14  C   UNL     1      37.687 -23.989 -14.385  0.00  0.00    +0.120 C 
ATOM     15  C   UNL     1      36.543 -26.257 -14.285  0.00  0.00    +0.063 C 
ATOM     16  H   UNL     1      36.084 -21.546 -17.234  0.00  0.00    +0.158 HD
ENDBRANCH   1  11
BRANCH   2  17
ATOM     17  N   UNL     1      31.891 -22.022 -18.492  0.00  0.00    -0.357 N 
ATOM     18  H   UNL     1      31.819 -23.003 -18.535  0.00  0.00    +0.142 HD
ATOM     19  H   UNL     1      31.235 -21.502 -17.973  0.00  0.00    +0.142 HD
ENDBRANCH   2  17
BRANCH   3  20
ATOM     20  S   UNL     1      36.266 -19.177 -21.419  0.00  0.00    -0.051 S 
BRANCH  20  24
ATOM     21  N   UNL     1      35.020 -17.146 -22.734  0.00  0.00    -0.246 N 
ATOM     22  N   UNL     1      35.283 -16.777 -20.593  0.00  0.00    -0.124 NA
ATOM     23  N   UNL     1      34.644 -15.686 -21.148  0.00  0.00    -0.128 NA
ATOM     24  C   UNL     1      35.478 -17.598 -21.564  0.00  0.00    +0.189 C 
ATOM     25  C   UNL     1      35.042 -17.751 -24.044  0.00  0.00    +0.121 C 
ATOM     26  C   UNL     1      34.495 -15.926 -22.431  0.00  0.00    +0.193 C 
ENDBRANCH  20  24
ENDBRANCH   3  20
TORSDOF 4
ENDMDL
