MODEL 1
REMARK VINA RESULT:     -10.3      0.000      0.000
REMARK  Name = 6852128
REMARK  5 active torsions:
REMARK  status: ('A' for Active; 'I' for Inactive)
REMARK    1  A    between atoms: N_2  and  S_19
REMARK    2  A    between atoms: N_3  and  C_7
REMARK    3  A    between atoms: C_8  and  S_13
REMARK    4  A    between atoms: S_13  and  N_16
REMARK    5  A    between atoms: S_19  and  C_22
REMARK                            x       y       z     vdW  Elec       q    Type
REMARK                         _______ _______ _______ _____ _____    ______ ____
ROOT
ATOM      1  O   UNL     1      35.164 -15.590 -23.212  0.00  0.00    -0.251 OA
ATOM      2  N   UNL     1      34.041 -17.318 -22.136  0.00  0.00    -0.169 N 
ATOM      3  N   UNL     1      33.145 -15.168 -22.117  0.00  0.00    -0.267 N 
ATOM      4  C   UNL     1      34.197 -15.954 -22.554  0.00  0.00    +0.323 C 
ATOM      5  H   UNL     1      33.216 -17.553 -21.654  0.00  0.00    +0.178 HD
ATOM      6  H   UNL     1      32.448 -15.628 -21.595  0.00  0.00    +0.156 HD
ENDROOT
BRANCH   3   7
ATOM      7  C   UNL     1      32.948 -13.783 -22.327  0.00  0.00    +0.052 C 
ATOM      8  C   UNL     1      32.561 -11.070 -22.738  0.00  0.00    +0.122 C 
ATOM      9  C   UNL     1      31.900 -11.719 -21.694  0.00  0.00    +0.021 C 
ATOM     10  C   UNL     1      33.416 -11.787 -23.574  0.00  0.00    +0.021 C 
ATOM     11  C   UNL     1      32.095 -13.085 -21.487  0.00  0.00    +0.016 C 
ATOM     12  C   UNL     1      33.610 -13.153 -23.367  0.00  0.00    +0.016 C 
BRANCH   8  13
ATOM     13  S   UNL     1      32.318  -9.361 -22.997  0.00  0.00    +0.057 S 
ATOM     14  O   UNL     1      33.369  -8.875 -23.880  0.00  0.00    -0.153 OA
ATOM     15  O   UNL     1      30.921  -9.140 -23.345  0.00  0.00    -0.153 OA
BRANCH  13  16
ATOM     16  N   UNL     1      32.595  -8.752 -21.424  0.00  0.00    -0.203 NA
ATOM     17  H   UNL     1      33.575  -8.483 -21.331  0.00  0.00    +0.144 HD
ATOM     18  H   UNL     1      32.374  -9.471 -20.737  0.00  0.00    +0.144 HD
ENDBRANCH  13  16
ENDBRANCH   8  13
ENDBRANCH   3   7
BRANCH   2  19
ATOM     19  S   UNL     1      35.177 -18.572 -22.412  0.00  0.00    +0.077 S 
ATOM     20  O   UNL     1      36.509 -18.079 -22.088  0.00  0.00    -0.150 OA
ATOM     21  O   UNL     1      34.924 -19.150 -23.725  0.00  0.00    -0.150 OA
BRANCH  19  22
ATOM     22  C   UNL     1      34.702 -19.752 -21.216  0.00  0.00    +0.125 C 
ATOM     23  C   UNL     1      33.355 -19.919 -20.896  0.00  0.00    +0.020 C 
ATOM     24  C   UNL     1      35.671 -20.529 -20.581  0.00  0.00    +0.020 C 
ATOM     25  C   UNL     1      33.945 -21.640 -19.307  0.00  0.00    -0.022 C 
ATOM     26  C   UNL     1      32.976 -20.863 -19.941  0.00  0.00    -0.003 C 
ATOM     27  C   UNL     1      35.293 -21.473 -19.627  0.00  0.00    -0.003 C 
ATOM     28  C   UNL     1      33.540 -22.649 -18.285  0.00  0.00    +0.031 C 
ENDBRANCH  19  22
ENDBRANCH   2  19
TORSDOF 5
ENDMDL
MODEL 2
REMARK VINA RESULT:     -10.2      0.984      1.507
REMARK  Name = 6852128
REMARK  5 active torsions:
REMARK  status: ('A' for Active; 'I' for Inactive)
REMARK    1  A    between atoms: N_2  and  S_19
REMARK    2  A    between atoms: N_3  and  C_7
REMARK    3  A    between atoms: C_8  and  S_13
REMARK    4  A    between atoms: S_13  and  N_16
REMARK    5  A    between atoms: S_19  and  C_22
REMARK                            x       y       z     vdW  Elec       q    Type
REMARK                         _______ _______ _______ _____ _____    ______ ____
ROOT
ATOM      1  O   UNL     1      34.975 -15.850 -22.609  0.00  0.00    -0.251 OA
ATOM      2  N   UNL     1      33.916 -17.648 -21.585  0.00  0.00    -0.169 N 
ATOM      3  N   UNL     1      32.949 -15.531 -21.492  0.00  0.00    -0.267 N 
ATOM      4  C   UNL     1      34.024 -16.267 -21.959  0.00  0.00    +0.323 C 
ATOM      5  H   UNL     1      33.102 -17.926 -21.106  0.00  0.00    +0.178 HD
ATOM      6  H   UNL     1      32.272 -16.031 -20.982  0.00  0.00    +0.156 HD
ENDROOT
BRANCH   3   7
ATOM      7  C   UNL     1      32.705 -14.147 -21.657  0.00  0.00    +0.052 C 
ATOM      8  C   UNL     1      32.226 -11.437 -21.978  0.00  0.00    +0.122 C 
ATOM      9  C   UNL     1      31.982 -12.048 -20.747  0.00  0.00    +0.021 C 
ATOM     10  C   UNL     1      32.711 -12.191 -23.046  0.00  0.00    +0.021 C 
ATOM     11  C   UNL     1      32.223 -13.412 -20.586  0.00  0.00    +0.016 C 
ATOM     12  C   UNL     1      32.952 -13.556 -22.885  0.00  0.00    +0.016 C 
BRANCH   8  13
ATOM     13  S   UNL     1      31.925  -9.730 -22.181  0.00  0.00    +0.057 S 
ATOM     14  O   UNL     1      30.683  -9.567 -22.923  0.00  0.00    -0.153 OA
ATOM     15  O   UNL     1      32.087  -9.075 -20.890  0.00  0.00    -0.153 OA
BRANCH  13  16
ATOM     16  N   UNL     1      33.231  -9.287 -23.190  0.00  0.00    -0.203 NA
ATOM     17  H   UNL     1      33.788 -10.113 -23.408  0.00  0.00    +0.144 HD
ATOM     18  H   UNL     1      33.815  -8.602 -22.710  0.00  0.00    +0.144 HD
ENDBRANCH  13  16
ENDBRANCH   8  13
ENDBRANCH   3   7
BRANCH   2  19
ATOM     19  S   UNL     1      35.092 -18.854 -21.906  0.00  0.00    +0.077 S 
ATOM     20  O   UNL     1      36.408 -18.331 -21.560  0.00  0.00    -0.150 OA
ATOM     21  O   UNL     1      34.860 -19.389 -23.240  0.00  0.00    -0.150 OA
BRANCH  19  22
ATOM     22  C   UNL     1      34.654 -20.093 -20.757  0.00  0.00    +0.125 C 
ATOM     23  C   UNL     1      35.640 -20.901 -20.193  0.00  0.00    +0.020 C 
ATOM     24  C   UNL     1      33.317 -20.274 -20.403  0.00  0.00    +0.020 C 
ATOM     25  C   UNL     1      33.954 -22.072 -18.919  0.00  0.00    -0.022 C 
ATOM     26  C   UNL     1      35.290 -21.891 -19.274  0.00  0.00    -0.003 C 
ATOM     27  C   UNL     1      32.967 -21.263 -19.484  0.00  0.00    -0.003 C 
ATOM     28  C   UNL     1      33.579 -23.130 -17.937  0.00  0.00    +0.031 C 
ENDBRANCH  19  22
ENDBRANCH   2  19
TORSDOF 5
ENDMDL
MODEL 3
REMARK VINA RESULT:      -9.9      4.637     10.059
REMARK  Name = 6852128
REMARK  5 active torsions:
REMARK  status: ('A' for Active; 'I' for Inactive)
REMARK    1  A    between atoms: N_2  and  S_19
REMARK    2  A    between atoms: N_3  and  C_7
REMARK    3  A    between atoms: C_8  and  S_13
REMARK    4  A    between atoms: S_13  and  N_16
REMARK    5  A    between atoms: S_19  and  C_22
REMARK                            x       y       z     vdW  Elec       q    Type
REMARK                         _______ _______ _______ _____ _____    ______ ____
ROOT
ATOM      1  O   UNL     1      36.516 -19.411 -20.261  0.00  0.00    -0.251 OA
ATOM      2  N   UNL     1      34.846 -19.669 -21.858  0.00  0.00    -0.169 N 
ATOM      3  N   UNL     1      34.876 -21.051 -19.983  0.00  0.00    -0.267 N 
ATOM      4  C   UNL     1      35.512 -20.007 -20.632  0.00  0.00    +0.323 C 
ATOM      5  H   UNL     1      34.016 -20.153 -22.072  0.00  0.00    +0.178 HD
ATOM      6  H   UNL     1      34.077 -21.414 -20.428  0.00  0.00    +0.156 HD
ENDROOT
BRANCH   3   7
ATOM      7  C   UNL     1      35.235 -21.660 -18.758  0.00  0.00    +0.052 C 
ATOM      8  C   UNL     1      35.939 -22.853 -16.358  0.00  0.00    +0.122 C 
ATOM      9  C   UNL     1      36.872 -22.086 -17.057  0.00  0.00    +0.021 C 
ATOM     10  C   UNL     1      34.652 -23.018 -16.867  0.00  0.00    +0.021 C 
ATOM     11  C   UNL     1      36.518 -21.486 -18.265  0.00  0.00    +0.016 C 
ATOM     12  C   UNL     1      34.297 -22.418 -18.076  0.00  0.00    +0.016 C 
BRANCH   8  13
ATOM     13  S   UNL     1      36.382 -23.603 -14.846  0.00  0.00    +0.057 S 
ATOM     14  O   UNL     1      37.569 -22.935 -14.331  0.00  0.00    -0.153 OA
ATOM     15  O   UNL     1      35.191 -23.706 -14.014  0.00  0.00    -0.153 OA
BRANCH  13  16
ATOM     16  N   UNL     1      36.819 -25.169 -15.375  0.00  0.00    -0.203 NA
ATOM     17  H   UNL     1      37.187 -25.704 -14.589  0.00  0.00    +0.144 HD
ATOM     18  H   UNL     1      37.532 -25.096 -16.100  0.00  0.00    +0.144 HD
ENDBRANCH  13  16
ENDBRANCH   8  13
ENDBRANCH   3   7
BRANCH   2  19
ATOM     19  S   UNL     1      35.381 -18.487 -22.979  0.00  0.00    +0.077 S 
ATOM     20  O   UNL     1      34.863 -18.824 -24.299  0.00  0.00    -0.150 OA
ATOM     21  O   UNL     1      36.812 -18.286 -22.799  0.00  0.00    -0.150 OA
BRANCH  19  22
ATOM     22  C   UNL     1      34.569 -17.054 -22.400  0.00  0.00    +0.125 C 
ATOM     23  C   UNL     1      34.699 -15.851 -23.093  0.00  0.00    +0.020 C 
ATOM     24  C   UNL     1      33.789 -17.114 -21.245  0.00  0.00    +0.020 C 
ATOM     25  C   UNL     1      33.269 -14.765 -21.476  0.00  0.00    -0.022 C 
ATOM     26  C   UNL     1      34.049 -14.706 -22.630  0.00  0.00    -0.003 C 
ATOM     27  C   UNL     1      33.139 -15.970 -20.783  0.00  0.00    -0.003 C 
ATOM     28  C   UNL     1      32.575 -13.542 -20.980  0.00  0.00    +0.031 C 
ENDBRANCH  19  22
ENDBRANCH   2  19
TORSDOF 5
ENDMDL
MODEL 4
REMARK VINA RESULT:      -9.7      3.480     10.383
REMARK  Name = 6852128
REMARK  5 active torsions:
REMARK  status: ('A' for Active; 'I' for Inactive)
REMARK    1  A    between atoms: N_2  and  S_19
REMARK    2  A    between atoms: N_3  and  C_7
REMARK    3  A    between atoms: C_8  and  S_13
REMARK    4  A    between atoms: S_13  and  N_16
REMARK    5  A    between atoms: S_19  and  C_22
REMARK                            x       y       z     vdW  Elec       q    Type
REMARK                         _______ _______ _______ _____ _____    ______ ____
ROOT
ATOM      1  O   UNL     1      32.013 -12.481 -22.054  0.00  0.00    -0.251 OA
ATOM      2  N   UNL     1      32.855 -10.628 -23.176  0.00  0.00    -0.169 N 
ATOM      3  N   UNL     1      33.786 -12.730 -23.553  0.00  0.00    -0.267 N 
ATOM      4  C   UNL     1      32.819 -12.027 -22.855  0.00  0.00    +0.323 C 
ATOM      5  H   UNL     1      33.494 -10.337 -23.865  0.00  0.00    +0.178 HD
ATOM      6  H   UNL     1      34.353 -12.200 -24.158  0.00  0.00    +0.156 HD
ENDROOT
BRANCH   3   7
ATOM      7  C   UNL     1      34.059 -14.116 -23.501  0.00  0.00    +0.052 C 
ATOM      8  C   UNL     1      34.595 -16.833 -23.398  0.00  0.00    +0.122 C 
ATOM      9  C   UNL     1      34.805 -16.037 -22.271  0.00  0.00    +0.021 C 
ATOM     10  C   UNL     1      34.115 -16.261 -24.575  0.00  0.00    +0.021 C 
ATOM     11  C   UNL     1      34.536 -14.670 -22.323  0.00  0.00    +0.016 C 
ATOM     12  C   UNL     1      33.845 -14.893 -24.627  0.00  0.00    +0.016 C 
BRANCH   8  13
ATOM     13  S   UNL     1      34.931 -18.545 -23.333  0.00  0.00    +0.057 S 
ATOM     14  O   UNL     1      34.168 -19.122 -22.236  0.00  0.00    -0.153 OA
ATOM     15  O   UNL     1      34.797 -19.094 -24.675  0.00  0.00    -0.153 OA
BRANCH  13  16
ATOM     16  N   UNL     1      36.586 -18.535 -22.907  0.00  0.00    -0.203 NA
ATOM     17  H   UNL     1      36.926 -19.494 -22.841  0.00  0.00    +0.144 HD
ATOM     18  H   UNL     1      36.702 -18.072 -22.006  0.00  0.00    +0.144 HD
ENDBRANCH  13  16
ENDBRANCH   8  13
ENDBRANCH   3   7
BRANCH   2  19
ATOM     19  S   UNL     1      31.871  -9.423 -22.454  0.00  0.00    +0.077 S 
ATOM     20  O   UNL     1      32.358  -9.165 -21.106  0.00  0.00    -0.150 OA
ATOM     21  O   UNL     1      30.474  -9.779 -22.658  0.00  0.00    -0.150 OA
BRANCH  19  22
ATOM     22  C   UNL     1      32.214  -8.036 -23.457  0.00  0.00    +0.125 C 
ATOM     23  C   UNL     1      31.170  -7.249 -23.940  0.00  0.00    +0.020 C 
ATOM     24  C   UNL     1      33.534  -7.714 -23.774  0.00  0.00    +0.020 C 
ATOM     25  C   UNL     1      32.764  -5.817 -25.056  0.00  0.00    -0.022 C 
ATOM     26  C   UNL     1      31.445  -6.139 -24.740  0.00  0.00    -0.003 C 
ATOM     27  C   UNL     1      33.809  -6.605 -24.573  0.00  0.00    -0.003 C 
ATOM     28  C   UNL     1      33.058  -4.631 -25.912  0.00  0.00    +0.031 C 
ENDBRANCH  19  22
ENDBRANCH   2  19
TORSDOF 5
ENDMDL
MODEL 5
REMARK VINA RESULT:      -9.4      3.746      9.539
REMARK  Name = 6852128
REMARK  5 active torsions:
REMARK  status: ('A' for Active; 'I' for Inactive)
REMARK    1  A    between atoms: N_2  and  S_19
REMARK    2  A    between atoms: N_3  and  C_7
REMARK    3  A    between atoms: C_8  and  S_13
REMARK    4  A    between atoms: S_13  and  N_16
REMARK    5  A    between atoms: S_19  and  C_22
REMARK                            x       y       z     vdW  Elec       q    Type
REMARK                         _______ _______ _______ _____ _____    ______ ____
ROOT
ATOM      1  O   UNL     1      34.071 -18.982 -24.026  0.00  0.00    -0.251 OA
ATOM      2  N   UNL     1      34.212 -16.687 -23.680  0.00  0.00    -0.169 N 
ATOM      3  N   UNL     1      34.161 -18.131 -21.853  0.00  0.00    -0.267 N 
ATOM      4  C   UNL     1      34.142 -18.050 -23.234  0.00  0.00    +0.323 C 
ATOM      5  H   UNL     1      34.317 -15.990 -22.993  0.00  0.00    +0.178 HD
ATOM      6  H   UNL     1      34.220 -17.275 -21.370  0.00  0.00    +0.156 HD
ENDROOT
BRANCH   3   7
ATOM      7  C   UNL     1      34.107 -19.294 -21.049  0.00  0.00    +0.052 C 
ATOM      8  C   UNL     1      34.002 -21.571 -19.475  0.00  0.00    +0.122 C 
ATOM      9  C   UNL     1      35.234 -21.073 -19.900  0.00  0.00    +0.021 C 
ATOM     10  C   UNL     1      32.824 -20.923 -19.842  0.00  0.00    +0.021 C 
ATOM     11  C   UNL     1      35.287 -19.926 -20.692  0.00  0.00    +0.016 C 
ATOM     12  C   UNL     1      32.876 -19.776 -20.635  0.00  0.00    +0.016 C 
BRANCH   8  13
ATOM     13  S   UNL     1      33.936 -23.006 -18.482  0.00  0.00    +0.057 S 
ATOM     14  O   UNL     1      33.888 -24.169 -19.357  0.00  0.00    -0.153 OA
ATOM     15  O   UNL     1      34.970 -22.911 -17.462  0.00  0.00    -0.153 OA
BRANCH  13  16
ATOM     16  N   UNL     1      32.410 -22.815 -17.736  0.00  0.00    -0.203 NA
ATOM     17  H   UNL     1      31.903 -22.055 -18.190  0.00  0.00    +0.144 HD
ATOM     18  H   UNL     1      32.539 -22.596 -16.749  0.00  0.00    +0.144 HD
ENDBRANCH  13  16
ENDBRANCH   8  13
ENDBRANCH   3   7
BRANCH   2  19
ATOM     19  S   UNL     1      34.128 -16.177 -25.315  0.00  0.00    +0.077 S 
ATOM     20  O   UNL     1      32.919 -16.725 -25.917  0.00  0.00    -0.150 OA
ATOM     21  O   UNL     1      35.418 -16.418 -25.946  0.00  0.00    -0.150 OA
BRANCH  19  22
ATOM     22  C   UNL     1      33.942 -14.450 -25.140  0.00  0.00    +0.125 C 
ATOM     23  C   UNL     1      34.002 -13.866 -23.875  0.00  0.00    +0.020 C 
ATOM     24  C   UNL     1      33.733 -13.653 -26.266  0.00  0.00    +0.020 C 
ATOM     25  C   UNL     1      33.647 -11.689 -24.861  0.00  0.00    -0.022 C 
ATOM     26  C   UNL     1      33.855 -12.485 -23.736  0.00  0.00    -0.003 C 
ATOM     27  C   UNL     1      33.586 -12.274 -26.127  0.00  0.00    -0.003 C 
ATOM     28  C   UNL     1      33.488 -10.214 -24.713  0.00  0.00    +0.031 C 
ENDBRANCH  19  22
ENDBRANCH   2  19
TORSDOF 5
ENDMDL
MODEL 6
REMARK VINA RESULT:      -9.2     10.958     12.740
REMARK  Name = 6852128
REMARK  5 active torsions:
REMARK  status: ('A' for Active; 'I' for Inactive)
REMARK    1  A    between atoms: N_2  and  S_19
REMARK    2  A    between atoms: N_3  and  C_7
REMARK    3  A    between atoms: C_8  and  S_13
REMARK    4  A    between atoms: S_13  and  N_16
REMARK    5  A    between atoms: S_19  and  C_22
REMARK                            x       y       z     vdW  Elec       q    Type
REMARK                         _______ _______ _______ _____ _____    ______ ____
ROOT
ATOM      1  O   UNL     1      33.341 -23.030 -12.999  0.00  0.00    -0.251 OA
ATOM      2  N   UNL     1      34.478 -25.053 -12.865  0.00  0.00    -0.169 N 
ATOM      3  N   UNL     1      32.548 -24.894 -14.162  0.00  0.00    -0.267 N 
ATOM      4  C   UNL     1      33.417 -24.206 -13.332  0.00  0.00    +0.323 C 
ATOM      5  H   UNL     1      34.508 -25.974 -13.211  0.00  0.00    +0.178 HD
ATOM      6  H   UNL     1      32.762 -25.842 -14.321  0.00  0.00    +0.156 HD
ENDROOT
BRANCH   3   7
ATOM      7  C   UNL     1      31.391 -24.402 -14.808  0.00  0.00    +0.052 C 
ATOM      8  C   UNL     1      29.124 -23.437 -16.077  0.00  0.00    +0.122 C 
ATOM      9  C   UNL     1      30.373 -22.886 -16.365  0.00  0.00    +0.021 C 
ATOM     10  C   UNL     1      29.017 -24.474 -15.151  0.00  0.00    +0.021 C 
ATOM     11  C   UNL     1      31.514 -23.371 -15.726  0.00  0.00    +0.016 C 
ATOM     12  C   UNL     1      30.158 -24.960 -14.512  0.00  0.00    +0.016 C 
BRANCH   8  13
ATOM     13  S   UNL     1      27.696 -22.830 -16.876  0.00  0.00    +0.057 S 
ATOM     14  O   UNL     1      27.986 -21.497 -17.387  0.00  0.00    -0.153 OA
ATOM     15  O   UNL     1      27.199 -23.858 -17.779  0.00  0.00    -0.153 OA
BRANCH  13  16
ATOM     16  N   UNL     1      26.619 -22.691 -15.556  0.00  0.00    -0.203 NA
ATOM     17  H   UNL     1      25.666 -22.585 -15.905  0.00  0.00    +0.144 HD
ATOM     18  H   UNL     1      26.869 -21.875 -14.998  0.00  0.00    +0.144 HD
ENDBRANCH  13  16
ENDBRANCH   8  13
ENDBRANCH   3   7
BRANCH   2  19
ATOM     19  S   UNL     1      35.698 -24.588 -11.755  0.00  0.00    +0.077 S 
ATOM     20  O   UNL     1      35.574 -25.401 -10.553  0.00  0.00    -0.150 OA
ATOM     21  O   UNL     1      35.698 -23.136 -11.644  0.00  0.00    -0.150 OA
BRANCH  19  22
ATOM     22  C   UNL     1      37.150 -25.052 -12.607  0.00  0.00    +0.125 C 
ATOM     23  C   UNL     1      37.112 -26.090 -13.537  0.00  0.00    +0.020 C 
ATOM     24  C   UNL     1      38.348 -24.382 -12.358  0.00  0.00    +0.020 C 
ATOM     25  C   UNL     1      39.470 -25.790 -13.970  0.00  0.00    -0.022 C 
ATOM     26  C   UNL     1      38.272 -26.459 -14.218  0.00  0.00    -0.003 C 
ATOM     27  C   UNL     1      39.508 -24.751 -13.039  0.00  0.00    -0.003 C 
ATOM     28  C   UNL     1      40.711 -26.185 -14.697  0.00  0.00    +0.031 C 
ENDBRANCH  19  22
ENDBRANCH   2  19
TORSDOF 5
ENDMDL
MODEL 7
REMARK VINA RESULT:      -9.2     11.876     13.879
REMARK  Name = 6852128
REMARK  5 active torsions:
REMARK  status: ('A' for Active; 'I' for Inactive)
REMARK    1  A    between atoms: N_2  and  S_19
REMARK    2  A    between atoms: N_3  and  C_7
REMARK    3  A    between atoms: C_8  and  S_13
REMARK    4  A    between atoms: S_13  and  N_16
REMARK    5  A    between atoms: S_19  and  C_22
REMARK                            x       y       z     vdW  Elec       q    Type
REMARK                         _______ _______ _______ _____ _____    ______ ____
ROOT
ATOM      1  O   UNL     1      33.979 -24.226 -12.785  0.00  0.00    -0.251 OA
ATOM      2  N   UNL     1      32.329 -24.525 -14.395  0.00  0.00    -0.169 N 
ATOM      3  N   UNL     1      34.554 -24.970 -14.922  0.00  0.00    -0.267 N 
ATOM      4  C   UNL     1      33.686 -24.551 -13.929  0.00  0.00    +0.323 C 
ATOM      5  H   UNL     1      32.158 -24.847 -15.310  0.00  0.00    +0.178 HD
ATOM      6  H   UNL     1      34.144 -25.192 -15.789  0.00  0.00    +0.156 HD
ENDROOT
BRANCH   3   7
ATOM      7  C   UNL     1      35.958 -25.121 -14.843  0.00  0.00    +0.052 C 
ATOM      8  C   UNL     1      38.709 -25.417 -14.689  0.00  0.00    +0.122 C 
ATOM      9  C   UNL     1      37.876 -26.518 -14.487  0.00  0.00    +0.021 C 
ATOM     10  C   UNL     1      38.157 -24.168 -14.970  0.00  0.00    +0.021 C 
ATOM     11  C   UNL     1      36.492 -26.369 -14.565  0.00  0.00    +0.016 C 
ATOM     12  C   UNL     1      36.772 -24.018 -15.047  0.00  0.00    +0.016 C 
BRANCH   8  13
ATOM     13  S   UNL     1      40.442 -25.603 -14.593  0.00  0.00    +0.057 S 
ATOM     14  O   UNL     1      41.037 -24.286 -14.413  0.00  0.00    -0.153 OA
ATOM     15  O   UNL     1      40.741 -26.668 -13.646  0.00  0.00    -0.153 OA
BRANCH  13  16
ATOM     16  N   UNL     1      40.798 -26.156 -16.171  0.00  0.00    -0.203 NA
ATOM     17  H   UNL     1      40.244 -26.989 -16.372  0.00  0.00    +0.144 HD
ATOM     18  H   UNL     1      41.789 -26.384 -16.236  0.00  0.00    +0.144 HD
ENDBRANCH  13  16
ENDBRANCH   8  13
ENDBRANCH   3   7
BRANCH   2  19
ATOM     19  S   UNL     1      30.982 -23.982 -13.485  0.00  0.00    +0.077 S 
ATOM     20  O   UNL     1      31.351 -22.760 -12.783  0.00  0.00    -0.150 OA
ATOM     21  O   UNL     1      30.441 -25.107 -12.734  0.00  0.00    -0.150 OA
BRANCH  19  22
ATOM     22  C   UNL     1      29.837 -23.590 -14.743  0.00  0.00    +0.125 C 
ATOM     23  C   UNL     1      29.309 -22.302 -14.830  0.00  0.00    +0.020 C 
ATOM     24  C   UNL     1      29.451 -24.565 -15.664  0.00  0.00    +0.020 C 
ATOM     25  C   UNL     1      28.010 -22.962 -16.757  0.00  0.00    -0.022 C 
ATOM     26  C   UNL     1      28.395 -21.988 -15.836  0.00  0.00    -0.003 C 
ATOM     27  C   UNL     1      28.538 -24.251 -16.670  0.00  0.00    -0.003 C 
ATOM     28  C   UNL     1      27.033 -22.628 -17.833  0.00  0.00    +0.031 C 
ENDBRANCH  19  22
ENDBRANCH   2  19
TORSDOF 5
ENDMDL
MODEL 8
REMARK VINA RESULT:      -8.9      2.680      3.713
REMARK  Name = 6852128
REMARK  5 active torsions:
REMARK  status: ('A' for Active; 'I' for Inactive)
REMARK    1  A    between atoms: N_2  and  S_19
REMARK    2  A    between atoms: N_3  and  C_7
REMARK    3  A    between atoms: C_8  and  S_13
REMARK    4  A    between atoms: S_13  and  N_16
REMARK    5  A    between atoms: S_19  and  C_22
REMARK                            x       y       z     vdW  Elec       q    Type
REMARK                         _______ _______ _______ _____ _____    ______ ____
ROOT
ATOM      1  O   UNL     1      33.164 -13.235 -25.521  0.00  0.00    -0.251 OA
ATOM      2  N   UNL     1      34.351 -14.610 -24.071  0.00  0.00    -0.169 N 
ATOM      3  N   UNL     1      34.092 -12.350 -23.570  0.00  0.00    -0.267 N 
ATOM      4  C   UNL     1      33.800 -13.350 -24.482  0.00  0.00    +0.323 C 
ATOM      5  H   UNL     1      34.809 -14.643 -23.200  0.00  0.00    +0.178 HD
ATOM      6  H   UNL     1      34.619 -12.621 -22.784  0.00  0.00    +0.156 HD
ENDROOT
BRANCH   3   7
ATOM      7  C   UNL     1      33.724 -10.985 -23.629  0.00  0.00    +0.052 C 
ATOM      8  C   UNL     1      33.006  -8.312 -23.746  0.00  0.00    +0.122 C 
ATOM      9  C   UNL     1      34.252  -8.721 -24.221  0.00  0.00    +0.021 C 
ATOM     10  C   UNL     1      32.122  -9.249 -23.213  0.00  0.00    +0.021 C 
ATOM     11  C   UNL     1      34.614 -10.066 -24.162  0.00  0.00    +0.016 C 
ATOM     12  C   UNL     1      32.483 -10.595 -23.153  0.00  0.00    +0.016 C 
BRANCH   8  13
ATOM     13  S   UNL     1      32.553  -6.627 -23.820  0.00  0.00    +0.057 S 
ATOM     14  O   UNL     1      32.514  -6.102 -22.462  0.00  0.00    -0.153 OA
ATOM     15  O   UNL     1      33.375  -5.971 -24.826  0.00  0.00    -0.153 OA
BRANCH  13  16
ATOM     16  N   UNL     1      30.953  -6.747 -24.409  0.00  0.00    -0.203 NA
ATOM     17  H   UNL     1      30.532  -7.615 -24.078  0.00  0.00    +0.144 HD
ATOM     18  H   UNL     1      30.965  -6.743 -25.428  0.00  0.00    +0.144 HD
ENDBRANCH  13  16
ENDBRANCH   8  13
ENDBRANCH   3   7
BRANCH   2  19
ATOM     19  S   UNL     1      34.275 -16.063 -24.977  0.00  0.00    +0.077 S 
ATOM     20  O   UNL     1      35.396 -16.097 -25.907  0.00  0.00    -0.150 OA
ATOM     21  O   UNL     1      32.919 -16.229 -25.481  0.00  0.00    -0.150 OA
BRANCH  19  22
ATOM     22  C   UNL     1      34.529 -17.268 -23.739  0.00  0.00    +0.125 C 
ATOM     23  C   UNL     1      34.670 -18.610 -24.090  0.00  0.00    +0.020 C 
ATOM     24  C   UNL     1      34.591 -16.887 -22.398  0.00  0.00    +0.020 C 
ATOM     25  C   UNL     1      34.937 -19.192 -21.760  0.00  0.00    -0.022 C 
ATOM     26  C   UNL     1      34.875 -19.572 -23.100  0.00  0.00    -0.003 C 
ATOM     27  C   UNL     1      34.795 -17.849 -21.409  0.00  0.00    -0.003 C 
ATOM     28  C   UNL     1      35.154 -20.220 -20.702  0.00  0.00    +0.031 C 
ENDBRANCH  19  22
ENDBRANCH   2  19
TORSDOF 5
ENDMDL
MODEL 9
REMARK VINA RESULT:      -8.8      5.979      9.346
REMARK  Name = 6852128
REMARK  5 active torsions:
REMARK  status: ('A' for Active; 'I' for Inactive)
REMARK    1  A    between atoms: N_2  and  S_19
REMARK    2  A    between atoms: N_3  and  C_7
REMARK    3  A    between atoms: C_8  and  S_13
REMARK    4  A    between atoms: S_13  and  N_16
REMARK    5  A    between atoms: S_19  and  C_22
REMARK                            x       y       z     vdW  Elec       q    Type
REMARK                         _______ _______ _______ _____ _____    ______ ____
ROOT
ATOM      1  O   UNL     1      34.812 -22.255 -16.054  0.00  0.00    -0.251 OA
ATOM      2  N   UNL     1      33.318 -24.034 -15.953  0.00  0.00    -0.169 N 
ATOM      3  N   UNL     1      33.570 -22.846 -17.941  0.00  0.00    -0.267 N 
ATOM      4  C   UNL     1      33.987 -22.956 -16.626  0.00  0.00    +0.323 C 
ATOM      5  H   UNL     1      32.705 -24.589 -16.485  0.00  0.00    +0.178 HD
ATOM      6  H   UNL     1      32.894 -23.497 -18.237  0.00  0.00    +0.156 HD
ENDROOT
BRANCH   3   7
ATOM      7  C   UNL     1      33.996 -21.911 -18.913  0.00  0.00    +0.052 C 
ATOM      8  C   UNL     1      34.834 -20.080 -20.817  0.00  0.00    +0.122 C 
ATOM      9  C   UNL     1      35.766 -20.897 -20.177  0.00  0.00    +0.021 C 
ATOM     10  C   UNL     1      33.481 -20.185 -20.498  0.00  0.00    +0.021 C 
ATOM     11  C   UNL     1      35.345 -21.818 -19.218  0.00  0.00    +0.016 C 
ATOM     12  C   UNL     1      33.059 -21.107 -19.539  0.00  0.00    +0.016 C 
BRANCH   8  13
ATOM     13  S   UNL     1      35.361 -18.927 -22.017  0.00  0.00    +0.057 S 
ATOM     14  O   UNL     1      36.764 -18.620 -21.774  0.00  0.00    -0.153 OA
ATOM     15  O   UNL     1      34.940 -19.398 -23.328  0.00  0.00    -0.153 OA
BRANCH  13  16
ATOM     16  N   UNL     1      34.419 -17.564 -21.594  0.00  0.00    -0.203 NA
ATOM     17  H   UNL     1      33.526 -17.874 -21.210  0.00  0.00    +0.144 HD
ATOM     18  H   UNL     1      34.252 -16.996 -22.423  0.00  0.00    +0.144 HD
ENDBRANCH  13  16
ENDBRANCH   8  13
ENDBRANCH   3   7
BRANCH   2  19
ATOM     19  S   UNL     1      33.505 -24.431 -14.296  0.00  0.00    +0.077 S 
ATOM     20  O   UNL     1      32.759 -25.651 -14.018  0.00  0.00    -0.150 OA
ATOM     21  O   UNL     1      33.255 -23.238 -13.499  0.00  0.00    -0.150 OA
BRANCH  19  22
ATOM     22  C   UNL     1      35.214 -24.777 -14.203  0.00  0.00    +0.125 C 
ATOM     23  C   UNL     1      36.010 -24.117 -13.269  0.00  0.00    +0.020 C 
ATOM     24  C   UNL     1      35.782 -25.717 -15.064  0.00  0.00    +0.020 C 
ATOM     25  C   UNL     1      37.944 -25.334 -14.054  0.00  0.00    -0.022 C 
ATOM     26  C   UNL     1      37.376 -24.395 -13.195  0.00  0.00    -0.003 C 
ATOM     27  C   UNL     1      37.147 -25.996 -14.990  0.00  0.00    -0.003 C 
ATOM     28  C   UNL     1      39.403 -25.632 -13.976  0.00  0.00    +0.031 C 
ENDBRANCH  19  22
ENDBRANCH   2  19
TORSDOF 5
ENDMDL
