MODEL 1
REMARK VINA RESULT:     -12.3      0.000      0.000
REMARK  Name = 25101874
REMARK  5 active torsions:
REMARK  status: ('A' for Active; 'I' for Inactive)
REMARK    1  A    between atoms: N_1  and  C_22
REMARK    2  A    between atoms: C_2  and  N_8
REMARK    3  A    between atoms: N_8  and  C_11
REMARK    4  A    between atoms: C_11  and  C_14
REMARK    5  A    between atoms: C_22  and  C_28
REMARK                            x       y       z     vdW  Elec       q    Type
REMARK                         _______ _______ _______ _____ _____    ______ ____
ROOT
ATOM      1  N   UNL     1      34.380 -19.182 -21.428  0.00  0.00    +0.388 N 
ATOM      2  C   UNL     1      34.782 -21.539 -19.741  0.00  0.00    -0.066 C 
ATOM      3  C   UNL     1      35.651 -19.918 -21.468  0.00  0.00    -0.079 C 
ATOM      4  C   UNL     1      33.255 -20.077 -21.120  0.00  0.00    -0.079 C 
ATOM      5  C   UNL     1      35.933 -20.608 -20.131  0.00  0.00    -0.044 C 
ATOM      6  C   UNL     1      33.457 -20.772 -19.771  0.00  0.00    -0.044 C 
ATOM      7  H   UNL     1      34.442 -18.489 -20.682  0.00  0.00    -0.080 HD
ENDROOT
BRANCH   2   8
ATOM      8  N   UNL     1      35.023 -22.114 -18.420  0.00  0.00    +0.389 N 
ATOM      9  H   UNL     1      35.258 -21.367 -17.767  0.00  0.00    -0.084 HD
ATOM     10  H   UNL     1      35.792 -22.781 -18.489  0.00  0.00    -0.084 HD
BRANCH   8  11
ATOM     11  C   UNL     1      33.842 -22.815 -17.938  0.00  0.00    -0.034 C 
BRANCH  11  14
ATOM     12  O   UNL     1      34.131 -24.318 -12.558  0.00  0.00    -0.474 OA
ATOM     13  N   UNL     1      32.848 -23.637 -15.877  0.00  0.00    -0.247 NA
ATOM     14  C   UNL     1      33.972 -23.203 -16.489  0.00  0.00    +0.037 C 
ATOM     15  C   UNL     1      35.206 -23.098 -15.867  0.00  0.00    +0.011 C 
ATOM     16  C   UNL     1      35.300 -23.458 -14.521  0.00  0.00    +0.015 C 
ATOM     17  C   UNL     1      36.614 -23.361 -13.801  0.00  0.00    +0.033 C 
ATOM     18  C   UNL     1      34.161 -23.934 -13.869  0.00  0.00    +0.154 C 
ATOM     19  C   UNL     1      36.396 -23.416 -12.295  0.00  0.00    +0.052 C 
ATOM     20  C   UNL     1      32.970 -23.991 -14.578  0.00  0.00    +0.135 C 
ATOM     21  C   UNL     1      35.419 -24.537 -11.970  0.00  0.00    +0.206 C 
ENDBRANCH  11  14
ENDBRANCH   8  11
ENDBRANCH   2   8
BRANCH   1  22
ATOM     22  C   UNL     1      34.150 -18.488 -22.695  0.00  0.00    -0.055 C 
BRANCH  22  28
ATOM     23  O   UNL     1      34.968 -17.233 -25.740  0.00  0.00    -0.273 OA
ATOM     24  O   UNL     1      32.896 -14.141 -19.905  0.00  0.00    -0.270 OA
ATOM     25  N   UNL     1      34.222 -16.246 -23.759  0.00  0.00    -0.261 N 
ATOM     26  N   UNL     1      33.544 -15.188 -21.872  0.00  0.00    -0.255 N 
ATOM     27  N   UNL     1      32.964 -14.317 -25.360  0.00  0.00    -0.262 NA
ATOM     28  C   UNL     1      34.754 -17.088 -22.669  0.00  0.00    +0.076 C 
ATOM     29  C   UNL     1      34.356 -16.312 -21.384  0.00  0.00    +0.113 C 
ATOM     30  C   UNL     1      33.534 -15.202 -23.233  0.00  0.00    +0.196 C 
ATOM     31  C   UNL     1      32.932 -14.288 -23.989  0.00  0.00    +0.092 C 
ATOM     32  C   UNL     1      34.360 -16.377 -25.117  0.00  0.00    +0.252 C 
ATOM     33  C   UNL     1      32.910 -14.210 -21.131  0.00  0.00    +0.251 C 
ATOM     34  C   UNL     1      32.230 -13.224 -23.306  0.00  0.00    +0.022 C 
ATOM     35  C   UNL     1      33.635 -15.294 -25.898  0.00  0.00    +0.210 C 
ATOM     36  C   UNL     1      32.202 -13.168 -21.961  0.00  0.00    +0.059 C 
ENDBRANCH  22  28
ENDBRANCH   1  22
TORSDOF 5
ENDMDL
MODEL 2
REMARK VINA RESULT:     -12.0      1.680      3.335
REMARK  Name = 25101874
REMARK  5 active torsions:
REMARK  status: ('A' for Active; 'I' for Inactive)
REMARK    1  A    between atoms: N_1  and  C_22
REMARK    2  A    between atoms: C_2  and  N_8
REMARK    3  A    between atoms: N_8  and  C_11
REMARK    4  A    between atoms: C_11  and  C_14
REMARK    5  A    between atoms: C_22  and  C_28
REMARK                            x       y       z     vdW  Elec       q    Type
REMARK                         _______ _______ _______ _____ _____    ______ ____
ROOT
ATOM      1  N   UNL     1      35.445 -18.236 -21.658  0.00  0.00    +0.388 N 
ATOM      2  C   UNL     1      35.569 -20.856 -20.361  0.00  0.00    -0.066 C 
ATOM      3  C   UNL     1      36.734 -18.918 -21.480  0.00  0.00    -0.079 C 
ATOM      4  C   UNL     1      34.350 -19.201 -21.826  0.00  0.00    -0.079 C 
ATOM      5  C   UNL     1      36.708 -19.839 -20.257  0.00  0.00    -0.044 C 
ATOM      6  C   UNL     1      34.244 -20.131 -20.615  0.00  0.00    -0.044 C 
ATOM      7  H   UNL     1      35.259 -17.694 -20.815  0.00  0.00    -0.080 HD
ENDROOT
BRANCH   2   8
ATOM      8  N   UNL     1      35.498 -21.662 -19.145  0.00  0.00    +0.389 N 
ATOM      9  H   UNL     1      35.434 -21.044 -18.337  0.00  0.00    -0.084 HD
ATOM     10  H   UNL     1      36.339 -22.238 -19.086  0.00  0.00    -0.084 HD
BRANCH   8  11
ATOM     11  C   UNL     1      34.335 -22.536 -19.171  0.00  0.00    -0.034 C 
BRANCH  11  14
ATOM     12  O   UNL     1      32.723 -23.770 -13.958  0.00  0.00    -0.474 OA
ATOM     13  N   UNL     1      34.796 -23.163 -16.867  0.00  0.00    -0.247 NA
ATOM     14  C   UNL     1      33.849 -22.865 -17.784  0.00  0.00    +0.037 C 
ATOM     15  C   UNL     1      32.489 -22.850 -17.520  0.00  0.00    +0.011 C 
ATOM     16  C   UNL     1      32.062 -23.165 -16.229  0.00  0.00    +0.015 C 
ATOM     17  C   UNL     1      30.598 -23.163 -15.893  0.00  0.00    +0.033 C 
ATOM     18  C   UNL     1      33.019 -23.452 -15.254  0.00  0.00    +0.154 C 
ATOM     19  C   UNL     1      30.357 -23.904 -14.585  0.00  0.00    +0.052 C 
ATOM     20  C   UNL     1      34.357 -23.451 -15.622  0.00  0.00    +0.135 C 
ATOM     21  C   UNL     1      31.385 -23.456 -13.556  0.00  0.00    +0.206 C 
ENDBRANCH  11  14
ENDBRANCH   8  11
ENDBRANCH   2   8
BRANCH   1  22
ATOM     22  C   UNL     1      35.503 -17.322 -22.799  0.00  0.00    -0.055 C 
BRANCH  22  28
ATOM     23  O   UNL     1      33.458 -16.139 -20.362  0.00  0.00    -0.273 OA
ATOM     24  O   UNL     1      33.789 -14.781 -27.141  0.00  0.00    -0.270 OA
ATOM     25  N   UNL     1      33.644 -15.685 -22.645  0.00  0.00    -0.261 N 
ATOM     26  N   UNL     1      33.715 -15.205 -24.861  0.00  0.00    -0.255 N 
ATOM     27  N   UNL     1      32.796 -13.078 -22.052  0.00  0.00    -0.262 NA
ATOM     28  C   UNL     1      34.103 -16.943 -23.267  0.00  0.00    +0.076 C 
ATOM     29  C   UNL     1      34.068 -16.630 -24.788  0.00  0.00    +0.113 C 
ATOM     30  C   UNL     1      33.464 -14.742 -23.605  0.00  0.00    +0.196 C 
ATOM     31  C   UNL     1      33.066 -13.504 -23.327  0.00  0.00    +0.092 C 
ATOM     32  C   UNL     1      33.378 -15.400 -21.331  0.00  0.00    +0.252 C 
ATOM     33  C   UNL     1      33.587 -14.415 -25.987  0.00  0.00    +0.251 C 
ATOM     34  C   UNL     1      32.912 -12.593 -24.440  0.00  0.00    +0.022 C 
ATOM     35  C   UNL     1      32.937 -13.963 -21.108  0.00  0.00    +0.210 C 
ATOM     36  C   UNL     1      33.156 -12.998 -25.701  0.00  0.00    +0.059 C 
ENDBRANCH  22  28
ENDBRANCH   1  22
TORSDOF 5
ENDMDL
MODEL 3
REMARK VINA RESULT:     -12.0      2.034     11.408
REMARK  Name = 25101874
REMARK  5 active torsions:
REMARK  status: ('A' for Active; 'I' for Inactive)
REMARK    1  A    between atoms: N_1  and  C_22
REMARK    2  A    between atoms: C_2  and  N_8
REMARK    3  A    between atoms: N_8  and  C_11
REMARK    4  A    between atoms: C_11  and  C_14
REMARK    5  A    between atoms: C_22  and  C_28
REMARK                            x       y       z     vdW  Elec       q    Type
REMARK                         _______ _______ _______ _____ _____    ______ ____
ROOT
ATOM      1  N   UNL     1      34.358 -22.608 -19.068  0.00  0.00    +0.388 N 
ATOM      2  C   UNL     1      34.811 -20.092 -20.491  0.00  0.00    -0.066 C 
ATOM      3  C   UNL     1      35.681 -21.970 -19.049  0.00  0.00    -0.079 C 
ATOM      4  C   UNL     1      33.286 -21.608 -19.170  0.00  0.00    -0.079 C 
ATOM      5  C   UNL     1      35.913 -21.140 -20.314  0.00  0.00    -0.044 C 
ATOM      6  C   UNL     1      33.437 -20.765 -20.439  0.00  0.00    -0.044 C 
ATOM      7  H   UNL     1      34.309 -23.205 -19.892  0.00  0.00    -0.080 HD
ENDROOT
BRANCH   2   8
ATOM      8  N   UNL     1      34.994 -19.374 -21.750  0.00  0.00    +0.389 N 
ATOM      9  H   UNL     1      34.280 -19.676 -22.414  0.00  0.00    -0.084 HD
ATOM     10  H   UNL     1      35.925 -19.581 -22.112  0.00  0.00    -0.084 HD
BRANCH   8  11
ATOM     11  C   UNL     1      34.881 -17.938 -21.548  0.00  0.00    -0.034 C 
BRANCH  11  14
ATOM     12  O   UNL     1      33.770 -15.411 -26.413  0.00  0.00    -0.474 OA
ATOM     13  N   UNL     1      34.844 -17.869 -23.978  0.00  0.00    -0.247 NA
ATOM     14  C   UNL     1      34.568 -17.213 -22.830  0.00  0.00    +0.037 C 
ATOM     15  C   UNL     1      34.027 -15.938 -22.774  0.00  0.00    +0.011 C 
ATOM     16  C   UNL     1      33.750 -15.283 -23.975  0.00  0.00    +0.015 C 
ATOM     17  C   UNL     1      33.165 -13.901 -23.968  0.00  0.00    +0.033 C 
ATOM     18  C   UNL     1      34.002 -15.947 -25.178  0.00  0.00    +0.154 C 
ATOM     19  C   UNL     1      33.323 -13.254 -25.338  0.00  0.00    +0.052 C 
ATOM     20  C   UNL     1      34.555 -17.218 -25.127  0.00  0.00    +0.135 C 
ATOM     21  C   UNL     1      32.926 -14.254 -26.414  0.00  0.00    +0.206 C 
ENDBRANCH  11  14
ENDBRANCH   8  11
ENDBRANCH   2   8
BRANCH   1  22
ATOM     22  C   UNL     1      34.173 -23.437 -17.877  0.00  0.00    -0.055 C 
BRANCH  22  28
ATOM     23  O   UNL     1      31.373 -22.888 -16.039  0.00  0.00    -0.273 OA
ATOM     24  O   UNL     1      38.010 -23.575 -14.201  0.00  0.00    -0.270 OA
ATOM     25  N   UNL     1      33.620 -23.172 -15.472  0.00  0.00    -0.261 N 
ATOM     26  N   UNL     1      35.781 -23.393 -14.820  0.00  0.00    -0.255 N 
ATOM     27  N   UNL     1      32.722 -24.334 -13.082  0.00  0.00    -0.262 NA
ATOM     28  C   UNL     1      34.391 -22.625 -16.606  0.00  0.00    +0.076 C 
ATOM     29  C   UNL     1      35.862 -22.704 -16.116  0.00  0.00    +0.113 C 
ATOM     30  C   UNL     1      34.472 -23.605 -14.508  0.00  0.00    +0.196 C 
ATOM     31  C   UNL     1      34.050 -24.160 -13.376  0.00  0.00    +0.092 C 
ATOM     32  C   UNL     1      32.263 -23.257 -15.291  0.00  0.00    +0.252 C 
ATOM     33  C   UNL     1      36.816 -23.751 -13.978  0.00  0.00    +0.251 C 
ATOM     34  C   UNL     1      35.060 -24.580 -12.430  0.00  0.00    +0.022 C 
ATOM     35  C   UNL     1      31.875 -23.910 -13.974  0.00  0.00    +0.210 C 
ATOM     36  C   UNL     1      36.368 -24.401 -12.692  0.00  0.00    +0.059 C 
ENDBRANCH  22  28
ENDBRANCH   1  22
TORSDOF 5
ENDMDL
MODEL 4
REMARK VINA RESULT:     -11.9      1.822     10.935
REMARK  Name = 25101874
REMARK  5 active torsions:
REMARK  status: ('A' for Active; 'I' for Inactive)
REMARK    1  A    between atoms: N_1  and  C_22
REMARK    2  A    between atoms: C_2  and  N_8
REMARK    3  A    between atoms: N_8  and  C_11
REMARK    4  A    between atoms: C_11  and  C_14
REMARK    5  A    between atoms: C_22  and  C_28
REMARK                            x       y       z     vdW  Elec       q    Type
REMARK                         _______ _______ _______ _____ _____    ______ ____
ROOT
ATOM      1  N   UNL     1      34.278 -22.606 -19.080  0.00  0.00    +0.388 N 
ATOM      2  C   UNL     1      34.640 -20.069 -20.491  0.00  0.00    -0.066 C 
ATOM      3  C   UNL     1      35.600 -21.969 -19.137  0.00  0.00    -0.079 C 
ATOM      4  C   UNL     1      33.203 -21.604 -19.096  0.00  0.00    -0.079 C 
ATOM      5  C   UNL     1      35.750 -21.119 -20.402  0.00  0.00    -0.044 C 
ATOM      6  C   UNL     1      33.272 -20.742 -20.360  0.00  0.00    -0.044 C 
ATOM      7  H   UNL     1      34.175 -23.190 -19.909  0.00  0.00    -0.080 HD
ENDROOT
BRANCH   2   8
ATOM      8  N   UNL     1      34.742 -19.332 -21.748  0.00  0.00    +0.389 N 
ATOM      9  H   UNL     1      33.816 -18.995 -22.015  0.00  0.00    -0.084 HD
ATOM     10  H   UNL     1      35.113 -19.957 -22.464  0.00  0.00    -0.084 HD
BRANCH   8  11
ATOM     11  C   UNL     1      35.641 -18.196 -21.611  0.00  0.00    -0.034 C 
BRANCH  11  14
ATOM     12  O   UNL     1      33.191 -13.381 -23.064  0.00  0.00    -0.474 OA
ATOM     13  N   UNL     1      35.223 -16.379 -23.172  0.00  0.00    -0.247 NA
ATOM     14  C   UNL     1      34.960 -16.896 -21.952  0.00  0.00    +0.037 C 
ATOM     15  C   UNL     1      34.119 -16.306 -21.021  0.00  0.00    +0.011 C 
ATOM     16  C   UNL     1      33.504 -15.099 -21.358  0.00  0.00    +0.015 C 
ATOM     17  C   UNL     1      32.586 -14.420 -20.384  0.00  0.00    +0.033 C 
ATOM     18  C   UNL     1      33.738 -14.553 -22.621  0.00  0.00    +0.154 C 
ATOM     19  C   UNL     1      32.362 -12.970 -20.794  0.00  0.00    +0.052 C 
ATOM     20  C   UNL     1      34.605 -15.216 -23.477  0.00  0.00    +0.135 C 
ATOM     21  C   UNL     1      32.083 -12.908 -22.289  0.00  0.00    +0.206 C 
ENDBRANCH  11  14
ENDBRANCH   8  11
ENDBRANCH   2   8
BRANCH   1  22
ATOM     22  C   UNL     1      34.169 -23.454 -17.892  0.00  0.00    -0.055 C 
BRANCH  22  28
ATOM     23  O   UNL     1      31.357 -22.979 -16.052  0.00  0.00    -0.273 OA
ATOM     24  O   UNL     1      38.010 -23.502 -14.218  0.00  0.00    -0.270 OA
ATOM     25  N   UNL     1      33.611 -23.208 -15.486  0.00  0.00    -0.261 N 
ATOM     26  N   UNL     1      35.777 -23.376 -14.836  0.00  0.00    -0.255 N 
ATOM     27  N   UNL     1      32.744 -24.397 -13.099  0.00  0.00    -0.262 NA
ATOM     28  C   UNL     1      34.367 -22.639 -16.619  0.00  0.00    +0.076 C 
ATOM     29  C   UNL     1      35.841 -22.682 -16.130  0.00  0.00    +0.113 C 
ATOM     30  C   UNL     1      34.474 -23.621 -14.524  0.00  0.00    +0.196 C 
ATOM     31  C   UNL     1      34.067 -24.189 -13.393  0.00  0.00    +0.092 C 
ATOM     32  C   UNL     1      32.257 -23.327 -15.305  0.00  0.00    +0.252 C 
ATOM     33  C   UNL     1      36.821 -23.709 -13.995  0.00  0.00    +0.251 C 
ATOM     34  C   UNL     1      35.087 -24.586 -12.448  0.00  0.00    +0.022 C 
ATOM     35  C   UNL     1      31.886 -23.993 -13.990  0.00  0.00    +0.210 C 
ATOM     36  C   UNL     1      36.391 -24.374 -12.711  0.00  0.00    +0.059 C 
ENDBRANCH  22  28
ENDBRANCH   1  22
TORSDOF 5
ENDMDL
MODEL 5
REMARK VINA RESULT:     -11.8      2.105     11.545
REMARK  Name = 25101874
REMARK  5 active torsions:
REMARK  status: ('A' for Active; 'I' for Inactive)
REMARK    1  A    between atoms: N_1  and  C_22
REMARK    2  A    between atoms: C_2  and  N_8
REMARK    3  A    between atoms: N_8  and  C_11
REMARK    4  A    between atoms: C_11  and  C_14
REMARK    5  A    between atoms: C_22  and  C_28
REMARK                            x       y       z     vdW  Elec       q    Type
REMARK                         _______ _______ _______ _____ _____    ______ ____
ROOT
ATOM      1  N   UNL     1      34.919 -21.909 -18.188  0.00  0.00    +0.388 N 
ATOM      2  C   UNL     1      34.790 -20.630 -20.817  0.00  0.00    -0.066 C 
ATOM      3  C   UNL     1      33.759 -22.124 -19.064  0.00  0.00    -0.079 C 
ATOM      4  C   UNL     1      36.144 -21.691 -18.970  0.00  0.00    -0.079 C 
ATOM      5  C   UNL     1      33.536 -20.925 -19.990  0.00  0.00    -0.044 C 
ATOM      6  C   UNL     1      36.001 -20.478 -19.892  0.00  0.00    -0.044 C 
ATOM      7  H   UNL     1      34.744 -21.068 -17.638  0.00  0.00    -0.080 HD
ENDROOT
BRANCH   2   8
ATOM      8  N   UNL     1      34.593 -19.428 -21.623  0.00  0.00    +0.389 N 
ATOM      9  H   UNL     1      33.616 -19.141 -21.563  0.00  0.00    -0.084 HD
ATOM     10  H   UNL     1      34.844 -19.638 -22.589  0.00  0.00    -0.084 HD
BRANCH   8  11
ATOM     11  C   UNL     1      35.438 -18.343 -21.148  0.00  0.00    -0.034 C 
BRANCH  11  14
ATOM     12  O   UNL     1      33.711 -13.288 -22.807  0.00  0.00    -0.474 OA
ATOM     13  N   UNL     1      34.895 -16.010 -20.730  0.00  0.00    -0.247 NA
ATOM     14  C   UNL     1      34.963 -17.003 -21.644  0.00  0.00    +0.037 C 
ATOM     15  C   UNL     1      34.626 -16.855 -22.980  0.00  0.00    +0.011 C 
ATOM     16  C   UNL     1      34.182 -15.605 -23.416  0.00  0.00    +0.015 C 
ATOM     17  C   UNL     1      33.804 -15.394 -24.853  0.00  0.00    +0.033 C 
ATOM     18  C   UNL     1      34.125 -14.553 -22.499  0.00  0.00    +0.154 C 
ATOM     19  C   UNL     1      32.994 -14.112 -25.002  0.00  0.00    +0.052 C 
ATOM     20  C   UNL     1      34.475 -14.807 -21.181  0.00  0.00    +0.135 C 
ATOM     21  C   UNL     1      33.665 -12.999 -24.210  0.00  0.00    +0.206 C 
ENDBRANCH  11  14
ENDBRANCH   8  11
ENDBRANCH   2   8
BRANCH   1  22
ATOM     22  C   UNL     1      35.087 -23.040 -17.276  0.00  0.00    -0.055 C 
BRANCH  22  28
ATOM     23  O   UNL     1      32.888 -22.675 -14.717  0.00  0.00    -0.273 OA
ATOM     24  O   UNL     1      39.572 -24.469 -14.806  0.00  0.00    -0.270 OA
ATOM     25  N   UNL     1      35.130 -23.319 -14.810  0.00  0.00    -0.261 N 
ATOM     26  N   UNL     1      37.319 -23.913 -14.788  0.00  0.00    -0.255 N 
ATOM     27  N   UNL     1      34.612 -24.934 -12.576  0.00  0.00    -0.262 NA
ATOM     28  C   UNL     1      35.708 -22.592 -15.958  0.00  0.00    +0.076 C 
ATOM     29  C   UNL     1      37.220 -22.939 -15.884  0.00  0.00    +0.113 C 
ATOM     30  C   UNL     1      36.095 -24.059 -14.209  0.00  0.00    +0.196 C 
ATOM     31  C   UNL     1      35.852 -24.830 -13.152  0.00  0.00    +0.092 C 
ATOM     32  C   UNL     1      33.852 -23.306 -14.315  0.00  0.00    +0.252 C 
ATOM     33  C   UNL     1      38.444 -24.571 -14.331  0.00  0.00    +0.251 C 
ATOM     34  C   UNL     1      36.966 -25.571 -12.604  0.00  0.00    +0.022 C 
ATOM     35  C   UNL     1      33.666 -24.219 -13.114  0.00  0.00    +0.210 C 
ATOM     36  C   UNL     1      38.195 -25.468 -13.144  0.00  0.00    +0.059 C 
ENDBRANCH  22  28
ENDBRANCH   1  22
TORSDOF 5
ENDMDL
MODEL 6
REMARK VINA RESULT:     -11.5      5.704     13.297
REMARK  Name = 25101874
REMARK  5 active torsions:
REMARK  status: ('A' for Active; 'I' for Inactive)
REMARK    1  A    between atoms: N_1  and  C_22
REMARK    2  A    between atoms: C_2  and  N_8
REMARK    3  A    between atoms: N_8  and  C_11
REMARK    4  A    between atoms: C_11  and  C_14
REMARK    5  A    between atoms: C_22  and  C_28
REMARK                            x       y       z     vdW  Elec       q    Type
REMARK                         _______ _______ _______ _____ _____    ______ ____
ROOT
ATOM      1  N   UNL     1      32.580 -12.413 -21.297  0.00  0.00    +0.388 N 
ATOM      2  C   UNL     1      31.368  -9.871 -20.502  0.00  0.00    -0.066 C 
ATOM      3  C   UNL     1      31.861 -12.298 -20.021  0.00  0.00    -0.079 C 
ATOM      4  C   UNL     1      32.015 -11.509 -22.309  0.00  0.00    -0.079 C 
ATOM      5  C   UNL     1      31.921 -10.867 -19.479  0.00  0.00    -0.044 C 
ATOM      6  C   UNL     1      32.080 -10.052 -21.845  0.00  0.00    -0.044 C 
ATOM      7  H   UNL     1      33.548 -12.139 -21.137  0.00  0.00    -0.080 HD
ENDROOT
BRANCH   2   8
ATOM      8  N   UNL     1      31.521  -8.504 -20.009  0.00  0.00    +0.389 N 
ATOM      9  H   UNL     1      31.711  -8.529 -19.007  0.00  0.00    -0.084 HD
ATOM     10  H   UNL     1      30.657  -7.992 -20.194  0.00  0.00    -0.084 HD
BRANCH   8  11
ATOM     11  C   UNL     1      32.617  -7.829 -20.687  0.00  0.00    -0.034 C 
BRANCH  11  14
ATOM     12  O   UNL     1      30.653  -3.828 -24.068  0.00  0.00    -0.474 OA
ATOM     13  N   UNL     1      31.095  -6.005 -21.205  0.00  0.00    -0.247 NA
ATOM     14  C   UNL     1      32.122  -6.769 -21.636  0.00  0.00    +0.037 C 
ATOM     15  C   UNL     1      32.727  -6.633 -22.876  0.00  0.00    +0.011 C 
ATOM     16  C   UNL     1      32.248  -5.648 -23.741  0.00  0.00    +0.015 C 
ATOM     17  C   UNL     1      32.869  -5.461 -25.095  0.00  0.00    +0.033 C 
ATOM     18  C   UNL     1      31.203  -4.826 -23.313  0.00  0.00    +0.154 C 
ATOM     19  C   UNL     1      31.952  -4.633 -25.985  0.00  0.00    +0.052 C 
ATOM     20  C   UNL     1      30.658  -5.050 -22.057  0.00  0.00    +0.135 C 
ATOM     21  C   UNL     1      31.437  -3.435 -25.201  0.00  0.00    +0.206 C 
ENDBRANCH  11  14
ENDBRANCH   8  11
ENDBRANCH   2   8
BRANCH   1  22
ATOM     22  C   UNL     1      32.556 -13.795 -21.775  0.00  0.00    -0.055 C 
BRANCH  22  28
ATOM     23  O   UNL     1      34.879 -15.379 -19.874  0.00  0.00    -0.273 OA
ATOM     24  O   UNL     1      33.468 -15.730 -26.641  0.00  0.00    -0.270 OA
ATOM     25  N   UNL     1      34.331 -15.492 -22.141  0.00  0.00    -0.261 N 
ATOM     26  N   UNL     1      33.905 -15.643 -24.363  0.00  0.00    -0.255 N 
ATOM     27  N   UNL     1      35.123 -18.181 -22.053  0.00  0.00    -0.262 NA
ATOM     28  C   UNL     1      33.849 -14.144 -22.503  0.00  0.00    +0.076 C 
ATOM     29  C   UNL     1      33.640 -14.234 -24.039  0.00  0.00    +0.113 C 
ATOM     30  C   UNL     1      34.317 -16.290 -23.238  0.00  0.00    +0.196 C 
ATOM     31  C   UNL     1      34.688 -17.567 -23.199  0.00  0.00    +0.092 C 
ATOM     32  C   UNL     1      34.775 -15.972 -20.936  0.00  0.00    +0.252 C 
ATOM     33  C   UNL     1      33.822 -16.265 -25.594  0.00  0.00    +0.251 C 
ATOM     34  C   UNL     1      34.626 -18.311 -24.438  0.00  0.00    +0.022 C 
ATOM     35  C   UNL     1      35.171 -17.438 -20.986  0.00  0.00    +0.210 C 
ATOM     36  C   UNL     1      34.218 -17.721 -25.577  0.00  0.00    +0.059 C 
ENDBRANCH  22  28
ENDBRANCH   1  22
TORSDOF 5
ENDMDL
MODEL 7
REMARK VINA RESULT:     -11.5      1.881     10.558
REMARK  Name = 25101874
REMARK  5 active torsions:
REMARK  status: ('A' for Active; 'I' for Inactive)
REMARK    1  A    between atoms: N_1  and  C_22
REMARK    2  A    between atoms: C_2  and  N_8
REMARK    3  A    between atoms: N_8  and  C_11
REMARK    4  A    between atoms: C_11  and  C_14
REMARK    5  A    between atoms: C_22  and  C_28
REMARK                            x       y       z     vdW  Elec       q    Type
REMARK                         _______ _______ _______ _____ _____    ______ ____
ROOT
ATOM      1  N   UNL     1      34.982 -21.855 -18.988  0.00  0.00    +0.388 N 
ATOM      2  C   UNL     1      34.783 -19.826 -21.086  0.00  0.00    -0.066 C 
ATOM      3  C   UNL     1      36.150 -21.040 -19.348  0.00  0.00    -0.079 C 
ATOM      4  C   UNL     1      33.731 -21.110 -19.185  0.00  0.00    -0.079 C 
ATOM      5  C   UNL     1      36.080 -20.590 -20.810  0.00  0.00    -0.044 C 
ATOM      6  C   UNL     1      33.580 -20.662 -20.641  0.00  0.00    -0.044 C 
ATOM      7  H   UNL     1      34.964 -22.667 -19.605  0.00  0.00    -0.080 HD
ENDROOT
BRANCH   2   8
ATOM      8  N   UNL     1      34.688 -19.487 -22.504  0.00  0.00    +0.389 N 
ATOM      9  H   UNL     1      33.729 -19.213 -22.719  0.00  0.00    -0.084 HD
ATOM     10  H   UNL     1      34.956 -20.304 -23.054  0.00  0.00    -0.084 HD
BRANCH   8  11
ATOM     11  C   UNL     1      35.584 -18.389 -22.835  0.00  0.00    -0.034 C 
BRANCH  11  14
ATOM     12  O   UNL     1      32.978 -13.443 -23.031  0.00  0.00    -0.474 OA
ATOM     13  N   UNL     1      34.916 -16.352 -23.983  0.00  0.00    -0.247 NA
ATOM     14  C   UNL     1      34.870 -17.063 -22.835  0.00  0.00    +0.037 C 
ATOM     15  C   UNL     1      34.219 -16.643 -21.685  0.00  0.00    +0.011 C 
ATOM     16  C   UNL     1      33.570 -15.407 -21.707  0.00  0.00    +0.015 C 
ATOM     17  C   UNL     1      32.851 -14.907 -20.488  0.00  0.00    +0.033 C 
ATOM     18  C   UNL     1      33.579 -14.662 -22.888  0.00  0.00    +0.154 C 
ATOM     19  C   UNL     1      32.576 -13.415 -20.613  0.00  0.00    +0.052 C 
ATOM     20  C   UNL     1      34.269 -15.166 -23.981  0.00  0.00    +0.135 C 
ATOM     21  C   UNL     1      32.034 -13.118 -22.003  0.00  0.00    +0.206 C 
ENDBRANCH  11  14
ENDBRANCH   8  11
ENDBRANCH   2   8
BRANCH   1  22
ATOM     22  C   UNL     1      35.089 -22.320 -17.605  0.00  0.00    -0.055 C 
BRANCH  22  28
ATOM     23  O   UNL     1      36.187 -24.609 -15.352  0.00  0.00    -0.273 OA
ATOM     24  O   UNL     1      29.815 -22.433 -16.955  0.00  0.00    -0.270 OA
ATOM     25  N   UNL     1      34.064 -23.806 -15.901  0.00  0.00    -0.261 N 
ATOM     26  N   UNL     1      31.957 -23.123 -16.389  0.00  0.00    -0.255 N 
ATOM     27  N   UNL     1      33.361 -24.243 -13.222  0.00  0.00    -0.262 NA
ATOM     28  C   UNL     1      34.123 -23.468 -17.337  0.00  0.00    +0.076 C 
ATOM     29  C   UNL     1      32.659 -23.082 -17.680  0.00  0.00    +0.113 C 
ATOM     30  C   UNL     1      32.814 -23.567 -15.429  0.00  0.00    +0.196 C 
ATOM     31  C   UNL     1      32.479 -23.770 -14.158  0.00  0.00    +0.092 C 
ATOM     32  C   UNL     1      35.035 -24.312 -15.077  0.00  0.00    +0.252 C 
ATOM     33  C   UNL     1      30.634 -22.826 -16.128  0.00  0.00    +0.251 C 
ATOM     34  C   UNL     1      31.114 -23.476 -13.780  0.00  0.00    +0.022 C 
ATOM     35  C   UNL     1      34.564 -24.504 -13.645  0.00  0.00    +0.210 C 
ATOM     36  C   UNL     1      30.228 -23.027 -14.689  0.00  0.00    +0.059 C 
ENDBRANCH  22  28
ENDBRANCH   1  22
TORSDOF 5
ENDMDL
MODEL 8
REMARK VINA RESULT:     -11.5      3.500      6.679
REMARK  Name = 25101874
REMARK  5 active torsions:
REMARK  status: ('A' for Active; 'I' for Inactive)
REMARK    1  A    between atoms: N_1  and  C_22
REMARK    2  A    between atoms: C_2  and  N_8
REMARK    3  A    between atoms: N_8  and  C_11
REMARK    4  A    between atoms: C_11  and  C_14
REMARK    5  A    between atoms: C_22  and  C_28
REMARK                            x       y       z     vdW  Elec       q    Type
REMARK                         _______ _______ _______ _____ _____    ______ ____
ROOT
ATOM      1  N   UNL     1      33.630 -13.383 -23.395  0.00  0.00    +0.388 N 
ATOM      2  C   UNL     1      34.478 -16.171 -23.657  0.00  0.00    -0.066 C 
ATOM      3  C   UNL     1      34.546 -13.978 -22.412  0.00  0.00    -0.079 C 
ATOM      4  C   UNL     1      33.812 -13.983 -24.724  0.00  0.00    -0.079 C 
ATOM      5  C   UNL     1      34.326 -15.489 -22.295  0.00  0.00    -0.044 C 
ATOM      6  C   UNL     1      33.568 -15.494 -24.685  0.00  0.00    -0.044 C 
ATOM      7  H   UNL     1      32.676 -13.576 -23.091  0.00  0.00    -0.080 HD
ENDROOT
BRANCH   2   8
ATOM      8  N   UNL     1      34.171 -17.595 -23.545  0.00  0.00    +0.389 N 
ATOM      9  H   UNL     1      34.086 -17.994 -24.480  0.00  0.00    -0.084 HD
ATOM     10  H   UNL     1      33.295 -17.701 -23.033  0.00  0.00    -0.084 HD
BRANCH   8  11
ATOM     11  C   UNL     1      35.222 -18.295 -22.822  0.00  0.00    -0.034 C 
BRANCH  11  14
ATOM     12  O   UNL     1      32.954 -21.680 -18.989  0.00  0.00    -0.474 OA
ATOM     13  N   UNL     1      33.318 -19.232 -21.635  0.00  0.00    -0.247 NA
ATOM     14  C   UNL     1      34.662 -19.220 -21.773  0.00  0.00    +0.037 C 
ATOM     15  C   UNL     1      35.529 -19.994 -21.018  0.00  0.00    +0.011 C 
ATOM     16  C   UNL     1      34.986 -20.839 -20.048  0.00  0.00    +0.015 C 
ATOM     17  C   UNL     1      35.883 -21.697 -19.203  0.00  0.00    +0.033 C 
ATOM     18  C   UNL     1      33.599 -20.891 -19.899  0.00  0.00    +0.154 C 
ATOM     19  C   UNL     1      35.127 -22.211 -17.986  0.00  0.00    +0.052 C 
ATOM     20  C   UNL     1      32.818 -20.068 -20.698  0.00  0.00    +0.135 C 
ATOM     21  C   UNL     1      33.760 -22.719 -18.421  0.00  0.00    +0.206 C 
ENDBRANCH  11  14
ENDBRANCH   8  11
ENDBRANCH   2   8
BRANCH   1  22
ATOM     22  C   UNL     1      33.818 -11.934 -23.457  0.00  0.00    -0.055 C 
BRANCH  22  28
ATOM     23  O   UNL     1      31.838 -13.194 -21.005  0.00  0.00    -0.273 OA
ATOM     24  O   UNL     1      32.604  -6.759 -23.436  0.00  0.00    -0.270 OA
ATOM     25  N   UNL     1      32.170 -11.036 -21.833  0.00  0.00    -0.261 N 
ATOM     26  N   UNL     1      32.387  -8.911 -22.594  0.00  0.00    -0.255 N 
ATOM     27  N   UNL     1      31.626 -10.111 -19.241  0.00  0.00    -0.262 NA
ATOM     28  C   UNL     1      32.495 -11.202 -23.263  0.00  0.00    +0.076 C 
ATOM     29  C   UNL     1      32.560  -9.743 -23.793  0.00  0.00    +0.113 C 
ATOM     30  C   UNL     1      32.145  -9.715 -21.522  0.00  0.00    +0.196 C 
ATOM     31  C   UNL     1      31.891  -9.273 -20.294  0.00  0.00    +0.092 C 
ATOM     32  C   UNL     1      31.889 -11.981 -20.880  0.00  0.00    +0.252 C 
ATOM     33  C   UNL     1      32.402  -7.532 -22.504  0.00  0.00    +0.251 C 
ATOM     34  C   UNL     1      31.896  -7.841 -20.093  0.00  0.00    +0.022 C 
ATOM     35  C   UNL     1      31.619 -11.385 -19.508  0.00  0.00    +0.210 C 
ATOM     36  C   UNL     1      32.137  -7.001 -21.117  0.00  0.00    +0.059 C 
ENDBRANCH  22  28
ENDBRANCH   1  22
TORSDOF 5
ENDMDL
MODEL 9
REMARK VINA RESULT:     -11.5      1.643      2.719
REMARK  Name = 25101874
REMARK  5 active torsions:
REMARK  status: ('A' for Active; 'I' for Inactive)
REMARK    1  A    between atoms: N_1  and  C_22
REMARK    2  A    between atoms: C_2  and  N_8
REMARK    3  A    between atoms: N_8  and  C_11
REMARK    4  A    between atoms: C_11  and  C_14
REMARK    5  A    between atoms: C_22  and  C_28
REMARK                            x       y       z     vdW  Elec       q    Type
REMARK                         _______ _______ _______ _____ _____    ______ ____
ROOT
ATOM      1  N   UNL     1      34.521 -20.673 -20.755  0.00  0.00    +0.388 N 
ATOM      2  C   UNL     1      35.501 -21.709 -18.200  0.00  0.00    -0.066 C 
ATOM      3  C   UNL     1      33.586 -20.948 -19.656  0.00  0.00    -0.079 C 
ATOM      4  C   UNL     1      35.839 -20.269 -20.245  0.00  0.00    -0.079 C 
ATOM      5  C   UNL     1      34.114 -22.060 -18.746  0.00  0.00    -0.044 C 
ATOM      6  C   UNL     1      36.443 -21.358 -19.355  0.00  0.00    -0.044 C 
ATOM      7  H   UNL     1      34.642 -21.534 -21.288  0.00  0.00    -0.080 HD
ENDROOT
BRANCH   2   8
ATOM      8  N   UNL     1      36.030 -22.820 -17.413  0.00  0.00    +0.389 N 
ATOM      9  H   UNL     1      36.978 -23.031 -17.727  0.00  0.00    -0.084 HD
ATOM     10  H   UNL     1      35.424 -23.631 -17.543  0.00  0.00    -0.084 HD
BRANCH   8  11
ATOM     11  C   UNL     1      36.060 -22.483 -15.998  0.00  0.00    -0.034 C 
BRANCH  11  14
ATOM     12  O   UNL     1      32.028 -24.975 -13.027  0.00  0.00    -0.474 OA
ATOM     13  N   UNL     1      35.260 -23.697 -14.049  0.00  0.00    -0.247 NA
ATOM     14  C   UNL     1      34.940 -23.145 -15.239  0.00  0.00    +0.037 C 
ATOM     15  C   UNL     1      33.666 -23.158 -15.785  0.00  0.00    +0.011 C 
ATOM     16  C   UNL     1      32.645 -23.783 -15.067  0.00  0.00    +0.015 C 
ATOM     17  C   UNL     1      31.248 -23.825 -15.615  0.00  0.00    +0.033 C 
ATOM     18  C   UNL     1      32.941 -24.341 -13.821  0.00  0.00    +0.154 C 
ATOM     19  C   UNL     1      30.424 -24.872 -14.878  0.00  0.00    +0.052 C 
ATOM     20  C   UNL     1      34.251 -24.285 -13.368  0.00  0.00    +0.135 C 
ATOM     21  C   UNL     1      30.660 -24.736 -13.381  0.00  0.00    +0.206 C 
ENDBRANCH  11  14
ENDBRANCH   8  11
ENDBRANCH   2   8
BRANCH   1  22
ATOM     22  C   UNL     1      33.979 -19.645 -21.643  0.00  0.00    -0.055 C 
BRANCH  22  28
ATOM     23  O   UNL     1      34.837 -19.709 -24.926  0.00  0.00    -0.273 OA
ATOM     24  O   UNL     1      34.764 -14.562 -20.300  0.00  0.00    -0.270 OA
ATOM     25  N   UNL     1      34.749 -18.001 -23.336  0.00  0.00    -0.261 N 
ATOM     26  N   UNL     1      34.740 -16.282 -21.858  0.00  0.00    -0.255 N 
ATOM     27  N   UNL     1      34.115 -16.264 -25.445  0.00  0.00    -0.262 NA
ATOM     28  C   UNL     1      35.056 -18.643 -22.043  0.00  0.00    +0.076 C 
ATOM     29  C   UNL     1      35.130 -17.449 -21.053  0.00  0.00    +0.113 C 
ATOM     30  C   UNL     1      34.564 -16.670 -23.151  0.00  0.00    +0.196 C 
ATOM     31  C   UNL     1      34.259 -15.844 -24.148  0.00  0.00    +0.092 C 
ATOM     32  C   UNL     1      34.667 -18.548 -24.591  0.00  0.00    +0.252 C 
ATOM     33  C   UNL     1      34.606 -14.970 -21.447  0.00  0.00    +0.251 C 
ATOM     34  C   UNL     1      34.086 -14.446 -23.818  0.00  0.00    +0.022 C 
ATOM     35  C   UNL     1      34.308 -17.533 -25.663  0.00  0.00    +0.210 C 
ATOM     36  C   UNL     1      34.241 -14.012 -22.554  0.00  0.00    +0.059 C 
ENDBRANCH  22  28
ENDBRANCH   1  22
TORSDOF 5
ENDMDL
