MODEL 1
REMARK VINA RESULT:      -7.3      0.000      0.000
REMARK  Name = 23647357
REMARK  9 active torsions:
REMARK  status: ('A' for Active; 'I' for Inactive)
REMARK    1  A    between atoms: N_2  and  CA_13
REMARK    2  A    between atoms: C_3  and  C_6
REMARK    3  A    between atoms: C_7  and  C_9
REMARK    4  A    between atoms: C_9  and  O_10
REMARK    5  A    between atoms: O_10  and  C_11
REMARK    6  A    between atoms: CA_13  and  C_15
REMARK    7  A    between atoms: CA_13  and  CB_18
REMARK    8  A    between atoms: C_15  and  O_16
REMARK    9  A    between atoms: CB_18  and  CG1_20
REMARK                            x       y       z     vdW  Elec       q    Type
REMARK                         _______ _______ _______ _____ _____    ______ ____
ROOT
ATOM      1  O   UNL     1      33.601 -24.000 -13.186  0.00  0.00    -0.272 OA
ATOM      2  N   UNL     1      35.896 -24.046 -13.580  0.00  0.00    -0.295 N 
ATOM      3  C   ACE A   0      34.575 -23.766 -13.897  0.00  0.00    +0.253 C 
ATOM      4  H   UNL     1      36.594 -23.810 -14.233  0.00  0.00    +0.150 HD
ENDROOT
BRANCH   3   6
ATOM      5  O   UNL     1      35.305 -23.669 -16.204  0.00  0.00    -0.333 OA
ATOM      6  C   UNL     1      34.437 -23.097 -15.239  0.00  0.00    +0.229 C 
ATOM      7  C   UNL     1      33.898 -23.883 -16.374  0.00  0.00    +0.250 C 
BRANCH   7   9
ATOM      8  O   UNL     1      32.233 -22.652 -17.487  0.00  0.00    -0.247 OA
ATOM      9  C   UNL     1      33.341 -23.167 -17.527  0.00  0.00    +0.347 C 
BRANCH   9  10
ATOM     10  O   UNL     1      34.203 -23.173 -18.580  0.00  0.00    -0.447 OA
BRANCH  10  11
ATOM     11  C   UNL     1      34.447 -21.896 -19.181  0.00  0.00    +0.209 C 
ATOM     12  C   UNL     1      35.919 -21.565 -19.055  0.00  0.00    +0.051 C 
ENDBRANCH  10  11
ENDBRANCH   9  10
ENDBRANCH   7   9
ENDBRANCH   3   6
BRANCH   2  13
ATOM     13  CA  UNL     1      36.298 -24.663 -12.341  0.00  0.00    +0.171 C 
BRANCH  13  15
ATOM     14  OXT UNL     1      37.098 -22.520 -11.550  0.00  0.00    -0.248 OA
ATOM     15  C   UNL     1      36.638 -23.624 -11.281  0.00  0.00    +0.332 C 
BRANCH  15  16
ATOM     16  O   UNL     1      36.402 -24.018 -10.007  0.00  0.00    -0.479 OA
ATOM     17  H   UNL     1      35.521 -24.140  -9.709  0.00  0.00    +0.295 HD
ENDBRANCH  15  16
ENDBRANCH  13  15
BRANCH  13  18
ATOM     18  CB  UNL     1      37.448 -25.683 -12.526  0.00  0.00    +0.029 C 
ATOM     19  CG2 UNL     1      37.143 -26.723 -13.613  0.00  0.00    +0.002 C 
BRANCH  18  20
ATOM     20  CG1 UNL     1      38.776 -24.943 -12.797  0.00  0.00    +0.002 C 
ATOM     21  CD1 UNL     1      39.572 -25.526 -13.957  0.00  0.00    +0.000 C 
ENDBRANCH  18  20
ENDBRANCH  13  18
ENDBRANCH   2  13
TORSDOF 9
ENDMDL
MODEL 2
REMARK VINA RESULT:      -7.1      1.951      6.544
REMARK  Name = 23647357
REMARK  9 active torsions:
REMARK  status: ('A' for Active; 'I' for Inactive)
REMARK    1  A    between atoms: N_2  and  CA_13
REMARK    2  A    between atoms: C_3  and  C_6
REMARK    3  A    between atoms: C_7  and  C_9
REMARK    4  A    between atoms: C_9  and  O_10
REMARK    5  A    between atoms: O_10  and  C_11
REMARK    6  A    between atoms: CA_13  and  C_15
REMARK    7  A    between atoms: CA_13  and  CB_18
REMARK    8  A    between atoms: C_15  and  O_16
REMARK    9  A    between atoms: CB_18  and  CG1_20
REMARK                            x       y       z     vdW  Elec       q    Type
REMARK                         _______ _______ _______ _____ _____    ______ ____
ROOT
ATOM      1  O   UNL     1      35.494 -24.929 -15.633  0.00  0.00    -0.272 OA
ATOM      2  N   UNL     1      34.000 -23.187 -15.237  0.00  0.00    -0.295 N 
ATOM      3  C   ACE A   0      35.160 -23.916 -15.023  0.00  0.00    +0.253 C 
ATOM      4  H   UNL     1      33.841 -22.388 -14.683  0.00  0.00    +0.150 HD
ENDROOT
BRANCH   3   6
ATOM      5  O   UNL     1      35.465 -23.505 -12.656  0.00  0.00    -0.333 OA
ATOM      6  C   UNL     1      36.024 -23.317 -13.946  0.00  0.00    +0.229 C 
ATOM      7  C   UNL     1      36.668 -24.221 -12.964  0.00  0.00    +0.250 C 
BRANCH   7   9
ATOM      8  O   UNL     1      37.714 -23.001 -11.248  0.00  0.00    -0.247 OA
ATOM      9  C   UNL     1      37.834 -23.738 -12.216  0.00  0.00    +0.347 C 
BRANCH   9  10
ATOM     10  O   UNL     1      38.995 -24.211 -12.745  0.00  0.00    -0.447 OA
BRANCH  10  11
ATOM     11  C   UNL     1      38.906 -25.495 -13.372  0.00  0.00    +0.209 C 
ATOM     12  C   UNL     1      40.149 -25.724 -14.207  0.00  0.00    +0.051 C 
ENDBRANCH  10  11
ENDBRANCH   9  10
ENDBRANCH   7   9
ENDBRANCH   3   6
BRANCH   2  13
ATOM     13  CA  UNL     1      33.017 -23.538 -16.230  0.00  0.00    +0.171 C 
BRANCH  13  15
ATOM     14  OXT UNL     1      32.524 -22.409 -18.314  0.00  0.00    -0.248 OA
ATOM     15  C   UNL     1      33.357 -22.943 -17.591  0.00  0.00    +0.332 C 
BRANCH  15  16
ATOM     16  O   UNL     1      34.658 -23.060 -17.948  0.00  0.00    -0.479 OA
ATOM     17  H   UNL     1      34.932 -22.806 -18.809  0.00  0.00    +0.295 HD
ENDBRANCH  15  16
ENDBRANCH  13  15
BRANCH  13  18
ATOM     18  CB  UNL     1      31.574 -23.179 -15.798  0.00  0.00    +0.029 C 
ATOM     19  CG2 UNL     1      30.586 -24.330 -16.033  0.00  0.00    +0.002 C 
BRANCH  18  20
ATOM     20  CG1 UNL     1      31.562 -22.705 -14.329  0.00  0.00    +0.002 C 
ATOM     21  CD1 UNL     1      30.864 -23.673 -13.382  0.00  0.00    +0.000 C 
ENDBRANCH  18  20
ENDBRANCH  13  18
ENDBRANCH   2  13
TORSDOF 9
ENDMDL
MODEL 3
REMARK VINA RESULT:      -7.0      8.001     10.776
REMARK  Name = 23647357
REMARK  9 active torsions:
REMARK  status: ('A' for Active; 'I' for Inactive)
REMARK    1  A    between atoms: N_2  and  CA_13
REMARK    2  A    between atoms: C_3  and  C_6
REMARK    3  A    between atoms: C_7  and  C_9
REMARK    4  A    between atoms: C_9  and  O_10
REMARK    5  A    between atoms: O_10  and  C_11
REMARK    6  A    between atoms: CA_13  and  C_15
REMARK    7  A    between atoms: CA_13  and  CB_18
REMARK    8  A    between atoms: C_15  and  O_16
REMARK    9  A    between atoms: CB_18  and  CG1_20
REMARK                            x       y       z     vdW  Elec       q    Type
REMARK                         _______ _______ _______ _____ _____    ______ ____
ROOT
ATOM      1  O   UNL     1      35.051 -15.921 -19.984  0.00  0.00    -0.272 OA
ATOM      2  N   UNL     1      34.514 -17.576 -21.532  0.00  0.00    -0.295 N 
ATOM      3  C   ACE A   0      34.408 -16.321 -20.951  0.00  0.00    +0.253 C 
ATOM      4  H   UNL     1      33.943 -17.782 -22.307  0.00  0.00    +0.150 HD
ENDROOT
BRANCH   3   6
ATOM      5  O   UNL     1      33.172 -14.239 -20.947  0.00  0.00    -0.333 OA
ATOM      6  C   UNL     1      33.407 -15.445 -21.656  0.00  0.00    +0.229 C 
ATOM      7  C   UNL     1      33.861 -14.143 -22.200  0.00  0.00    +0.250 C 
BRANCH   7   9
ATOM      8  O   UNL     1      31.998 -12.951 -22.999  0.00  0.00    -0.247 OA
ATOM      9  C   UNL     1      33.062 -13.499 -23.249  0.00  0.00    +0.347 C 
BRANCH   9  10
ATOM     10  O   UNL     1      33.660 -13.607 -24.467  0.00  0.00    -0.447 OA
BRANCH  10  11
ATOM     11  C   UNL     1      32.933 -14.360 -25.443  0.00  0.00    +0.209 C 
ATOM     12  C   UNL     1      33.613 -15.698 -25.641  0.00  0.00    +0.051 C 
ENDBRANCH  10  11
ENDBRANCH   9  10
ENDBRANCH   7   9
ENDBRANCH   3   6
BRANCH   2  13
ATOM     13  CA  UNL     1      35.419 -18.593 -21.059  0.00  0.00    +0.171 C 
BRANCH  13  15
ATOM     14  OXT UNL     1      37.784 -18.979 -21.404  0.00  0.00    -0.248 OA
ATOM     15  C   UNL     1      36.709 -18.615 -21.868  0.00  0.00    +0.332 C 
BRANCH  15  16
ATOM     16  O   UNL     1      36.582 -18.187 -23.147  0.00  0.00    -0.479 OA
ATOM     17  H   UNL     1      36.809 -17.305 -23.371  0.00  0.00    +0.295 HD
ENDBRANCH  15  16
ENDBRANCH  13  15
BRANCH  13  18
ATOM     18  CB  UNL     1      34.765 -19.995 -20.996  0.00  0.00    +0.029 C 
ATOM     19  CG2 UNL     1      35.454 -20.920 -19.983  0.00  0.00    +0.002 C 
BRANCH  18  20
ATOM     20  CG1 UNL     1      33.252 -19.863 -20.714  0.00  0.00    +0.002 C 
ATOM     21  CD1 UNL     1      32.745 -20.824 -19.647  0.00  0.00    +0.000 C 
ENDBRANCH  18  20
ENDBRANCH  13  18
ENDBRANCH   2  13
TORSDOF 9
ENDMDL
MODEL 4
REMARK VINA RESULT:      -7.0      1.746      2.242
REMARK  Name = 23647357
REMARK  9 active torsions:
REMARK  status: ('A' for Active; 'I' for Inactive)
REMARK    1  A    between atoms: N_2  and  CA_13
REMARK    2  A    between atoms: C_3  and  C_6
REMARK    3  A    between atoms: C_7  and  C_9
REMARK    4  A    between atoms: C_9  and  O_10
REMARK    5  A    between atoms: O_10  and  C_11
REMARK    6  A    between atoms: CA_13  and  C_15
REMARK    7  A    between atoms: CA_13  and  CB_18
REMARK    8  A    between atoms: C_15  and  O_16
REMARK    9  A    between atoms: CB_18  and  CG1_20
REMARK                            x       y       z     vdW  Elec       q    Type
REMARK                         _______ _______ _______ _____ _____    ______ ____
ROOT
ATOM      1  O   UNL     1      34.868 -23.944 -14.600  0.00  0.00    -0.272 OA
ATOM      2  N   UNL     1      37.080 -23.473 -14.044  0.00  0.00    -0.295 N 
ATOM      3  C   ACE A   0      35.903 -23.301 -14.757  0.00  0.00    +0.253 C 
ATOM      4  H   UNL     1      37.846 -22.895 -14.261  0.00  0.00    +0.150 HD
ENDROOT
BRANCH   3   6
ATOM      5  O   UNL     1      37.335 -21.732 -15.918  0.00  0.00    -0.333 OA
ATOM      6  C   UNL     1      36.001 -22.190 -15.767  0.00  0.00    +0.229 C 
ATOM      7  C   UNL     1      36.750 -22.434 -17.023  0.00  0.00    +0.250 C 
BRANCH   7   9
ATOM      8  O   UNL     1      37.040 -20.487 -18.309  0.00  0.00    -0.247 OA
ATOM      9  C   UNL     1      36.489 -21.571 -18.181  0.00  0.00    +0.347 C 
BRANCH   9  10
ATOM     10  O   UNL     1      35.590 -22.137 -19.031  0.00  0.00    -0.447 OA
BRANCH  10  11
ATOM     11  C   UNL     1      34.898 -21.225 -19.890  0.00  0.00    +0.209 C 
ATOM     12  C   UNL     1      33.413 -21.311 -19.608  0.00  0.00    +0.051 C 
ENDBRANCH  10  11
ENDBRANCH   9  10
ENDBRANCH   7   9
ENDBRANCH   3   6
BRANCH   2  13
ATOM     13  CA  UNL     1      37.237 -24.457 -13.002  0.00  0.00    +0.171 C 
BRANCH  13  15
ATOM     14  OXT UNL     1      38.823 -23.194 -11.678  0.00  0.00    -0.248 OA
ATOM     15  C   UNL     1      37.778 -23.834 -11.722  0.00  0.00    +0.332 C 
BRANCH  15  16
ATOM     16  O   UNL     1      37.017 -24.053 -10.623  0.00  0.00    -0.479 OA
ATOM     17  H   UNL     1      36.101 -23.854 -10.639  0.00  0.00    +0.295 HD
ENDBRANCH  15  16
ENDBRANCH  13  15
BRANCH  13  18
ATOM     18  CB  UNL     1      38.089 -25.671 -13.448  0.00  0.00    +0.029 C 
ATOM     19  CG2 UNL     1      37.230 -26.836 -13.958  0.00  0.00    +0.002 C 
BRANCH  18  20
ATOM     20  CG1 UNL     1      39.136 -25.230 -14.493  0.00  0.00    +0.002 C 
ATOM     21  CD1 UNL     1      40.497 -25.886 -14.306  0.00  0.00    +0.000 C 
ENDBRANCH  18  20
ENDBRANCH  13  18
ENDBRANCH   2  13
TORSDOF 9
ENDMDL
MODEL 5
REMARK VINA RESULT:      -7.0      3.013      6.436
REMARK  Name = 23647357
REMARK  9 active torsions:
REMARK  status: ('A' for Active; 'I' for Inactive)
REMARK    1  A    between atoms: N_2  and  CA_13
REMARK    2  A    between atoms: C_3  and  C_6
REMARK    3  A    between atoms: C_7  and  C_9
REMARK    4  A    between atoms: C_9  and  O_10
REMARK    5  A    between atoms: O_10  and  C_11
REMARK    6  A    between atoms: CA_13  and  C_15
REMARK    7  A    between atoms: CA_13  and  CB_18
REMARK    8  A    between atoms: C_15  and  O_16
REMARK    9  A    between atoms: CB_18  and  CG1_20
REMARK                            x       y       z     vdW  Elec       q    Type
REMARK                         _______ _______ _______ _____ _____    ______ ____
ROOT
ATOM      1  O   UNL     1      34.606 -23.704 -13.468  0.00  0.00    -0.272 OA
ATOM      2  N   UNL     1      32.978 -24.519 -14.920  0.00  0.00    -0.295 N 
ATOM      3  C   ACE A   0      34.273 -24.365 -14.449  0.00  0.00    +0.253 C 
ATOM      4  H   UNL     1      32.835 -25.076 -15.719  0.00  0.00    +0.150 HD
ENDROOT
BRANCH   3   6
ATOM      5  O   UNL     1      36.506 -24.435 -15.383  0.00  0.00    -0.333 OA
ATOM      6  C   UNL     1      35.277 -25.133 -15.267  0.00  0.00    +0.229 C 
ATOM      7  C   UNL     1      36.502 -25.636 -14.601  0.00  0.00    +0.250 C 
BRANCH   7   9
ATOM      8  O   UNL     1      36.807 -27.334 -16.199  0.00  0.00    -0.247 OA
ATOM      9  C   UNL     1      37.246 -26.734 -15.228  0.00  0.00    +0.347 C 
BRANCH   9  10
ATOM     10  O   UNL     1      38.427 -26.963 -14.591  0.00  0.00    -0.447 OA
BRANCH  10  11
ATOM     11  C   UNL     1      38.944 -25.859 -13.840  0.00  0.00    +0.209 C 
ATOM     12  C   UNL     1      40.327 -25.517 -14.353  0.00  0.00    +0.051 C 
ENDBRANCH  10  11
ENDBRANCH   9  10
ENDBRANCH   7   9
ENDBRANCH   3   6
BRANCH   2  13
ATOM     13  CA  UNL     1      31.832 -23.906 -14.299  0.00  0.00    +0.171 C 
BRANCH  13  15
ATOM     14  OXT UNL     1      30.340 -25.777 -14.660  0.00  0.00    -0.248 OA
ATOM     15  C   UNL     1      30.796 -24.943 -13.886  0.00  0.00    +0.332 C 
BRANCH  15  16
ATOM     16  O   UNL     1      30.405 -24.867 -12.592  0.00  0.00    -0.479 OA
ATOM     17  H   UNL     1      30.761 -25.461 -11.959  0.00  0.00    +0.295 HD
ENDBRANCH  15  16
ENDBRANCH  13  15
BRANCH  13  18
ATOM     18  CB  UNL     1      31.203 -22.790 -15.170  0.00  0.00    +0.029 C 
ATOM     19  CG2 UNL     1      31.497 -22.975 -16.665  0.00  0.00    +0.002 C 
BRANCH  18  20
ATOM     20  CG1 UNL     1      29.688 -22.691 -14.892  0.00  0.00    +0.002 C 
ATOM     21  CD1 UNL     1      28.842 -22.589 -16.155  0.00  0.00    +0.000 C 
ENDBRANCH  18  20
ENDBRANCH  13  18
ENDBRANCH   2  13
TORSDOF 9
ENDMDL
MODEL 6
REMARK VINA RESULT:      -7.0      8.100     12.493
REMARK  Name = 23647357
REMARK  9 active torsions:
REMARK  status: ('A' for Active; 'I' for Inactive)
REMARK    1  A    between atoms: N_2  and  CA_13
REMARK    2  A    between atoms: C_3  and  C_6
REMARK    3  A    between atoms: C_7  and  C_9
REMARK    4  A    between atoms: C_9  and  O_10
REMARK    5  A    between atoms: O_10  and  C_11
REMARK    6  A    between atoms: CA_13  and  C_15
REMARK    7  A    between atoms: CA_13  and  CB_18
REMARK    8  A    between atoms: C_15  and  O_16
REMARK    9  A    between atoms: CB_18  and  CG1_20
REMARK                            x       y       z     vdW  Elec       q    Type
REMARK                         _______ _______ _______ _____ _____    ______ ____
ROOT
ATOM      1  O   UNL     1      35.116 -14.708 -20.504  0.00  0.00    -0.272 OA
ATOM      2  N   UNL     1      33.551 -15.039 -22.196  0.00  0.00    -0.295 N 
ATOM      3  C   ACE A   0      34.429 -15.448 -21.204  0.00  0.00    +0.253 C 
ATOM      4  H   UNL     1      33.052 -15.728 -22.692  0.00  0.00    +0.150 HD
ENDROOT
BRANCH   3   6
ATOM      5  O   UNL     1      34.361 -17.615 -22.281  0.00  0.00    -0.333 OA
ATOM      6  C   UNL     1      34.448 -16.943 -21.035  0.00  0.00    +0.229 C 
ATOM      7  C   UNL     1      35.602 -17.705 -21.569  0.00  0.00    +0.250 C 
BRANCH   7   9
ATOM      8  O   UNL     1      36.850 -19.283 -20.352  0.00  0.00    -0.247 OA
ATOM      9  C   UNL     1      35.867 -19.049 -21.041  0.00  0.00    +0.347 C 
BRANCH   9  10
ATOM     10  O   UNL     1      34.904 -19.932 -21.421  0.00  0.00    -0.447 OA
BRANCH  10  11
ATOM     11  C   UNL     1      34.261 -20.636 -20.353  0.00  0.00    +0.209 C 
ATOM     12  C   UNL     1      32.804 -20.228 -20.300  0.00  0.00    +0.051 C 
ENDBRANCH  10  11
ENDBRANCH   9  10
ENDBRANCH   7   9
ENDBRANCH   3   6
BRANCH   2  13
ATOM     13  CA  UNL     1      33.330 -13.656 -22.537  0.00  0.00    +0.171 C 
BRANCH  13  15
ATOM     14  OXT UNL     1      32.218 -13.119 -20.455  0.00  0.00    -0.248 OA
ATOM     15  C   UNL     1      32.238 -13.034 -21.678  0.00  0.00    +0.332 C 
BRANCH  15  16
ATOM     16  O   UNL     1      31.274 -12.384 -22.373  0.00  0.00    -0.479 OA
ATOM     17  H   UNL     1      30.413 -12.751 -22.435  0.00  0.00    +0.295 HD
ENDBRANCH  15  16
ENDBRANCH  13  15
BRANCH  13  18
ATOM     18  CB  UNL     1      33.054 -13.448 -24.046  0.00  0.00    +0.029 C 
ATOM     19  CG2 UNL     1      33.855 -12.278 -24.635  0.00  0.00    +0.002 C 
BRANCH  18  20
ATOM     20  CG1 UNL     1      33.307 -14.760 -24.819  0.00  0.00    +0.002 C 
ATOM     21  CD1 UNL     1      32.949 -14.677 -26.297  0.00  0.00    +0.000 C 
ENDBRANCH  18  20
ENDBRANCH  13  18
ENDBRANCH   2  13
TORSDOF 9
ENDMDL
MODEL 7
REMARK VINA RESULT:      -7.0      2.840      4.206
REMARK  Name = 23647357
REMARK  9 active torsions:
REMARK  status: ('A' for Active; 'I' for Inactive)
REMARK    1  A    between atoms: N_2  and  CA_13
REMARK    2  A    between atoms: C_3  and  C_6
REMARK    3  A    between atoms: C_7  and  C_9
REMARK    4  A    between atoms: C_9  and  O_10
REMARK    5  A    between atoms: O_10  and  C_11
REMARK    6  A    between atoms: CA_13  and  C_15
REMARK    7  A    between atoms: CA_13  and  CB_18
REMARK    8  A    between atoms: C_15  and  O_16
REMARK    9  A    between atoms: CB_18  and  CG1_20
REMARK                            x       y       z     vdW  Elec       q    Type
REMARK                         _______ _______ _______ _____ _____    ______ ____
ROOT
ATOM      1  O   UNL     1      34.467 -24.167 -16.138  0.00  0.00    -0.272 OA
ATOM      2  N   UNL     1      35.444 -25.152 -14.267  0.00  0.00    -0.295 N 
ATOM      3  C   ACE A   0      34.395 -24.608 -14.994  0.00  0.00    +0.253 C 
ATOM      4  H   UNL     1      35.263 -25.474 -13.355  0.00  0.00    +0.150 HD
ENDROOT
BRANCH   3   6
ATOM      5  O   UNL     1      33.193 -23.921 -13.007  0.00  0.00    -0.333 OA
ATOM      6  C   UNL     1      33.097 -24.630 -14.232  0.00  0.00    +0.229 C 
ATOM      7  C   UNL     1      32.367 -23.356 -14.032  0.00  0.00    +0.250 C 
BRANCH   7   9
ATOM      8  O   UNL     1      30.522 -23.976 -12.713  0.00  0.00    -0.247 OA
ATOM      9  C   UNL     1      30.936 -23.404 -13.711  0.00  0.00    +0.347 C 
BRANCH   9  10
ATOM     10  O   UNL     1      30.193 -22.753 -14.647  0.00  0.00    -0.447 OA
BRANCH  10  11
ATOM     11  C   UNL     1      30.117 -23.393 -15.925  0.00  0.00    +0.209 C 
ATOM     12  C   UNL     1      28.980 -24.393 -15.909  0.00  0.00    +0.051 C 
ENDBRANCH  10  11
ENDBRANCH   9  10
ENDBRANCH   7   9
ENDBRANCH   3   6
BRANCH   2  13
ATOM     13  CA  UNL     1      36.785 -25.269 -14.781  0.00  0.00    +0.171 C 
BRANCH  13  15
ATOM     14  OXT UNL     1      38.455 -27.021 -14.835  0.00  0.00    -0.248 OA
ATOM     15  C   UNL     1      37.461 -26.545 -14.297  0.00  0.00    +0.332 C 
BRANCH  15  16
ATOM     16  O   UNL     1      36.869 -27.126 -13.227  0.00  0.00    -0.479 OA
ATOM     17  H   UNL     1      36.440 -27.955 -13.320  0.00  0.00    +0.295 HD
ENDBRANCH  15  16
ENDBRANCH  13  15
BRANCH  13  18
ATOM     18  CB  UNL     1      37.651 -24.020 -14.486  0.00  0.00    +0.029 C 
ATOM     19  CG2 UNL     1      37.666 -23.025 -15.655  0.00  0.00    +0.002 C 
BRANCH  18  20
ATOM     20  CG1 UNL     1      37.191 -23.353 -13.172  0.00  0.00    +0.002 C 
ATOM     21  CD1 UNL     1      37.999 -23.784 -11.955  0.00  0.00    +0.000 C 
ENDBRANCH  18  20
ENDBRANCH  13  18
ENDBRANCH   2  13
TORSDOF 9
ENDMDL
MODEL 8
REMARK VINA RESULT:      -7.0      2.431      3.817
REMARK  Name = 23647357
REMARK  9 active torsions:
REMARK  status: ('A' for Active; 'I' for Inactive)
REMARK    1  A    between atoms: N_2  and  CA_13
REMARK    2  A    between atoms: C_3  and  C_6
REMARK    3  A    between atoms: C_7  and  C_9
REMARK    4  A    between atoms: C_9  and  O_10
REMARK    5  A    between atoms: O_10  and  C_11
REMARK    6  A    between atoms: CA_13  and  C_15
REMARK    7  A    between atoms: CA_13  and  CB_18
REMARK    8  A    between atoms: C_15  and  O_16
REMARK    9  A    between atoms: CB_18  and  CG1_20
REMARK                            x       y       z     vdW  Elec       q    Type
REMARK                         _______ _______ _______ _____ _____    ______ ____
ROOT
ATOM      1  O   UNL     1      37.611 -22.817 -16.131  0.00  0.00    -0.272 OA
ATOM      2  N   UNL     1      36.249 -24.323 -14.992  0.00  0.00    -0.295 N 
ATOM      3  C   ACE A   0      36.500 -23.243 -15.824  0.00  0.00    +0.253 C 
ATOM      4  H   UNL     1      35.312 -24.572 -14.820  0.00  0.00    +0.150 HD
ENDROOT
BRANCH   3   6
ATOM      5  O   UNL     1      35.243 -22.565 -17.779  0.00  0.00    -0.333 OA
ATOM      6  C   UNL     1      35.237 -22.626 -16.362  0.00  0.00    +0.229 C 
ATOM      7  C   UNL     1      34.318 -23.470 -17.163  0.00  0.00    +0.250 C 
BRANCH   7   9
ATOM      8  O   UNL     1      32.527 -22.456 -18.300  0.00  0.00    -0.247 OA
ATOM      9  C   UNL     1      32.919 -23.051 -17.306  0.00  0.00    +0.347 C 
BRANCH   9  10
ATOM     10  O   UNL     1      32.178 -23.408 -16.222  0.00  0.00    -0.447 OA
BRANCH  10  11
ATOM     11  C   UNL     1      30.812 -22.981 -16.243  0.00  0.00    +0.209 C 
ATOM     12  C   UNL     1      30.236 -23.101 -14.848  0.00  0.00    +0.051 C 
ENDBRANCH  10  11
ENDBRANCH   9  10
ENDBRANCH   7   9
ENDBRANCH   3   6
BRANCH   2  13
ATOM     13  CA  UNL     1      37.289 -25.101 -14.369  0.00  0.00    +0.171 C 
BRANCH  13  15
ATOM     14  OXT UNL     1      38.297 -27.272 -14.729  0.00  0.00    -0.248 OA
ATOM     15  C   UNL     1      37.368 -26.504 -14.955  0.00  0.00    +0.332 C 
BRANCH  15  16
ATOM     16  O   UNL     1      36.332 -26.839 -15.760  0.00  0.00    -0.479 OA
ATOM     17  H   UNL     1      35.837 -26.169 -16.190  0.00  0.00    +0.295 HD
ENDBRANCH  15  16
ENDBRANCH  13  15
BRANCH  13  18
ATOM     18  CB  UNL     1      37.168 -25.136 -12.825  0.00  0.00    +0.029 C 
ATOM     19  CG2 UNL     1      38.257 -24.306 -12.131  0.00  0.00    +0.002 C 
BRANCH  18  20
ATOM     20  CG1 UNL     1      35.752 -24.697 -12.394  0.00  0.00    +0.002 C 
ATOM     21  CD1 UNL     1      35.659 -24.297 -10.927  0.00  0.00    +0.000 C 
ENDBRANCH  18  20
ENDBRANCH  13  18
ENDBRANCH   2  13
TORSDOF 9
ENDMDL
MODEL 9
REMARK VINA RESULT:      -6.9     10.000     14.225
REMARK  Name = 23647357
REMARK  9 active torsions:
REMARK  status: ('A' for Active; 'I' for Inactive)
REMARK    1  A    between atoms: N_2  and  CA_13
REMARK    2  A    between atoms: C_3  and  C_6
REMARK    3  A    between atoms: C_7  and  C_9
REMARK    4  A    between atoms: C_9  and  O_10
REMARK    5  A    between atoms: O_10  and  C_11
REMARK    6  A    between atoms: CA_13  and  C_15
REMARK    7  A    between atoms: CA_13  and  CB_18
REMARK    8  A    between atoms: C_15  and  O_16
REMARK    9  A    between atoms: CB_18  and  CG1_20
REMARK                            x       y       z     vdW  Elec       q    Type
REMARK                         _______ _______ _______ _____ _____    ______ ____
ROOT
ATOM      1  O   UNL     1      33.238 -14.709 -24.631  0.00  0.00    -0.272 OA
ATOM      2  N   UNL     1      34.048 -13.049 -23.213  0.00  0.00    -0.295 N 
ATOM      3  C   ACE A   0      33.908 -14.352 -23.665  0.00  0.00    +0.253 C 
ATOM      4  H   UNL     1      34.615 -12.886 -22.424  0.00  0.00    +0.150 HD
ENDROOT
BRANCH   3   6
ATOM      5  O   UNL     1      34.669 -15.015 -21.464  0.00  0.00    -0.333 OA
ATOM      6  C   UNL     1      34.705 -15.332 -22.846  0.00  0.00    +0.229 C 
ATOM      7  C   UNL     1      33.989 -16.204 -21.885  0.00  0.00    +0.250 C 
BRANCH   7   9
ATOM      8  O   UNL     1      35.494 -17.420 -20.548  0.00  0.00    -0.247 OA
ATOM      9  C   UNL     1      34.642 -17.436 -21.426  0.00  0.00    +0.347 C 
BRANCH   9  10
ATOM     10  O   UNL     1      34.176 -18.525 -22.094  0.00  0.00    -0.447 OA
BRANCH  10  11
ATOM     11  C   UNL     1      34.179 -19.749 -21.352  0.00  0.00    +0.209 C 
ATOM     12  C   UNL     1      32.858 -19.890 -20.626  0.00  0.00    +0.051 C 
ENDBRANCH  10  11
ENDBRANCH   9  10
ENDBRANCH   7   9
ENDBRANCH   3   6
BRANCH   2  13
ATOM     13  CA  UNL     1      33.407 -11.920 -23.839  0.00  0.00    +0.171 C 
BRANCH  13  15
ATOM     14  OXT UNL     1      34.367 -11.249 -25.958  0.00  0.00    -0.248 OA
ATOM     15  C   UNL     1      34.371 -11.154 -24.735  0.00  0.00    +0.332 C 
BRANCH  15  16
ATOM     16  O   UNL     1      35.248 -10.362 -24.074  0.00  0.00    -0.479 OA
ATOM     17  H   UNL     1      36.095 -10.193 -24.439  0.00  0.00    +0.295 HD
ENDBRANCH  15  16
ENDBRANCH  13  15
BRANCH  13  18
ATOM     18  CB  UNL     1      32.712 -10.984 -22.821  0.00  0.00    +0.029 C 
ATOM     19  CG2 UNL     1      32.161  -9.709 -23.474  0.00  0.00    +0.002 C 
BRANCH  18  20
ATOM     20  CG1 UNL     1      31.614 -11.754 -22.055  0.00  0.00    +0.002 C 
ATOM     21  CD1 UNL     1      31.286 -11.154 -20.694  0.00  0.00    +0.000 C 
ENDBRANCH  18  20
ENDBRANCH  13  18
ENDBRANCH   2  13
TORSDOF 9
ENDMDL
