MODEL 1
REMARK VINA RESULT:      -8.8      0.000      0.000
REMARK  Name = 72194
REMARK  3 active torsions:
REMARK  status: ('A' for Active; 'I' for Inactive)
REMARK    1  A    between atoms: N_2  and  C_12
REMARK    2  A    between atoms: C_15  and  C_16
REMARK    3  A    between atoms: C_16  and  O_17
REMARK                            x       y       z     vdW  Elec       q    Type
REMARK                         _______ _______ _______ _____ _____    ______ ____
ROOT
ATOM      1 CL   UNL     1      37.394 -22.304 -17.239  0.00  0.00    +0.024 Cl
ATOM      2  N   UNL     1      34.607 -19.982 -20.711  0.00  0.00    -0.238 N 
ATOM      3  N   UNL     1      32.692 -21.014 -20.228  0.00  0.00    -0.240 NA
ATOM      4  N   UNL     1      36.071 -21.029 -19.079  0.00  0.00    -0.314 NA
ATOM      5  N   UNL     1      34.859 -22.651 -17.716  0.00  0.00    -0.314 NA
ATOM      6  C   UNL     1      34.889 -20.837 -19.685  0.00  0.00    +0.221 C 
ATOM      7  C   UNL     1      33.276 -20.124 -21.002  0.00  0.00    +0.224 C 
ATOM      8  C   UNL     1      33.688 -21.468 -19.399  0.00  0.00    +0.167 C 
ATOM      9  C   UNL     1      33.699 -22.406 -18.372  0.00  0.00    +0.212 C 
ATOM     10  C   UNL     1      35.956 -21.957 -18.104  0.00  0.00    +0.207 C 
ATOM     11  N   UNL     1      32.527 -23.095 -18.015  0.00  0.00    -0.331 N 
ATOM     12  H   UNL     1      32.547 -23.757 -17.287  0.00  0.00    +0.145 HD
ATOM     13  H   UNL     1      31.685 -22.916 -18.495  0.00  0.00    +0.145 HD
ENDROOT
BRANCH   2  15
ATOM     14  O   UNL     1      35.428 -17.762 -20.809  0.00  0.00    -0.337 OA
ATOM     15  C   UNL     1      35.544 -19.077 -21.381  0.00  0.00    +0.195 C 
ATOM     16  C   UNL     1      35.310 -18.952 -22.882  0.00  0.00    +0.054 C 
ATOM     17  C   UNL     1      34.627 -17.611 -23.018  0.00  0.00    +0.037 C 
ATOM     18  C   UNL     1      35.257 -16.824 -21.883  0.00  0.00    +0.146 C 
BRANCH  18  19
ATOM     19  C   UNL     1      34.415 -15.653 -21.416  0.00  0.00    +0.167 C 
BRANCH  19  20
ATOM     20  O   UNL     1      34.913 -15.197 -20.168  0.00  0.00    -0.379 OA
ATOM     21  H   UNL     1      34.782 -14.238 -20.098  0.00  0.00    +0.211 HD
ENDBRANCH  19  20
ENDBRANCH  18  19
ENDBRANCH   2  15
TORSDOF 3
ENDMDL
MODEL 2
REMARK VINA RESULT:      -8.3      5.479      8.086
REMARK  Name = 72194
REMARK  3 active torsions:
REMARK  status: ('A' for Active; 'I' for Inactive)
REMARK    1  A    between atoms: N_2  and  C_12
REMARK    2  A    between atoms: C_15  and  C_16
REMARK    3  A    between atoms: C_16  and  O_17
REMARK                            x       y       z     vdW  Elec       q    Type
REMARK                         _______ _______ _______ _____ _____    ______ ____
ROOT
ATOM      1 CL   UNL     1      33.906 -22.320 -19.551  0.00  0.00    +0.024 Cl
ATOM      2  N   UNL     1      34.598 -23.687 -14.769  0.00  0.00    -0.238 N 
ATOM      3  N   UNL     1      32.441 -23.774 -14.218  0.00  0.00    -0.240 NA
ATOM      4  N   UNL     1      34.409 -23.024 -17.099  0.00  0.00    -0.314 NA
ATOM      5  N   UNL     1      32.074 -22.765 -17.758  0.00  0.00    -0.314 NA
ATOM      6  C   UNL     1      33.908 -23.347 -15.896  0.00  0.00    +0.221 C 
ATOM      7  C   UNL     1      33.675 -23.934 -13.789  0.00  0.00    +0.224 C 
ATOM      8  C   UNL     1      32.571 -23.407 -15.535  0.00  0.00    +0.167 C 
ATOM      9  C   UNL     1      31.638 -23.101 -16.519  0.00  0.00    +0.212 C 
ATOM     10  C   UNL     1      33.412 -22.749 -17.968  0.00  0.00    +0.207 C 
ATOM     11  N   UNL     1      30.261 -23.135 -16.241  0.00  0.00    -0.331 N 
ATOM     12  H   UNL     1      29.610 -22.916 -16.945  0.00  0.00    +0.145 HD
ATOM     13  H   UNL     1      29.947 -23.378 -15.339  0.00  0.00    +0.145 HD
ENDROOT
BRANCH   2  15
ATOM     14  O   UNL     1      36.542 -24.890 -15.391  0.00  0.00    -0.337 OA
ATOM     15  C   UNL     1      36.053 -23.774 -14.625  0.00  0.00    +0.195 C 
ATOM     16  C   UNL     1      36.518 -23.962 -13.185  0.00  0.00    +0.054 C 
ATOM     17  C   UNL     1      36.880 -25.427 -13.124  0.00  0.00    +0.037 C 
ATOM     18  C   UNL     1      37.377 -25.685 -14.535  0.00  0.00    +0.146 C 
BRANCH  18  19
ATOM     19  C   UNL     1      37.301 -27.142 -14.948  0.00  0.00    +0.167 C 
BRANCH  19  20
ATOM     20  O   UNL     1      36.766 -27.220 -16.261  0.00  0.00    -0.379 OA
ATOM     21  H   UNL     1      36.476 -26.339 -16.545  0.00  0.00    +0.211 HD
ENDBRANCH  19  20
ENDBRANCH  18  19
ENDBRANCH   2  15
TORSDOF 3
ENDMDL
MODEL 3
REMARK VINA RESULT:      -8.2      5.109      7.284
REMARK  Name = 72194
REMARK  3 active torsions:
REMARK  status: ('A' for Active; 'I' for Inactive)
REMARK    1  A    between atoms: N_2  and  C_12
REMARK    2  A    between atoms: C_15  and  C_16
REMARK    3  A    between atoms: C_16  and  O_17
REMARK                            x       y       z     vdW  Elec       q    Type
REMARK                         _______ _______ _______ _____ _____    ______ ____
ROOT
ATOM      1 CL   UNL     1      33.103 -14.688 -26.336  0.00  0.00    +0.024 Cl
ATOM      2  N   UNL     1      34.517 -15.985 -21.696  0.00  0.00    -0.238 N 
ATOM      3  N   UNL     1      33.371 -14.399 -20.631  0.00  0.00    -0.240 NA
ATOM      4  N   UNL     1      33.916 -15.467 -23.992  0.00  0.00    -0.314 NA
ATOM      5  N   UNL     1      32.410 -13.550 -24.100  0.00  0.00    -0.314 NA
ATOM      6  C   UNL     1      33.876 -15.269 -22.665  0.00  0.00    +0.221 C 
ATOM      7  C   UNL     1      34.183 -15.426 -20.492  0.00  0.00    +0.224 C 
ATOM      8  C   UNL     1      33.169 -14.290 -21.985  0.00  0.00    +0.167 C 
ATOM      9  C   UNL     1      32.416 -13.409 -22.753  0.00  0.00    +0.212 C 
ATOM     10  C   UNL     1      33.148 -14.555 -24.628  0.00  0.00    +0.207 C 
ATOM     11  N   UNL     1      31.669 -12.384 -22.146  0.00  0.00    -0.331 N 
ATOM     12  H   UNL     1      31.139 -11.767 -22.700  0.00  0.00    +0.145 HD
ATOM     13  H   UNL     1      31.676 -12.284 -21.166  0.00  0.00    +0.145 HD
ENDROOT
BRANCH   2  15
ATOM     14  O   UNL     1      35.475 -17.442 -23.300  0.00  0.00    -0.337 OA
ATOM     15  C   UNL     1      35.399 -17.138 -21.896  0.00  0.00    +0.195 C 
ATOM     16  C   UNL     1      34.936 -18.398 -21.173  0.00  0.00    +0.054 C 
ATOM     17  C   UNL     1      34.342 -19.237 -22.281  0.00  0.00    +0.037 C 
ATOM     18  C   UNL     1      35.203 -18.843 -23.467  0.00  0.00    +0.146 C 
BRANCH  18  19
ATOM     19  C   UNL     1      34.536 -19.083 -24.807  0.00  0.00    +0.167 C 
BRANCH  19  20
ATOM     20  O   UNL     1      34.535 -17.870 -25.544  0.00  0.00    -0.379 OA
ATOM     21  H   UNL     1      35.439 -17.523 -25.599  0.00  0.00    +0.211 HD
ENDBRANCH  19  20
ENDBRANCH  18  19
ENDBRANCH   2  15
TORSDOF 3
ENDMDL
MODEL 4
REMARK VINA RESULT:      -8.1      6.250      8.446
REMARK  Name = 72194
REMARK  3 active torsions:
REMARK  status: ('A' for Active; 'I' for Inactive)
REMARK    1  A    between atoms: N_2  and  C_12
REMARK    2  A    between atoms: C_15  and  C_16
REMARK    3  A    between atoms: C_16  and  O_17
REMARK                            x       y       z     vdW  Elec       q    Type
REMARK                         _______ _______ _______ _____ _____    ______ ____
ROOT
ATOM      1 CL   UNL     1      31.429 -24.795 -13.576  0.00  0.00    +0.024 Cl
ATOM      2  N   UNL     1      36.110 -23.629 -14.969  0.00  0.00    -0.238 N 
ATOM      3  N   UNL     1      35.577 -22.794 -16.965  0.00  0.00    -0.240 NA
ATOM      4  N   UNL     1      33.900 -24.245 -14.170  0.00  0.00    -0.314 NA
ATOM      5  N   UNL     1      32.182 -23.704 -15.816  0.00  0.00    -0.314 NA
ATOM      6  C   UNL     1      34.754 -23.739 -15.074  0.00  0.00    +0.221 C 
ATOM      7  C   UNL     1      36.559 -23.055 -16.128  0.00  0.00    +0.224 C 
ATOM      8  C   UNL     1      34.442 -23.216 -16.319  0.00  0.00    +0.167 C 
ATOM      9  C   UNL     1      33.100 -23.209 -16.681  0.00  0.00    +0.212 C 
ATOM     10  C   UNL     1      32.632 -24.183 -14.632  0.00  0.00    +0.207 C 
ATOM     11  N   UNL     1      32.693 -22.698 -17.926  0.00  0.00    -0.331 N 
ATOM     12  H   UNL     1      31.740 -22.699 -18.171  0.00  0.00    +0.145 HD
ATOM     13  H   UNL     1      33.363 -22.340 -18.553  0.00  0.00    +0.145 HD
ENDROOT
BRANCH   2  15
ATOM     14  O   UNL     1      38.328 -23.905 -14.183  0.00  0.00    -0.337 OA
ATOM     15  C   UNL     1      36.938 -24.041 -13.834  0.00  0.00    +0.195 C 
ATOM     16  C   UNL     1      36.709 -25.484 -13.398  0.00  0.00    +0.054 C 
ATOM     17  C   UNL     1      37.912 -26.211 -13.955  0.00  0.00    +0.037 C 
ATOM     18  C   UNL     1      38.987 -25.143 -13.874  0.00  0.00    +0.146 C 
BRANCH  18  19
ATOM     19  C   UNL     1      40.138 -25.368 -14.835  0.00  0.00    +0.167 C 
BRANCH  19  20
ATOM     20  O   UNL     1      40.980 -26.385 -14.314  0.00  0.00    -0.379 OA
ATOM     21  H   UNL     1      40.470 -26.952 -13.714  0.00  0.00    +0.211 HD
ENDBRANCH  19  20
ENDBRANCH  18  19
ENDBRANCH   2  15
TORSDOF 3
ENDMDL
MODEL 5
REMARK VINA RESULT:      -8.0      5.716      8.157
REMARK  Name = 72194
REMARK  3 active torsions:
REMARK  status: ('A' for Active; 'I' for Inactive)
REMARK    1  A    between atoms: N_2  and  C_12
REMARK    2  A    between atoms: C_15  and  C_16
REMARK    3  A    between atoms: C_16  and  O_17
REMARK                            x       y       z     vdW  Elec       q    Type
REMARK                         _______ _______ _______ _____ _____    ______ ____
ROOT
ATOM      1 CL   UNL     1      34.473 -22.382 -19.444  0.00  0.00    +0.024 Cl
ATOM      2  N   UNL     1      34.154 -24.115 -14.742  0.00  0.00    -0.238 N 
ATOM      3  N   UNL     1      31.956 -23.825 -14.516  0.00  0.00    -0.240 NA
ATOM      4  N   UNL     1      34.452 -23.301 -17.012  0.00  0.00    -0.314 NA
ATOM      5  N   UNL     1      32.332 -22.572 -17.975  0.00  0.00    -0.314 NA
ATOM      6  C   UNL     1      33.720 -23.590 -15.925  0.00  0.00    +0.221 C 
ATOM      7  C   UNL     1      33.060 -24.238 -13.928  0.00  0.00    +0.224 C 
ATOM      8  C   UNL     1      32.354 -23.417 -15.765  0.00  0.00    +0.167 C 
ATOM      9  C   UNL     1      31.656 -22.886 -16.844  0.00  0.00    +0.212 C 
ATOM     10  C   UNL     1      33.668 -22.796 -17.989  0.00  0.00    +0.207 C 
ATOM     11  N   UNL     1      30.268 -22.676 -16.770  0.00  0.00    -0.331 N 
ATOM     12  H   UNL     1      29.785 -22.300 -17.540  0.00  0.00    +0.145 HD
ATOM     13  H   UNL     1      29.779 -22.905 -15.946  0.00  0.00    +0.145 HD
ENDROOT
BRANCH   2  15
ATOM     14  O   UNL     1      35.563 -25.003 -13.057  0.00  0.00    -0.337 OA
ATOM     15  C   UNL     1      35.529 -24.483 -14.398  0.00  0.00    +0.195 C 
ATOM     16  C   UNL     1      36.513 -23.320 -14.469  0.00  0.00    +0.054 C 
ATOM     17  C   UNL     1      36.729 -22.958 -13.017  0.00  0.00    +0.037 C 
ATOM     18  C   UNL     1      36.592 -24.308 -12.336  0.00  0.00    +0.146 C 
BRANCH  18  19
ATOM     19  C   UNL     1      36.219 -24.212 -10.869  0.00  0.00    +0.167 C 
BRANCH  19  20
ATOM     20  O   UNL     1      35.231 -25.188 -10.581  0.00  0.00    -0.379 OA
ATOM     21  H   UNL     1      35.196 -25.836 -11.302  0.00  0.00    +0.211 HD
ENDBRANCH  19  20
ENDBRANCH  18  19
ENDBRANCH   2  15
TORSDOF 3
ENDMDL
MODEL 6
REMARK VINA RESULT:      -8.0      5.359      8.224
REMARK  Name = 72194
REMARK  3 active torsions:
REMARK  status: ('A' for Active; 'I' for Inactive)
REMARK    1  A    between atoms: N_2  and  C_12
REMARK    2  A    between atoms: C_15  and  C_16
REMARK    3  A    between atoms: C_16  and  O_17
REMARK                            x       y       z     vdW  Elec       q    Type
REMARK                         _______ _______ _______ _____ _____    ______ ____
ROOT
ATOM      1 CL   UNL     1      36.635 -21.549 -18.902  0.00  0.00    +0.024 Cl
ATOM      2  N   UNL     1      36.161 -23.666 -14.374  0.00  0.00    -0.238 N 
ATOM      3  N   UNL     1      33.999 -24.174 -14.559  0.00  0.00    -0.240 NA
ATOM      4  N   UNL     1      36.531 -22.615 -16.533  0.00  0.00    -0.314 NA
ATOM      5  N   UNL     1      34.486 -22.587 -17.865  0.00  0.00    -0.314 NA
ATOM      6  C   UNL     1      35.775 -23.228 -15.608  0.00  0.00    +0.221 C 
ATOM      7  C   UNL     1      35.060 -24.227 -13.782  0.00  0.00    +0.224 C 
ATOM      8  C   UNL     1      34.432 -23.552 -15.704  0.00  0.00    +0.167 C 
ATOM      9  C   UNL     1      33.784 -23.209 -16.886  0.00  0.00    +0.212 C 
ATOM     10  C   UNL     1      35.796 -22.334 -17.631  0.00  0.00    +0.207 C 
ATOM     11  N   UNL     1      32.421 -23.499 -17.070  0.00  0.00    -0.331 N 
ATOM     12  H   UNL     1      31.974 -23.250 -17.911  0.00  0.00    +0.145 HD
ATOM     13  H   UNL     1      31.913 -23.949 -16.357  0.00  0.00    +0.145 HD
ENDROOT
BRANCH   2  15
ATOM     14  O   UNL     1      38.456 -24.175 -14.665  0.00  0.00    -0.337 OA
ATOM     15  C   UNL     1      37.497 -23.562 -13.784  0.00  0.00    +0.195 C 
ATOM     16  C   UNL     1      37.623 -24.236 -12.422  0.00  0.00    +0.054 C 
ATOM     17  C   UNL     1      38.357 -25.520 -12.735  0.00  0.00    +0.037 C 
ATOM     18  C   UNL     1      39.241 -25.098 -13.895  0.00  0.00    +0.146 C 
BRANCH  18  19
ATOM     19  C   UNL     1      39.685 -26.254 -14.770  0.00  0.00    +0.167 C 
BRANCH  19  20
ATOM     20  O   UNL     1      40.360 -25.737 -15.906  0.00  0.00    -0.379 OA
ATOM     21  H   UNL     1      41.084 -25.158 -15.617  0.00  0.00    +0.211 HD
ENDBRANCH  19  20
ENDBRANCH  18  19
ENDBRANCH   2  15
TORSDOF 3
ENDMDL
MODEL 7
REMARK VINA RESULT:      -8.0      4.676      6.844
REMARK  Name = 72194
REMARK  3 active torsions:
REMARK  status: ('A' for Active; 'I' for Inactive)
REMARK    1  A    between atoms: N_2  and  C_12
REMARK    2  A    between atoms: C_15  and  C_16
REMARK    3  A    between atoms: C_16  and  O_17
REMARK                            x       y       z     vdW  Elec       q    Type
REMARK                         _______ _______ _______ _____ _____    ______ ____
ROOT
ATOM      1 CL   UNL     1      32.990 -14.429 -20.607  0.00  0.00    +0.024 Cl
ATOM      2  N   UNL     1      34.780 -17.579 -24.083  0.00  0.00    -0.238 N 
ATOM      3  N   UNL     1      34.294 -16.308 -25.848  0.00  0.00    -0.240 NA
ATOM      4  N   UNL     1      33.952 -16.153 -22.299  0.00  0.00    -0.314 NA
ATOM      5  N   UNL     1      33.012 -14.083 -23.186  0.00  0.00    -0.314 NA
ATOM      6  C   UNL     1      34.193 -16.452 -23.585  0.00  0.00    +0.221 C 
ATOM      7  C   UNL     1      34.818 -17.447 -25.445  0.00  0.00    +0.224 C 
ATOM      8  C   UNL     1      33.899 -15.676 -24.695  0.00  0.00    +0.167 C 
ATOM      9  C   UNL     1      33.285 -14.450 -24.461  0.00  0.00    +0.212 C 
ATOM     10  C   UNL     1      33.357 -14.944 -22.199  0.00  0.00    +0.207 C 
ATOM     11  N   UNL     1      32.951 -13.598 -25.529  0.00  0.00    -0.331 N 
ATOM     12  H   UNL     1      32.516 -12.733 -25.351  0.00  0.00    +0.145 HD
ATOM     13  H   UNL     1      33.150 -13.868 -26.454  0.00  0.00    +0.145 HD
ENDROOT
BRANCH   2  15
ATOM     14  O   UNL     1      34.166 -19.446 -22.759  0.00  0.00    -0.337 OA
ATOM     15  C   UNL     1      35.279 -18.721 -23.313  0.00  0.00    +0.195 C 
ATOM     16  C   UNL     1      36.198 -18.332 -22.161  0.00  0.00    +0.054 C 
ATOM     17  C   UNL     1      35.314 -18.480 -20.944  0.00  0.00    +0.037 C 
ATOM     18  C   UNL     1      34.408 -19.627 -21.355  0.00  0.00    +0.146 C 
BRANCH  18  19
ATOM     19  C   UNL     1      33.091 -19.658 -20.604  0.00  0.00    +0.167 C 
BRANCH  19  20
ATOM     20  O   UNL     1      32.659 -21.005 -20.489  0.00  0.00    -0.379 OA
ATOM     21  H   UNL     1      31.724 -21.024 -20.231  0.00  0.00    +0.211 HD
ENDBRANCH  19  20
ENDBRANCH  18  19
ENDBRANCH   2  15
TORSDOF 3
ENDMDL
MODEL 8
REMARK VINA RESULT:      -7.9      4.766      7.239
REMARK  Name = 72194
REMARK  3 active torsions:
REMARK  status: ('A' for Active; 'I' for Inactive)
REMARK    1  A    between atoms: N_2  and  C_12
REMARK    2  A    between atoms: C_15  and  C_16
REMARK    3  A    between atoms: C_16  and  O_17
REMARK                            x       y       z     vdW  Elec       q    Type
REMARK                         _______ _______ _______ _____ _____    ______ ____
ROOT
ATOM      1 CL   UNL     1      33.070 -14.776 -26.683  0.00  0.00    +0.024 Cl
ATOM      2  N   UNL     1      34.483 -16.687 -22.261  0.00  0.00    -0.238 N 
ATOM      3  N   UNL     1      33.885 -14.931 -21.026  0.00  0.00    -0.240 NA
ATOM      4  N   UNL     1      33.846 -15.885 -24.464  0.00  0.00    -0.314 NA
ATOM      5  N   UNL     1      32.890 -13.644 -24.347  0.00  0.00    -0.314 NA
ATOM      6  C   UNL     1      33.972 -15.770 -23.133  0.00  0.00    +0.221 C 
ATOM      7  C   UNL     1      34.410 -16.139 -21.008  0.00  0.00    +0.224 C 
ATOM      8  C   UNL     1      33.606 -14.688 -22.348  0.00  0.00    +0.167 C 
ATOM      9  C   UNL     1      33.046 -13.596 -23.002  0.00  0.00    +0.212 C 
ATOM     10  C   UNL     1      33.292 -14.768 -24.985  0.00  0.00    +0.207 C 
ATOM     11  N   UNL     1      32.647 -12.455 -22.284  0.00  0.00    -0.331 N 
ATOM     12  H   UNL     1      32.253 -11.688 -22.759  0.00  0.00    +0.145 HD
ATOM     13  H   UNL     1      32.763 -12.422 -21.307  0.00  0.00    +0.145 HD
ENDROOT
BRANCH   2  15
ATOM     14  O   UNL     1      34.106 -19.021 -22.112  0.00  0.00    -0.337 OA
ATOM     15  C   UNL     1      35.013 -18.012 -22.592  0.00  0.00    +0.195 C 
ATOM     16  C   UNL     1      36.384 -18.295 -21.988  0.00  0.00    +0.054 C 
ATOM     17  C   UNL     1      36.070 -19.211 -20.828  0.00  0.00    +0.037 C 
ATOM     18  C   UNL     1      34.864 -19.972 -21.348  0.00  0.00    +0.146 C 
BRANCH  18  19
ATOM     19  C   UNL     1      33.999 -20.559 -20.250  0.00  0.00    +0.167 C 
BRANCH  19  20
ATOM     20  O   UNL     1      32.644 -20.535 -20.671  0.00  0.00    -0.379 OA
ATOM     21  H   UNL     1      32.197 -19.766 -20.282  0.00  0.00    +0.211 HD
ENDBRANCH  19  20
ENDBRANCH  18  19
ENDBRANCH   2  15
TORSDOF 3
ENDMDL
MODEL 9
REMARK VINA RESULT:      -7.8      5.990      8.262
REMARK  Name = 72194
REMARK  3 active torsions:
REMARK  status: ('A' for Active; 'I' for Inactive)
REMARK    1  A    between atoms: N_2  and  C_12
REMARK    2  A    between atoms: C_15  and  C_16
REMARK    3  A    between atoms: C_16  and  O_17
REMARK                            x       y       z     vdW  Elec       q    Type
REMARK                         _______ _______ _______ _____ _____    ______ ____
ROOT
ATOM      1 CL   UNL     1      29.867 -23.875 -15.127  0.00  0.00    +0.024 Cl
ATOM      2  N   UNL     1      34.884 -23.980 -14.942  0.00  0.00    -0.238 N 
ATOM      3  N   UNL     1      35.228 -23.053 -16.939  0.00  0.00    -0.240 NA
ATOM      4  N   UNL     1      32.455 -23.992 -14.899  0.00  0.00    -0.314 NA
ATOM      5  N   UNL     1      31.529 -23.037 -16.946  0.00  0.00    -0.314 NA
ATOM      6  C   UNL     1      33.646 -23.735 -15.462  0.00  0.00    +0.221 C 
ATOM      7  C   UNL     1      35.801 -23.553 -15.865  0.00  0.00    +0.224 C 
ATOM      8  C   UNL     1      33.880 -23.159 -16.701  0.00  0.00    +0.167 C 
ATOM      9  C   UNL     1      32.765 -22.806 -17.452  0.00  0.00    +0.212 C 
ATOM     10  C   UNL     1      31.452 -23.607 -15.719  0.00  0.00    +0.207 C 
ATOM     11  N   UNL     1      32.909 -22.217 -18.721  0.00  0.00    -0.331 N 
ATOM     12  H   UNL     1      32.112 -21.972 -19.243  0.00  0.00    +0.145 HD
ATOM     13  H   UNL     1      33.808 -22.052 -19.087  0.00  0.00    +0.145 HD
ENDROOT
BRANCH   2  15
ATOM     14  O   UNL     1      35.529 -23.549 -12.704  0.00  0.00    -0.337 OA
ATOM     15  C   UNL     1      35.185 -24.584 -13.642  0.00  0.00    +0.195 C 
ATOM     16  C   UNL     1      36.341 -25.578 -13.680  0.00  0.00    +0.054 C 
ATOM     17  C   UNL     1      37.487 -24.802 -13.074  0.00  0.00    +0.037 C 
ATOM     18  C   UNL     1      36.769 -23.912 -12.077  0.00  0.00    +0.146 C 
BRANCH  18  19
ATOM     19  C   UNL     1      37.546 -22.663 -11.710  0.00  0.00    +0.167 C 
BRANCH  19  20
ATOM     20  O   UNL     1      38.929 -22.977 -11.665  0.00  0.00    -0.379 OA
ATOM     21  H   UNL     1      39.107 -23.736 -12.244  0.00  0.00    +0.211 HD
ENDBRANCH  19  20
ENDBRANCH  18  19
ENDBRANCH   2  15
TORSDOF 3
ENDMDL
