MODEL 1
REMARK VINA RESULT:      -9.4      0.000      0.000
REMARK  Name = 9944398
REMARK  3 active torsions:
REMARK  status: ('A' for Active; 'I' for Inactive)
REMARK    1  A    between atoms: N_4  and  C_11
REMARK    2  A    between atoms: C_6  and  O_23
REMARK    3  A    between atoms: C_17  and  C_22
REMARK                            x       y       z     vdW  Elec       q    Type
REMARK                         _______ _______ _______ _____ _____    ______ ____
ROOT
ATOM      1  O   UNL     1      35.692 -26.443 -15.972  0.00  0.00    -0.272 OA
ATOM      2  O   UNL     1      36.011 -22.489 -13.564  0.00  0.00    -0.252 OA
ATOM      3  N   UNL     1      37.467 -24.236 -14.008  0.00  0.00    -0.255 N 
ATOM      4  N   UNL     1      35.487 -24.267 -15.043  0.00  0.00    -0.191 N 
ATOM      5  C   UNL     1      37.494 -25.472 -14.734  0.00  0.00    +0.181 C 
ATOM      6  C   UNL     1      37.891 -26.480 -13.671  0.00  0.00    +0.139 C 
ATOM      7  C   UNL     1      38.890 -25.672 -12.824  0.00  0.00    +0.053 C 
ATOM      8  C   UNL     1      38.319 -24.247 -12.835  0.00  0.00    +0.098 C 
ATOM      9  C   UNL     1      36.100 -25.489 -15.323  0.00  0.00    +0.257 C 
ATOM     10  C   UNL     1      36.288 -23.513 -14.176  0.00  0.00    +0.317 C 
ENDROOT
BRANCH   4  11
ATOM     11  C   UNL     1      34.188 -23.870 -15.496  0.00  0.00    +0.062 C 
ATOM     12  C   UNL     1      33.996 -23.183 -16.712  0.00  0.00    +0.015 C 
ATOM     13  C   UNL     1      33.089 -24.185 -14.689  0.00  0.00    +0.016 C 
ATOM     14  C   UNL     1      32.688 -22.817 -17.109  0.00  0.00    +0.011 C 
ATOM     15  C   UNL     1      31.802 -23.824 -15.080  0.00  0.00    +0.012 C 
ATOM     16  C   UNL     1      35.082 -22.856 -17.540  0.00  0.00    +0.001 C 
ATOM     17  C   UNL     1      31.602 -23.144 -16.281  0.00  0.00    +0.069 C 
ATOM     18  C   UNL     1      32.505 -22.132 -18.322  0.00  0.00    +0.001 C 
ATOM     19  C   UNL     1      34.882 -22.176 -18.741  0.00  0.00    +0.000 C 
ATOM     20  C   UNL     1      33.596 -21.815 -19.132  0.00  0.00    +0.000 C 
BRANCH  17  22
ATOM     21  N   UNL     1      29.160 -22.533 -16.893  0.00  0.00    -0.191 NA
ATOM     22  C   UNL     1      30.249 -22.806 -16.620  0.00  0.00    +0.100 C 
ENDBRANCH  17  22
ENDBRANCH   4  11
BRANCH   6  23
ATOM     23  O   UNL     1      36.768 -26.843 -12.877  0.00  0.00    -0.382 OA
ATOM     24  H   UNL     1      36.691 -27.810 -12.847  0.00  0.00    +0.210 HD
ENDBRANCH   6  23
TORSDOF 3
ENDMDL
MODEL 2
REMARK VINA RESULT:      -9.3      6.849     10.225
REMARK  Name = 9944398
REMARK  3 active torsions:
REMARK  status: ('A' for Active; 'I' for Inactive)
REMARK    1  A    between atoms: N_4  and  C_11
REMARK    2  A    between atoms: C_6  and  O_23
REMARK    3  A    between atoms: C_17  and  C_22
REMARK                            x       y       z     vdW  Elec       q    Type
REMARK                         _______ _______ _______ _____ _____    ______ ____
ROOT
ATOM      1  O   UNL     1      34.279 -15.765 -20.334  0.00  0.00    -0.272 OA
ATOM      2  O   UNL     1      33.995 -18.236 -24.252  0.00  0.00    -0.252 OA
ATOM      3  N   UNL     1      34.427 -16.011 -23.769  0.00  0.00    -0.255 N 
ATOM      4  N   UNL     1      34.245 -17.416 -22.040  0.00  0.00    -0.191 N 
ATOM      5  C   UNL     1      34.558 -15.151 -22.629  0.00  0.00    +0.181 C 
ATOM      6  C   UNL     1      33.548 -14.053 -22.916  0.00  0.00    +0.139 C 
ATOM      7  C   UNL     1      33.676 -13.897 -24.442  0.00  0.00    +0.053 C 
ATOM      8  C   UNL     1      33.923 -15.327 -24.943  0.00  0.00    +0.098 C 
ATOM      9  C   UNL     1      34.321 -16.131 -21.501  0.00  0.00    +0.257 C 
ATOM     10  C   UNL     1      34.239 -17.352 -23.439  0.00  0.00    +0.317 C 
ENDROOT
BRANCH   4  11
ATOM     11  C   UNL     1      34.102 -18.623 -21.284  0.00  0.00    +0.062 C 
ATOM     12  C   UNL     1      35.214 -19.378 -20.858  0.00  0.00    +0.015 C 
ATOM     13  C   UNL     1      32.806 -19.050 -20.970  0.00  0.00    +0.016 C 
ATOM     14  C   UNL     1      35.011 -20.564 -20.112  0.00  0.00    +0.011 C 
ATOM     15  C   UNL     1      32.606 -20.216 -20.237  0.00  0.00    +0.012 C 
ATOM     16  C   UNL     1      36.524 -18.972 -21.159  0.00  0.00    +0.001 C 
ATOM     17  C   UNL     1      33.700 -20.969 -19.812  0.00  0.00    +0.069 C 
ATOM     18  C   UNL     1      36.124 -21.309 -19.692  0.00  0.00    +0.001 C 
ATOM     19  C   UNL     1      37.619 -19.725 -20.733  0.00  0.00    +0.000 C 
ATOM     20  C   UNL     1      37.419 -20.891 -20.001  0.00  0.00    +0.000 C 
BRANCH  17  22
ATOM     21  N   UNL     1      33.192 -23.116 -18.453  0.00  0.00    -0.191 NA
ATOM     22  C   UNL     1      33.419 -22.159 -19.059  0.00  0.00    +0.100 C 
ENDBRANCH  17  22
ENDBRANCH   4  11
BRANCH   6  23
ATOM     23  O   UNL     1      32.233 -14.479 -22.583  0.00  0.00    -0.382 OA
ATOM     24  H   UNL     1      31.934 -14.014 -21.786  0.00  0.00    +0.210 HD
ENDBRANCH   6  23
TORSDOF 3
ENDMDL
MODEL 3
REMARK VINA RESULT:      -9.2      1.284      2.266
REMARK  Name = 9944398
REMARK  3 active torsions:
REMARK  status: ('A' for Active; 'I' for Inactive)
REMARK    1  A    between atoms: N_4  and  C_11
REMARK    2  A    between atoms: C_6  and  O_23
REMARK    3  A    between atoms: C_17  and  C_22
REMARK                            x       y       z     vdW  Elec       q    Type
REMARK                         _______ _______ _______ _____ _____    ______ ____
ROOT
ATOM      1  O   UNL     1      34.989 -23.593 -11.930  0.00  0.00    -0.272 OA
ATOM      2  O   UNL     1      35.673 -26.130 -15.755  0.00  0.00    -0.252 OA
ATOM      3  N   UNL     1      36.870 -25.795 -13.799  0.00  0.00    -0.255 N 
ATOM      4  N   UNL     1      34.840 -24.868 -13.927  0.00  0.00    -0.191 N 
ATOM      5  C   UNL     1      36.759 -25.071 -12.567  0.00  0.00    +0.181 C 
ATOM      6  C   UNL     1      38.042 -24.259 -12.535  0.00  0.00    +0.139 C 
ATOM      7  C   UNL     1      39.052 -25.240 -13.157  0.00  0.00    +0.053 C 
ATOM      8  C   UNL     1      38.242 -25.980 -14.229  0.00  0.00    +0.098 C 
ATOM      9  C   UNL     1      35.424 -24.384 -12.756  0.00  0.00    +0.257 C 
ATOM     10  C   UNL     1      35.746 -25.684 -14.616  0.00  0.00    +0.317 C 
ENDROOT
BRANCH   4  11
ATOM     11  C   UNL     1      33.540 -24.515 -14.410  0.00  0.00    +0.062 C 
ATOM     12  C   UNL     1      33.354 -23.806 -15.615  0.00  0.00    +0.015 C 
ATOM     13  C   UNL     1      32.431 -24.896 -13.646  0.00  0.00    +0.016 C 
ATOM     14  C   UNL     1      32.043 -23.485 -16.043  0.00  0.00    +0.011 C 
ATOM     15  C   UNL     1      31.142 -24.580 -14.066  0.00  0.00    +0.012 C 
ATOM     16  C   UNL     1      34.449 -23.412 -16.401  0.00  0.00    +0.001 C 
ATOM     17  C   UNL     1      30.949 -23.879 -15.256  0.00  0.00    +0.069 C 
ATOM     18  C   UNL     1      31.868 -22.779 -17.243  0.00  0.00    +0.001 C 
ATOM     19  C   UNL     1      34.256 -22.711 -17.591  0.00  0.00    +0.000 C 
ATOM     20  C   UNL     1      32.967 -22.395 -18.012  0.00  0.00    +0.000 C 
BRANCH  17  22
ATOM     21  N   UNL     1      28.501 -23.357 -15.928  0.00  0.00    -0.191 NA
ATOM     22  C   UNL     1      29.593 -23.590 -15.629  0.00  0.00    +0.100 C 
ENDBRANCH  17  22
ENDBRANCH   4  11
BRANCH   6  23
ATOM     23  O   UNL     1      37.926 -23.102 -13.355  0.00  0.00    -0.382 OA
ATOM     24  H   UNL     1      37.689 -22.339 -12.806  0.00  0.00    +0.210 HD
ENDBRANCH   6  23
TORSDOF 3
ENDMDL
MODEL 4
REMARK VINA RESULT:      -8.9      6.865      9.294
REMARK  Name = 9944398
REMARK  3 active torsions:
REMARK  status: ('A' for Active; 'I' for Inactive)
REMARK    1  A    between atoms: N_4  and  C_11
REMARK    2  A    between atoms: C_6  and  O_23
REMARK    3  A    between atoms: C_17  and  C_22
REMARK                            x       y       z     vdW  Elec       q    Type
REMARK                         _______ _______ _______ _____ _____    ______ ____
ROOT
ATOM      1  O   UNL     1      37.147 -18.917 -21.262  0.00  0.00    -0.272 OA
ATOM      2  O   UNL     1      32.608 -19.878 -21.138  0.00  0.00    -0.252 OA
ATOM      3  N   UNL     1      34.422 -20.458 -19.817  0.00  0.00    -0.255 N 
ATOM      4  N   UNL     1      34.781 -18.982 -21.458  0.00  0.00    -0.191 N 
ATOM      5  C   UNL     1      35.833 -20.216 -19.741  0.00  0.00    +0.181 C 
ATOM      6  C   UNL     1      36.417 -21.618 -19.743  0.00  0.00    +0.139 C 
ATOM      7  C   UNL     1      35.380 -22.394 -18.912  0.00  0.00    +0.053 C 
ATOM      8  C   UNL     1      34.039 -21.757 -19.301  0.00  0.00    +0.098 C 
ATOM      9  C   UNL     1      36.033 -19.303 -20.931  0.00  0.00    +0.257 C 
ATOM     10  C   UNL     1      33.785 -19.739 -20.827  0.00  0.00    +0.317 C 
ENDROOT
BRANCH   4  11
ATOM     11  C   UNL     1      34.547 -18.082 -22.545  0.00  0.00    +0.062 C 
ATOM     12  C   UNL     1      34.354 -16.699 -22.346  0.00  0.00    +0.015 C 
ATOM     13  C   UNL     1      34.511 -18.613 -23.840  0.00  0.00    +0.016 C 
ATOM     14  C   UNL     1      34.127 -15.857 -23.460  0.00  0.00    +0.011 C 
ATOM     15  C   UNL     1      34.287 -17.785 -24.936  0.00  0.00    +0.012 C 
ATOM     16  C   UNL     1      34.386 -16.141 -21.057  0.00  0.00    +0.001 C 
ATOM     17  C   UNL     1      34.096 -16.416 -24.748  0.00  0.00    +0.069 C 
ATOM     18  C   UNL     1      33.936 -14.481 -23.253  0.00  0.00    +0.001 C 
ATOM     19  C   UNL     1      34.194 -14.772 -20.870  0.00  0.00    +0.000 C 
ATOM     20  C   UNL     1      33.970 -13.944 -21.966  0.00  0.00    +0.000 C 
BRANCH  17  22
ATOM     21  N   UNL     1      33.692 -14.984 -26.870  0.00  0.00    -0.191 NA
ATOM     22  C   UNL     1      33.872 -15.623 -25.924  0.00  0.00    +0.100 C 
ENDBRANCH  17  22
ENDBRANCH   4  11
BRANCH   6  23
ATOM     23  O   UNL     1      36.465 -22.142 -21.064  0.00  0.00    -0.382 OA
ATOM     24  H   UNL     1      35.890 -22.921 -21.125  0.00  0.00    +0.210 HD
ENDBRANCH   6  23
TORSDOF 3
ENDMDL
MODEL 5
REMARK VINA RESULT:      -8.9      6.862     10.466
REMARK  Name = 9944398
REMARK  3 active torsions:
REMARK  status: ('A' for Active; 'I' for Inactive)
REMARK    1  A    between atoms: N_4  and  C_11
REMARK    2  A    between atoms: C_6  and  O_23
REMARK    3  A    between atoms: C_17  and  C_22
REMARK                            x       y       z     vdW  Elec       q    Type
REMARK                         _______ _______ _______ _____ _____    ______ ____
ROOT
ATOM      1  O   UNL     1      35.191 -15.643 -21.015  0.00  0.00    -0.272 OA
ATOM      2  O   UNL     1      34.813 -18.824 -24.373  0.00  0.00    -0.252 OA
ATOM      3  N   UNL     1      34.751 -16.508 -24.322  0.00  0.00    -0.255 N 
ATOM      4  N   UNL     1      35.257 -17.559 -22.415  0.00  0.00    -0.191 N 
ATOM      5  C   UNL     1      34.872 -15.437 -23.377  0.00  0.00    +0.181 C 
ATOM      6  C   UNL     1      33.583 -14.660 -23.580  0.00  0.00    +0.139 C 
ATOM      7  C   UNL     1      33.379 -14.777 -25.101  0.00  0.00    +0.053 C 
ATOM      8  C   UNL     1      33.881 -16.188 -25.436  0.00  0.00    +0.098 C 
ATOM      9  C   UNL     1      35.106 -16.209 -22.096  0.00  0.00    +0.257 C 
ATOM     10  C   UNL     1      34.973 -17.769 -23.771  0.00  0.00    +0.317 C 
ENDROOT
BRANCH   4  11
ATOM     11  C   UNL     1      35.566 -18.600 -21.483  0.00  0.00    +0.062 C 
ATOM     12  C   UNL     1      34.568 -19.410 -20.904  0.00  0.00    +0.015 C 
ATOM     13  C   UNL     1      36.910 -18.802 -21.149  0.00  0.00    +0.016 C 
ATOM     14  C   UNL     1      34.934 -20.425 -19.988  0.00  0.00    +0.011 C 
ATOM     15  C   UNL     1      37.270 -19.800 -20.248  0.00  0.00    +0.012 C 
ATOM     16  C   UNL     1      33.212 -19.228 -21.223  0.00  0.00    +0.001 C 
ATOM     17  C   UNL     1      36.289 -20.606 -19.671  0.00  0.00    +0.069 C 
ATOM     18  C   UNL     1      33.933 -21.226 -19.416  0.00  0.00    +0.001 C 
ATOM     19  C   UNL     1      32.230 -20.033 -20.645  0.00  0.00    +0.000 C 
ATOM     20  C   UNL     1      32.591 -21.032 -19.744  0.00  0.00    +0.000 C 
BRANCH  17  22
ATOM     21  N   UNL     1      37.091 -22.428 -18.012  0.00  0.00    -0.191 NA
ATOM     22  C   UNL     1      36.734 -21.616 -18.752  0.00  0.00    +0.100 C 
ENDBRANCH  17  22
ENDBRANCH   4  11
BRANCH   6  23
ATOM     23  O   UNL     1      32.504 -15.288 -22.899  0.00  0.00    -0.382 OA
ATOM     24  H   UNL     1      31.862 -14.616 -22.619  0.00  0.00    +0.210 HD
ENDBRANCH   6  23
TORSDOF 3
ENDMDL
MODEL 6
REMARK VINA RESULT:      -8.6     12.539     15.858
REMARK  Name = 9944398
REMARK  3 active torsions:
REMARK  status: ('A' for Active; 'I' for Inactive)
REMARK    1  A    between atoms: N_4  and  C_11
REMARK    2  A    between atoms: C_6  and  O_23
REMARK    3  A    between atoms: C_17  and  C_22
REMARK                            x       y       z     vdW  Elec       q    Type
REMARK                         _______ _______ _______ _____ _____    ______ ____
ROOT
ATOM      1  O   UNL     1      30.686 -10.601 -22.529  0.00  0.00    -0.272 OA
ATOM      2  O   UNL     1      34.985  -9.599 -23.962  0.00  0.00    -0.252 OA
ATOM      3  N   UNL     1      33.352  -8.434 -22.802  0.00  0.00    -0.255 N 
ATOM      4  N   UNL     1      32.948 -10.586 -23.251  0.00  0.00    -0.191 N 
ATOM      5  C   UNL     1      32.026  -8.633 -22.294  0.00  0.00    +0.181 C 
ATOM      6  C   UNL     1      31.247  -7.493 -22.926  0.00  0.00    +0.139 C 
ATOM      7  C   UNL     1      32.281  -6.353 -22.904  0.00  0.00    +0.053 C 
ATOM      8  C   UNL     1      33.618  -7.058 -23.174  0.00  0.00    +0.098 C 
ATOM      9  C   UNL     1      31.769 -10.063 -22.718  0.00  0.00    +0.257 C 
ATOM     10  C   UNL     1      33.911  -9.576 -23.373  0.00  0.00    +0.317 C 
ENDROOT
BRANCH   4  11
ATOM     11  C   UNL     1      33.129 -11.934 -23.696  0.00  0.00    +0.062 C 
ATOM     12  C   UNL     1      33.031 -13.033 -22.818  0.00  0.00    +0.015 C 
ATOM     13  C   UNL     1      33.411 -12.144 -25.050  0.00  0.00    +0.016 C 
ATOM     14  C   UNL     1      33.219 -14.345 -23.315  0.00  0.00    +0.011 C 
ATOM     15  C   UNL     1      33.596 -13.435 -25.540  0.00  0.00    +0.012 C 
ATOM     16  C   UNL     1      32.748 -12.849 -21.454  0.00  0.00    +0.001 C 
ATOM     17  C   UNL     1      33.502 -14.528 -24.679  0.00  0.00    +0.069 C 
ATOM     18  C   UNL     1      33.120 -15.433 -22.434  0.00  0.00    +0.001 C 
ATOM     19  C   UNL     1      32.654 -13.942 -20.593  0.00  0.00    +0.000 C 
ATOM     20  C   UNL     1      32.839 -15.232 -21.083  0.00  0.00    +0.000 C 
BRANCH  17  22
ATOM     21  N   UNL     1      33.864 -16.875 -25.715  0.00  0.00    -0.191 NA
ATOM     22  C   UNL     1      33.702 -15.828 -25.253  0.00  0.00    +0.100 C 
ENDBRANCH  17  22
ENDBRANCH   4  11
BRANCH   6  23
ATOM     23  O   UNL     1      30.900  -7.804 -24.269  0.00  0.00    -0.382 OA
ATOM     24  H   UNL     1      31.634  -8.276 -24.693  0.00  0.00    +0.210 HD
ENDBRANCH   6  23
TORSDOF 3
ENDMDL
MODEL 7
REMARK VINA RESULT:      -8.6     11.597     14.535
REMARK  Name = 9944398
REMARK  3 active torsions:
REMARK  status: ('A' for Active; 'I' for Inactive)
REMARK    1  A    between atoms: N_4  and  C_11
REMARK    2  A    between atoms: C_6  and  O_23
REMARK    3  A    between atoms: C_17  and  C_22
REMARK                            x       y       z     vdW  Elec       q    Type
REMARK                         _______ _______ _______ _____ _____    ______ ____
ROOT
ATOM      1  O   UNL     1      34.310 -14.275 -21.742  0.00  0.00    -0.272 OA
ATOM      2  O   UNL     1      33.102 -13.883 -26.205  0.00  0.00    -0.252 OA
ATOM      3  N   UNL     1      33.373 -15.668 -24.752  0.00  0.00    -0.255 N 
ATOM      4  N   UNL     1      33.551 -13.613 -23.892  0.00  0.00    -0.191 N 
ATOM      5  C   UNL     1      33.715 -15.913 -23.382  0.00  0.00    +0.181 C 
ATOM      6  C   UNL     1      34.888 -16.871 -23.492  0.00  0.00    +0.139 C 
ATOM      7  C   UNL     1      34.482 -17.730 -24.702  0.00  0.00    +0.053 C 
ATOM      8  C   UNL     1      33.773 -16.743 -25.639  0.00  0.00    +0.098 C 
ATOM      9  C   UNL     1      33.926 -14.500 -22.882  0.00  0.00    +0.257 C 
ATOM     10  C   UNL     1      33.274 -14.315 -25.072  0.00  0.00    +0.317 C 
ENDROOT
BRANCH   4  11
ATOM     11  C   UNL     1      33.536 -12.186 -23.776  0.00  0.00    +0.062 C 
ATOM     12  C   UNL     1      32.700 -11.516 -22.859  0.00  0.00    +0.015 C 
ATOM     13  C   UNL     1      34.387 -11.453 -24.611  0.00  0.00    +0.016 C 
ATOM     14  C   UNL     1      32.729 -10.103 -22.790  0.00  0.00    +0.011 C 
ATOM     15  C   UNL     1      34.415 -10.062 -24.543  0.00  0.00    +0.012 C 
ATOM     16  C   UNL     1      31.838 -12.229 -22.010  0.00  0.00    +0.001 C 
ATOM     17  C   UNL     1      33.592  -9.391 -23.639  0.00  0.00    +0.069 C 
ATOM     18  C   UNL     1      31.893  -9.444 -21.874  0.00  0.00    +0.001 C 
ATOM     19  C   UNL     1      31.014 -11.558 -21.106  0.00  0.00    +0.000 C 
ATOM     20  C   UNL     1      31.043 -10.168 -21.038  0.00  0.00    +0.000 C 
BRANCH  17  22
ATOM     21  N   UNL     1      33.742  -6.805 -23.609  0.00  0.00    -0.191 NA
ATOM     22  C   UNL     1      33.675  -7.958 -23.622  0.00  0.00    +0.100 C 
ENDBRANCH  17  22
ENDBRANCH   4  11
BRANCH   6  23
ATOM     23  O   UNL     1      36.088 -16.166 -23.782  0.00  0.00    -0.382 OA
ATOM     24  H   UNL     1      36.136 -15.985 -24.734  0.00  0.00    +0.210 HD
ENDBRANCH   6  23
TORSDOF 3
ENDMDL
MODEL 8
REMARK VINA RESULT:      -8.3      1.406      2.730
REMARK  Name = 9944398
REMARK  3 active torsions:
REMARK  status: ('A' for Active; 'I' for Inactive)
REMARK    1  A    between atoms: N_4  and  C_11
REMARK    2  A    between atoms: C_6  and  O_23
REMARK    3  A    between atoms: C_17  and  C_22
REMARK                            x       y       z     vdW  Elec       q    Type
REMARK                         _______ _______ _______ _____ _____    ______ ____
ROOT
ATOM      1  O   UNL     1      35.894 -26.178 -15.747  0.00  0.00    -0.272 OA
ATOM      2  O   UNL     1      37.257 -21.968 -14.350  0.00  0.00    -0.252 OA
ATOM      3  N   UNL     1      37.882 -24.133 -13.812  0.00  0.00    -0.255 N 
ATOM      4  N   UNL     1      36.414 -23.877 -15.477  0.00  0.00    -0.191 N 
ATOM      5  C   UNL     1      37.560 -25.482 -14.177  0.00  0.00    +0.181 C 
ATOM      6  C   UNL     1      37.202 -26.117 -12.846  0.00  0.00    +0.139 C 
ATOM      7  C   UNL     1      38.200 -25.437 -11.892  0.00  0.00    +0.053 C 
ATOM      8  C   UNL     1      38.319 -24.007 -12.435  0.00  0.00    +0.098 C 
ATOM      9  C   UNL     1      36.493 -25.247 -15.225  0.00  0.00    +0.257 C 
ATOM     10  C   UNL     1      37.213 -23.172 -14.567  0.00  0.00    +0.317 C 
ENDROOT
BRANCH   4  11
ATOM     11  C   UNL     1      35.573 -23.264 -16.460  0.00  0.00    +0.062 C 
ATOM     12  C   UNL     1      34.167 -23.266 -16.350  0.00  0.00    +0.015 C 
ATOM     13  C   UNL     1      36.187 -22.649 -17.556  0.00  0.00    +0.016 C 
ATOM     14  C   UNL     1      33.386 -22.643 -17.353  0.00  0.00    +0.011 C 
ATOM     15  C   UNL     1      35.419 -22.036 -18.543  0.00  0.00    +0.012 C 
ATOM     16  C   UNL     1      33.526 -23.877 -15.260  0.00  0.00    +0.001 C 
ATOM     17  C   UNL     1      34.028 -22.033 -18.443  0.00  0.00    +0.069 C 
ATOM     18  C   UNL     1      31.987 -22.651 -17.236  0.00  0.00    +0.001 C 
ATOM     19  C   UNL     1      32.134 -23.874 -15.160  0.00  0.00    +0.000 C 
ATOM     20  C   UNL     1      31.366 -23.262 -16.146  0.00  0.00    +0.000 C 
BRANCH  17  22
ATOM     21  N   UNL     1      32.716 -20.857 -20.342  0.00  0.00    -0.191 NA
ATOM     22  C   UNL     1      33.301 -21.382 -19.495  0.00  0.00    +0.100 C 
ENDBRANCH  17  22
ENDBRANCH   4  11
BRANCH   6  23
ATOM     23  O   UNL     1      35.872 -25.783 -12.470  0.00  0.00    -0.382 OA
ATOM     24  H   UNL     1      35.429 -25.335 -13.208  0.00  0.00    +0.210 HD
ENDBRANCH   6  23
TORSDOF 3
ENDMDL
MODEL 9
REMARK VINA RESULT:      -8.2     11.750     14.573
REMARK  Name = 9944398
REMARK  3 active torsions:
REMARK  status: ('A' for Active; 'I' for Inactive)
REMARK    1  A    between atoms: N_4  and  C_11
REMARK    2  A    between atoms: C_6  and  O_23
REMARK    3  A    between atoms: C_17  and  C_22
REMARK                            x       y       z     vdW  Elec       q    Type
REMARK                         _______ _______ _______ _____ _____    ______ ____
ROOT
ATOM      1  O   UNL     1      33.642 -14.424 -21.408  0.00  0.00    -0.272 OA
ATOM      2  O   UNL     1      32.798 -13.428 -25.862  0.00  0.00    -0.252 OA
ATOM      3  N   UNL     1      33.199 -15.386 -24.689  0.00  0.00    -0.255 N 
ATOM      4  N   UNL     1      32.990 -13.505 -23.499  0.00  0.00    -0.191 N 
ATOM      5  C   UNL     1      33.448 -15.817 -23.344  0.00  0.00    +0.181 C 
ATOM      6  C   UNL     1      34.756 -16.578 -23.470  0.00  0.00    +0.139 C 
ATOM      7  C   UNL     1      34.594 -17.261 -24.840  0.00  0.00    +0.053 C 
ATOM      8  C   UNL     1      33.833 -16.229 -25.683  0.00  0.00    +0.098 C 
ATOM      9  C   UNL     1      33.400 -14.496 -22.606  0.00  0.00    +0.257 C 
ATOM     10  C   UNL     1      32.929 -14.023 -24.799  0.00  0.00    +0.317 C 
ENDROOT
BRANCH   4  11
ATOM     11  C   UNL     1      32.752 -12.135 -23.161  0.00  0.00    +0.062 C 
ATOM     12  C   UNL     1      33.516 -11.084 -23.710  0.00  0.00    +0.015 C 
ATOM     13  C   UNL     1      31.724 -11.852 -22.255  0.00  0.00    +0.016 C 
ATOM     14  C   UNL     1      33.235  -9.747 -23.339  0.00  0.00    +0.011 C 
ATOM     15  C   UNL     1      31.447 -10.537 -21.891  0.00  0.00    +0.012 C 
ATOM     16  C   UNL     1      34.554 -11.341 -24.621  0.00  0.00    +0.001 C 
ATOM     17  C   UNL     1      32.198  -9.492 -22.428  0.00  0.00    +0.069 C 
ATOM     18  C   UNL     1      34.001  -8.707 -23.889  0.00  0.00    +0.001 C 
ATOM     19  C   UNL     1      35.305 -10.295 -25.158  0.00  0.00    +0.000 C 
ATOM     20  C   UNL     1      35.028  -8.980 -24.793  0.00  0.00    +0.000 C 
BRANCH  17  22
ATOM     21  N   UNL     1      31.581  -7.092 -21.670  0.00  0.00    -0.191 NA
ATOM     22  C   UNL     1      31.856  -8.162 -22.008  0.00  0.00    +0.100 C 
ENDBRANCH  17  22
ENDBRANCH   4  11
BRANCH   6  23
ATOM     23  O   UNL     1      35.859 -15.682 -23.506  0.00  0.00    -0.382 OA
ATOM     24  H   UNL     1      36.214 -15.641 -24.408  0.00  0.00    +0.210 HD
ENDBRANCH   6  23
TORSDOF 3
ENDMDL
