MODEL 1
REMARK VINA RESULT:      -7.7      0.000      0.000
REMARK  Name = 8367
REMARK  4 active torsions:
REMARK  status: ('A' for Active; 'I' for Inactive)
REMARK    1  A    between atoms: C_2  and  C_11
REMARK    2  A    between atoms: C_11  and  C_12
REMARK    3  A    between atoms: C_12  and  N_13
REMARK    4  A    between atoms: C_12  and  C_17
REMARK                            x       y       z     vdW  Elec       q    Type
REMARK                         _______ _______ _______ _____ _____    ______ ____
ROOT
ATOM      1  N   UNL     1      36.779 -19.808 -20.395  0.00  0.00    -0.312 N 
ATOM      2  C   UNL     1      35.083 -18.712 -21.315  0.00  0.00    -0.008 C 
ATOM      3  C   UNL     1      34.558 -19.828 -20.606  0.00  0.00    +0.011 C 
ATOM      4  C   UNL     1      35.643 -20.499 -20.037  0.00  0.00    +0.048 C 
ATOM      5  C   UNL     1      36.450 -18.726 -21.167  0.00  0.00    +0.057 C 
ATOM      6  C   UNL     1      33.260 -20.333 -20.392  0.00  0.00    +0.001 C 
ATOM      7  C   UNL     1      35.494 -21.654 -19.262  0.00  0.00    +0.015 C 
ATOM      8  C   UNL     1      33.097 -21.488 -19.618  0.00  0.00    +0.000 C 
ATOM      9  C   UNL     1      34.198 -22.137 -19.063  0.00  0.00    +0.001 C 
ATOM     10  H   UNL     1      37.695 -20.056 -20.133  0.00  0.00    +0.152 HD
ENDROOT
BRANCH   2  11
ATOM     11  C   UNL     1      34.309 -17.711 -22.078  0.00  0.00    +0.006 C 
BRANCH  11  12
ATOM     12  C   UNL     1      35.085 -17.040 -23.246  0.00  0.00    -0.061 C 
BRANCH  12  13
ATOM     13  N   UNL     1      34.938 -15.583 -23.164  0.00  0.00    +0.382 N 
ATOM     14  H   UNL     1      34.120 -15.355 -22.600  0.00  0.00    -0.089 HD
ATOM     15  H   UNL     1      34.822 -15.199 -24.102  0.00  0.00    -0.089 HD
ATOM     16  H   UNL     1      35.771 -15.181 -22.733  0.00  0.00    -0.089 HD
ENDBRANCH  12  13
BRANCH  12  17
ATOM     17  C   UNL     1      34.598 -17.538 -24.621  0.00  0.00    -0.022 C 
ATOM     18  C   UNL     1      34.521 -19.057 -24.719  0.00  0.00    -0.002 C 
ENDBRANCH  12  17
ENDBRANCH  11  12
ENDBRANCH   2  11
TORSDOF 4
ENDMDL
MODEL 2
REMARK VINA RESULT:      -7.6      1.687      2.808
REMARK  Name = 8367
REMARK  4 active torsions:
REMARK  status: ('A' for Active; 'I' for Inactive)
REMARK    1  A    between atoms: C_2  and  C_11
REMARK    2  A    between atoms: C_11  and  C_12
REMARK    3  A    between atoms: C_12  and  N_13
REMARK    4  A    between atoms: C_12  and  C_17
REMARK                            x       y       z     vdW  Elec       q    Type
REMARK                         _______ _______ _______ _____ _____    ______ ____
ROOT
ATOM      1  N   UNL     1      32.698 -20.616 -20.382  0.00  0.00    -0.312 N 
ATOM      2  C   UNL     1      34.335 -19.555 -21.440  0.00  0.00    -0.008 C 
ATOM      3  C   UNL     1      34.916 -20.390 -20.445  0.00  0.00    +0.011 C 
ATOM      4  C   UNL     1      33.868 -21.045 -19.796  0.00  0.00    +0.048 C 
ATOM      5  C   UNL     1      32.970 -19.717 -21.377  0.00  0.00    +0.057 C 
ATOM      6  C   UNL     1      36.239 -20.651 -20.034  0.00  0.00    +0.001 C 
ATOM      7  C   UNL     1      34.076 -21.953 -18.752  0.00  0.00    +0.015 C 
ATOM      8  C   UNL     1      36.461 -21.558 -18.990  0.00  0.00    +0.000 C 
ATOM      9  C   UNL     1      35.395 -22.197 -18.361  0.00  0.00    +0.001 C 
ATOM     10  H   UNL     1      31.796 -20.915 -20.124  0.00  0.00    +0.152 HD
ENDROOT
BRANCH   2  11
ATOM     11  C   UNL     1      35.057 -18.670 -22.378  0.00  0.00    +0.006 C 
BRANCH  11  12
ATOM     12  C   UNL     1      34.656 -17.170 -22.295  0.00  0.00    -0.061 C 
BRANCH  12  13
ATOM     13  N   UNL     1      35.417 -16.400 -23.285  0.00  0.00    +0.382 N 
ATOM     14  H   UNL     1      34.926 -15.530 -23.490  0.00  0.00    -0.089 HD
ATOM     15  H   UNL     1      35.513 -16.946 -24.141  0.00  0.00    -0.089 HD
ATOM     16  H   UNL     1      36.343 -16.188 -22.911  0.00  0.00    -0.089 HD
ENDBRANCH  12  13
BRANCH  12  17
ATOM     17  C   UNL     1      34.892 -16.589 -20.888  0.00  0.00    -0.022 C 
ATOM     18  C   UNL     1      34.283 -15.204 -20.698  0.00  0.00    -0.002 C 
ENDBRANCH  12  17
ENDBRANCH  11  12
ENDBRANCH   2  11
TORSDOF 4
ENDMDL
MODEL 3
REMARK VINA RESULT:      -7.5      1.924      5.303
REMARK  Name = 8367
REMARK  4 active torsions:
REMARK  status: ('A' for Active; 'I' for Inactive)
REMARK    1  A    between atoms: C_2  and  C_11
REMARK    2  A    between atoms: C_11  and  C_12
REMARK    3  A    between atoms: C_12  and  N_13
REMARK    4  A    between atoms: C_12  and  C_17
REMARK                            x       y       z     vdW  Elec       q    Type
REMARK                         _______ _______ _______ _____ _____    ______ ____
ROOT
ATOM      1  N   UNL     1      35.296 -17.318 -24.047  0.00  0.00    -0.312 N 
ATOM      2  C   UNL     1      35.468 -18.248 -22.039  0.00  0.00    -0.008 C 
ATOM      3  C   UNL     1      35.026 -16.906 -21.871  0.00  0.00    +0.011 C 
ATOM      4  C   UNL     1      34.926 -16.345 -23.145  0.00  0.00    +0.048 C 
ATOM      5  C   UNL     1      35.625 -18.472 -23.387  0.00  0.00    +0.057 C 
ATOM      6  C   UNL     1      34.701 -16.113 -20.752  0.00  0.00    +0.001 C 
ATOM      7  C   UNL     1      34.515 -15.025 -23.359  0.00  0.00    +0.015 C 
ATOM      8  C   UNL     1      34.288 -14.790 -20.952  0.00  0.00    +0.000 C 
ATOM      9  C   UNL     1      34.197 -14.257 -22.235  0.00  0.00    +0.001 C 
ATOM     10  H   UNL     1      35.320 -17.201 -25.024  0.00  0.00    +0.152 HD
ENDROOT
BRANCH   2  11
ATOM     11  C   UNL     1      35.718 -19.234 -20.967  0.00  0.00    +0.006 C 
BRANCH  11  12
ATOM     12  C   UNL     1      34.632 -20.338 -20.832  0.00  0.00    -0.061 C 
BRANCH  12  13
ATOM     13  N   UNL     1      33.313 -19.717 -20.672  0.00  0.00    +0.382 N 
ATOM     14  H   UNL     1      32.997 -19.354 -21.571  0.00  0.00    -0.089 HD
ATOM     15  H   UNL     1      33.375 -18.952 -20.000  0.00  0.00    -0.089 HD
ATOM     16  H   UNL     1      32.648 -20.413 -20.334  0.00  0.00    -0.089 HD
ENDBRANCH  12  13
BRANCH  12  17
ATOM     17  C   UNL     1      34.913 -21.279 -19.645  0.00  0.00    -0.022 C 
ATOM     18  C   UNL     1      36.387 -21.337 -19.257  0.00  0.00    -0.002 C 
ENDBRANCH  12  17
ENDBRANCH  11  12
ENDBRANCH   2  11
TORSDOF 4
ENDMDL
MODEL 4
REMARK VINA RESULT:      -7.4      2.116      5.432
REMARK  Name = 8367
REMARK  4 active torsions:
REMARK  status: ('A' for Active; 'I' for Inactive)
REMARK    1  A    between atoms: C_2  and  C_11
REMARK    2  A    between atoms: C_11  and  C_12
REMARK    3  A    between atoms: C_12  and  N_13
REMARK    4  A    between atoms: C_12  and  C_17
REMARK                            x       y       z     vdW  Elec       q    Type
REMARK                         _______ _______ _______ _____ _____    ______ ____
ROOT
ATOM      1  N   UNL     1      34.065 -15.987 -24.437  0.00  0.00    -0.312 N 
ATOM      2  C   UNL     1      35.118 -17.105 -22.835  0.00  0.00    -0.008 C 
ATOM      3  C   UNL     1      34.363 -16.064 -22.228  0.00  0.00    +0.011 C 
ATOM      4  C   UNL     1      33.711 -15.377 -23.254  0.00  0.00    +0.048 C 
ATOM      5  C   UNL     1      34.914 -17.033 -24.194  0.00  0.00    +0.057 C 
ATOM      6  C   UNL     1      34.172 -15.638 -20.898  0.00  0.00    +0.001 C 
ATOM      7  C   UNL     1      32.874 -14.282 -23.017  0.00  0.00    +0.015 C 
ATOM      8  C   UNL     1      33.336 -14.544 -20.646  0.00  0.00    +0.000 C 
ATOM      9  C   UNL     1      32.698 -13.878 -21.691  0.00  0.00    +0.001 C 
ATOM     10  H   UNL     1      33.751 -15.712 -25.329  0.00  0.00    +0.152 HD
ENDROOT
BRANCH   2  11
ATOM     11  C   UNL     1      35.972 -18.093 -22.143  0.00  0.00    +0.006 C 
BRANCH  11  12
ATOM     12  C   UNL     1      35.263 -18.882 -21.007  0.00  0.00    -0.061 C 
BRANCH  12  13
ATOM     13  N   UNL     1      36.237 -19.733 -20.314  0.00  0.00    +0.382 N 
ATOM     14  H   UNL     1      36.418 -20.567 -20.873  0.00  0.00    -0.089 HD
ATOM     15  H   UNL     1      35.864 -20.008 -19.406  0.00  0.00    -0.089 HD
ATOM     16  H   UNL     1      37.107 -19.217 -20.183  0.00  0.00    -0.089 HD
ENDBRANCH  12  13
BRANCH  12  17
ATOM     17  C   UNL     1      34.104 -19.744 -21.541  0.00  0.00    -0.022 C 
ATOM     18  C   UNL     1      32.925 -19.832 -20.579  0.00  0.00    -0.002 C 
ENDBRANCH  12  17
ENDBRANCH  11  12
ENDBRANCH   2  11
TORSDOF 4
ENDMDL
MODEL 5
REMARK VINA RESULT:      -7.3      3.926      5.844
REMARK  Name = 8367
REMARK  4 active torsions:
REMARK  status: ('A' for Active; 'I' for Inactive)
REMARK    1  A    between atoms: C_2  and  C_11
REMARK    2  A    between atoms: C_11  and  C_12
REMARK    3  A    between atoms: C_12  and  N_13
REMARK    4  A    between atoms: C_12  and  C_17
REMARK                            x       y       z     vdW  Elec       q    Type
REMARK                         _______ _______ _______ _____ _____    ______ ____
ROOT
ATOM      1  N   UNL     1      33.456 -15.758 -25.886  0.00  0.00    -0.312 N 
ATOM      2  C   UNL     1      33.651 -14.546 -24.037  0.00  0.00    -0.008 C 
ATOM      3  C   UNL     1      34.254 -15.814 -23.804  0.00  0.00    +0.011 C 
ATOM      4  C   UNL     1      34.119 -16.555 -24.979  0.00  0.00    +0.048 C 
ATOM      5  C   UNL     1      33.170 -14.542 -25.326  0.00  0.00    +0.057 C 
ATOM      6  C   UNL     1      34.904 -16.402 -22.700  0.00  0.00    +0.001 C 
ATOM      7  C   UNL     1      34.604 -17.861 -25.108  0.00  0.00    +0.015 C 
ATOM      8  C   UNL     1      35.394 -17.709 -22.816  0.00  0.00    +0.000 C 
ATOM      9  C   UNL     1      35.245 -18.424 -24.002  0.00  0.00    +0.001 C 
ATOM     10  H   UNL     1      33.224 -16.025 -26.805  0.00  0.00    +0.152 HD
ENDROOT
BRANCH   2  11
ATOM     11  C   UNL     1      33.551 -13.428 -23.077  0.00  0.00    +0.006 C 
BRANCH  11  12
ATOM     12  C   UNL     1      32.293 -13.463 -22.165  0.00  0.00    -0.061 C 
BRANCH  12  13
ATOM     13  N   UNL     1      31.552 -12.205 -22.297  0.00  0.00    +0.382 N 
ATOM     14  H   UNL     1      32.207 -11.424 -22.313  0.00  0.00    -0.089 HD
ATOM     15  H   UNL     1      30.917 -12.098 -21.506  0.00  0.00    -0.089 HD
ATOM     16  H   UNL     1      31.015 -12.216 -23.164  0.00  0.00    -0.089 HD
ENDBRANCH  12  13
BRANCH  12  17
ATOM     17  C   UNL     1      32.660 -13.700 -20.687  0.00  0.00    -0.022 C 
ATOM     18  C   UNL     1      32.643 -15.172 -20.291  0.00  0.00    -0.002 C 
ENDBRANCH  12  17
ENDBRANCH  11  12
ENDBRANCH   2  11
TORSDOF 4
ENDMDL
MODEL 6
REMARK VINA RESULT:      -7.2      2.015      5.906
REMARK  Name = 8367
REMARK  4 active torsions:
REMARK  status: ('A' for Active; 'I' for Inactive)
REMARK    1  A    between atoms: C_2  and  C_11
REMARK    2  A    between atoms: C_11  and  C_12
REMARK    3  A    between atoms: C_12  and  N_13
REMARK    4  A    between atoms: C_12  and  C_17
REMARK                            x       y       z     vdW  Elec       q    Type
REMARK                         _______ _______ _______ _____ _____    ______ ____
ROOT
ATOM      1  N   UNL     1      33.989 -14.619 -21.710  0.00  0.00    -0.312 N 
ATOM      2  C   UNL     1      34.927 -16.553 -22.266  0.00  0.00    -0.008 C 
ATOM      3  C   UNL     1      34.348 -15.986 -23.436  0.00  0.00    +0.011 C 
ATOM      4  C   UNL     1      33.767 -14.773 -23.061  0.00  0.00    +0.048 C 
ATOM      5  C   UNL     1      34.690 -15.689 -21.222  0.00  0.00    +0.057 C 
ATOM      6  C   UNL     1      34.264 -16.391 -24.783  0.00  0.00    +0.001 C 
ATOM      7  C   UNL     1      33.103 -13.941 -23.967  0.00  0.00    +0.015 C 
ATOM      8  C   UNL     1      33.602 -15.568 -25.702  0.00  0.00    +0.000 C 
ATOM      9  C   UNL     1      33.032 -14.363 -25.298  0.00  0.00    +0.001 C 
ATOM     10  H   UNL     1      33.689 -13.850 -21.174  0.00  0.00    +0.152 HD
ENDROOT
BRANCH   2  11
ATOM     11  C   UNL     1      35.653 -17.837 -22.176  0.00  0.00    +0.006 C 
BRANCH  11  12
ATOM     12  C   UNL     1      35.205 -18.756 -21.006  0.00  0.00    -0.061 C 
BRANCH  12  13
ATOM     13  N   UNL     1      36.374 -19.435 -20.436  0.00  0.00    +0.382 N 
ATOM     14  H   UNL     1      37.177 -18.807 -20.458  0.00  0.00    -0.089 HD
ATOM     15  H   UNL     1      36.582 -20.272 -20.981  0.00  0.00    -0.089 HD
ATOM     16  H   UNL     1      36.176 -19.699 -19.470  0.00  0.00    -0.089 HD
ENDBRANCH  12  13
BRANCH  12  17
ATOM     17  C   UNL     1      34.165 -19.799 -21.459  0.00  0.00    -0.022 C 
ATOM     18  C   UNL     1      32.905 -19.806 -20.600  0.00  0.00    -0.002 C 
ENDBRANCH  12  17
ENDBRANCH  11  12
ENDBRANCH   2  11
TORSDOF 4
ENDMDL
MODEL 7
REMARK VINA RESULT:      -7.2      3.073      4.953
REMARK  Name = 8367
REMARK  4 active torsions:
REMARK  status: ('A' for Active; 'I' for Inactive)
REMARK    1  A    between atoms: C_2  and  C_11
REMARK    2  A    between atoms: C_11  and  C_12
REMARK    3  A    between atoms: C_12  and  N_13
REMARK    4  A    between atoms: C_12  and  C_17
REMARK                            x       y       z     vdW  Elec       q    Type
REMARK                         _______ _______ _______ _____ _____    ______ ____
ROOT
ATOM      1  N   UNL     1      35.092 -17.547 -20.930  0.00  0.00    -0.312 N 
ATOM      2  C   UNL     1      34.461 -15.675 -21.941  0.00  0.00    -0.008 C 
ATOM      3  C   UNL     1      34.557 -16.700 -22.924  0.00  0.00    +0.011 C 
ATOM      4  C   UNL     1      34.954 -17.865 -22.264  0.00  0.00    +0.048 C 
ATOM      5  C   UNL     1      34.795 -16.227 -20.726  0.00  0.00    +0.057 C 
ATOM      6  C   UNL     1      34.343 -16.748 -24.316  0.00  0.00    +0.001 C 
ATOM      7  C   UNL     1      35.149 -19.080 -22.928  0.00  0.00    +0.015 C 
ATOM      8  C   UNL     1      34.534 -17.958 -24.993  0.00  0.00    +0.000 C 
ATOM      9  C   UNL     1      34.930 -19.105 -24.308  0.00  0.00    +0.001 C 
ATOM     10  H   UNL     1      35.363 -18.180 -20.226  0.00  0.00    +0.152 HD
ENDROOT
BRANCH   2  11
ATOM     11  C   UNL     1      34.074 -14.268 -22.172  0.00  0.00    +0.006 C 
BRANCH  11  12
ATOM     12  C   UNL     1      32.562 -13.968 -21.971  0.00  0.00    -0.061 C 
BRANCH  12  13
ATOM     13  N   UNL     1      32.049 -13.218 -23.122  0.00  0.00    +0.382 N 
ATOM     14  H   UNL     1      32.829 -12.813 -23.639  0.00  0.00    -0.089 HD
ATOM     15  H   UNL     1      31.433 -12.473 -22.797  0.00  0.00    -0.089 HD
ATOM     16  H   UNL     1      31.528 -13.848 -23.733  0.00  0.00    -0.089 HD
ENDBRANCH  12  13
BRANCH  12  17
ATOM     17  C   UNL     1      32.301 -13.176 -20.674  0.00  0.00    -0.022 C 
ATOM     18  C   UNL     1      31.571 -11.859 -20.910  0.00  0.00    -0.002 C 
ENDBRANCH  12  17
ENDBRANCH  11  12
ENDBRANCH   2  11
TORSDOF 4
ENDMDL
MODEL 8
REMARK VINA RESULT:      -7.1      2.741      4.658
REMARK  Name = 8367
REMARK  4 active torsions:
REMARK  status: ('A' for Active; 'I' for Inactive)
REMARK    1  A    between atoms: C_2  and  C_11
REMARK    2  A    between atoms: C_11  and  C_12
REMARK    3  A    between atoms: C_12  and  N_13
REMARK    4  A    between atoms: C_12  and  C_17
REMARK                            x       y       z     vdW  Elec       q    Type
REMARK                         _______ _______ _______ _____ _____    ______ ____
ROOT
ATOM      1  N   UNL     1      34.390 -17.245 -24.962  0.00  0.00    -0.312 N 
ATOM      2  C   UNL     1      34.448 -15.596 -23.478  0.00  0.00    -0.008 C 
ATOM      3  C   UNL     1      34.725 -16.816 -22.799  0.00  0.00    +0.011 C 
ATOM      4  C   UNL     1      34.683 -17.834 -23.753  0.00  0.00    +0.048 C 
ATOM      5  C   UNL     1      34.247 -15.892 -24.806  0.00  0.00    +0.057 C 
ATOM      6  C   UNL     1      35.008 -17.151 -21.460  0.00  0.00    +0.001 C 
ATOM      7  C   UNL     1      34.911 -19.177 -23.434  0.00  0.00    +0.015 C 
ATOM      8  C   UNL     1      35.238 -18.491 -21.127  0.00  0.00    +0.000 C 
ATOM      9  C   UNL     1      35.190 -19.486 -22.100  0.00  0.00    +0.001 C 
ATOM     10  H   UNL     1      34.298 -17.726 -25.816  0.00  0.00    +0.152 HD
ENDROOT
BRANCH   2  11
ATOM     11  C   UNL     1      34.385 -14.248 -22.875  0.00  0.00    +0.006 C 
BRANCH  11  12
ATOM     12  C   UNL     1      33.419 -13.261 -23.589  0.00  0.00    -0.061 C 
BRANCH  12  13
ATOM     13  N   UNL     1      34.173 -12.106 -24.088  0.00  0.00    +0.382 N 
ATOM     14  H   UNL     1      35.093 -12.411 -24.404  0.00  0.00    -0.089 HD
ATOM     15  H   UNL     1      34.281 -11.421 -23.340  0.00  0.00    -0.089 HD
ATOM     16  H   UNL     1      33.669 -11.682 -24.867  0.00  0.00    -0.089 HD
ENDBRANCH  12  13
BRANCH  12  17
ATOM     17  C   UNL     1      32.290 -12.784 -22.655  0.00  0.00    -0.022 C 
ATOM     18  C   UNL     1      32.276 -13.503 -21.311  0.00  0.00    -0.002 C 
ENDBRANCH  12  17
ENDBRANCH  11  12
ENDBRANCH   2  11
TORSDOF 4
ENDMDL
MODEL 9
REMARK VINA RESULT:      -7.1      9.303     11.204
REMARK  Name = 8367
REMARK  4 active torsions:
REMARK  status: ('A' for Active; 'I' for Inactive)
REMARK    1  A    between atoms: C_2  and  C_11
REMARK    2  A    between atoms: C_11  and  C_12
REMARK    3  A    between atoms: C_12  and  N_13
REMARK    4  A    between atoms: C_12  and  C_17
REMARK                            x       y       z     vdW  Elec       q    Type
REMARK                         _______ _______ _______ _____ _____    ______ ____
ROOT
ATOM      1  N   UNL     1      32.448  -7.926 -19.619  0.00  0.00    -0.312 N 
ATOM      2  C   UNL     1      31.978  -7.941 -21.787  0.00  0.00    -0.008 C 
ATOM      3  C   UNL     1      31.770  -9.254 -21.278  0.00  0.00    +0.011 C 
ATOM      4  C   UNL     1      32.071  -9.217 -19.915  0.00  0.00    +0.048 C 
ATOM      5  C   UNL     1      32.393  -7.148 -20.744  0.00  0.00    +0.057 C 
ATOM      6  C   UNL     1      31.353 -10.473 -21.849  0.00  0.00    +0.001 C 
ATOM      7  C   UNL     1      31.977 -10.342 -19.090  0.00  0.00    +0.015 C 
ATOM      8  C   UNL     1      31.253 -11.607 -21.034  0.00  0.00    +0.000 C 
ATOM      9  C   UNL     1      31.561 -11.541 -19.677  0.00  0.00    +0.001 C 
ATOM     10  H   UNL     1      32.716  -7.608 -18.726  0.00  0.00    +0.152 HD
ENDROOT
BRANCH   2  11
ATOM     11  C   UNL     1      31.785  -7.498 -23.184  0.00  0.00    +0.006 C 
BRANCH  11  12
ATOM     12  C   UNL     1      32.713  -6.334 -23.631  0.00  0.00    -0.061 C 
BRANCH  12  13
ATOM     13  N   UNL     1      31.962  -5.401 -24.477  0.00  0.00    +0.382 N 
ATOM     14  H   UNL     1      31.060  -5.201 -24.045  0.00  0.00    -0.089 HD
ATOM     15  H   UNL     1      31.813  -5.817 -25.396  0.00  0.00    -0.089 HD
ATOM     16  H   UNL     1      32.490  -4.534 -24.578  0.00  0.00    -0.089 HD
ENDBRANCH  12  13
BRANCH  12  17
ATOM     17  C   UNL     1      33.952  -6.845 -24.391  0.00  0.00    -0.022 C 
ATOM     18  C   UNL     1      34.930  -7.608 -23.504  0.00  0.00    -0.002 C 
ENDBRANCH  12  17
ENDBRANCH  11  12
ENDBRANCH   2  11
TORSDOF 4
ENDMDL
