MODEL 1
REMARK VINA RESULT:      -9.9      0.000      0.000
REMARK  Name = 24755470
REMARK  14 active torsions:
REMARK  status: ('A' for Active; 'I' for Inactive)
REMARK    1  A    between atoms: S_1  and  C_4
REMARK    2  A    between atoms: S_1  and  N_20
REMARK    3  A    between atoms: C_11  and  O_14
REMARK    4  A    between atoms: O_14  and  C_15
REMARK    5  A    between atoms: C_15  and  C_16
REMARK    6  A    between atoms: C_16  and  C_17
REMARK    7  A    between atoms: C_17  and  C_18
REMARK    8  A    between atoms: N_20  and  C_22
REMARK    9  A    between atoms: C_22  and  C_24
REMARK   10  A    between atoms: C_22  and  C_27
REMARK   11  A    between atoms: C_24  and  O_25
REMARK   12  A    between atoms: C_27  and  C_28
REMARK   13  A    between atoms: C_28  and  C_30
REMARK   14  A    between atoms: C_30  and  O_31
REMARK                            x       y       z     vdW  Elec       q    Type
REMARK                         _______ _______ _______ _____ _____    ______ ____
ROOT
ATOM      1  S   UNL     1      35.491 -24.171 -15.078  0.00  0.00    +0.061 S 
ATOM      2  O   UNL     1      34.352 -23.731 -14.295  0.00  0.00    -0.153 OA
ATOM      3  O   UNL     1      35.559 -25.536 -15.566  0.00  0.00    -0.153 OA
ENDROOT
BRANCH   1   4
ATOM      4  C   UNL     1      35.624 -23.113 -16.489  0.00  0.00    +0.122 C 
ATOM      5  C   UNL     1      34.597 -22.045 -18.418  0.00  0.00    +0.002 C 
ATOM      6  C   UNL     1      35.834 -21.432 -18.728  0.00  0.00    +0.003 C 
ATOM      7  C   UNL     1      34.509 -22.883 -17.294  0.00  0.00    +0.020 C 
ATOM      8  C   UNL     1      36.841 -22.511 -16.794  0.00  0.00    +0.020 C 
ATOM      9  C   UNL     1      36.947 -21.675 -17.906  0.00  0.00    +0.001 C 
ATOM     10  C   UNL     1      35.924 -20.595 -19.851  0.00  0.00    +0.037 C 
ATOM     11  C   UNL     1      34.808 -20.364 -20.658  0.00  0.00    +0.139 C 
ATOM     12  C   UNL     1      33.485 -21.802 -19.240  0.00  0.00    +0.003 C 
ATOM     13  C   UNL     1      33.591 -20.967 -20.352  0.00  0.00    +0.037 C 
BRANCH  11  14
ATOM     14  O   UNL     1      34.909 -19.549 -21.743  0.00  0.00    -0.475 OA
BRANCH  14  15
ATOM     15  C   UNL     1      35.805 -18.442 -21.641  0.00  0.00    +0.205 C 
BRANCH  15  16
ATOM     16  C   UNL     1      35.041 -17.238 -21.107  0.00  0.00    +0.047 C 
BRANCH  16  17
ATOM     17  C   UNL     1      34.550 -16.336 -22.236  0.00  0.00    +0.004 C 
BRANCH  17  18
ATOM     18  C   UNL     1      34.258 -14.923 -21.732  0.00  0.00    +0.000 C 
ATOM     19  C   UNL     1      32.767 -14.698 -21.538  0.00  0.00    +0.000 C 
ENDBRANCH  17  18
ENDBRANCH  16  17
ENDBRANCH  15  16
ENDBRANCH  14  15
ENDBRANCH  11  14
ENDBRANCH   1   4
BRANCH   1  20
ATOM     20  N   UNL     1      36.924 -23.815 -14.237  0.00  0.00    -0.170 NA
ATOM     21  H   UNL     1      36.694 -23.092 -13.556  0.00  0.00    +0.149 HD
BRANCH  20  22
ATOM     22  C   UNL     1      37.635 -24.885 -13.503  0.00  0.00    +0.174 C 
BRANCH  22  24
ATOM     23  O   UNL     1      40.025 -24.918 -13.945  0.00  0.00    -0.249 OA
ATOM     24  C   UNL     1      38.887 -25.229 -14.273  0.00  0.00    +0.330 C 
BRANCH  24  25
ATOM     25  O   UNL     1      38.620 -25.956 -15.389  0.00  0.00    -0.479 OA
ATOM     26  H   UNL     1      38.221 -26.800 -15.313  0.00  0.00    +0.295 HD
ENDBRANCH  24  25
ENDBRANCH  22  24
BRANCH  22  27
ATOM     27  C   UNL     1      37.874 -24.469 -12.047  0.00  0.00    +0.040 C 
BRANCH  27  28
ATOM     28  C   UNL     1      36.786 -23.610 -11.398  0.00  0.00    +0.111 C 
BRANCH  28  30
ATOM     29  O   UNL     1      35.413 -24.551  -9.649  0.00  0.00    -0.250 OA
ATOM     30  C   UNL     1      35.628 -24.403 -10.845  0.00  0.00    +0.314 C 
BRANCH  30  31
ATOM     31  O   UNL     1      34.857 -24.953 -11.815  0.00  0.00    -0.480 OA
ATOM     32  H   UNL     1      35.132 -25.740 -12.241  0.00  0.00    +0.295 HD
ENDBRANCH  30  31
ENDBRANCH  28  30
ENDBRANCH  27  28
ENDBRANCH  22  27
ENDBRANCH  20  22
ENDBRANCH   1  20
TORSDOF 14
ENDMDL
MODEL 2
REMARK VINA RESULT:      -9.8      3.652      5.576
REMARK  Name = 24755470
REMARK  14 active torsions:
REMARK  status: ('A' for Active; 'I' for Inactive)
REMARK    1  A    between atoms: S_1  and  C_4
REMARK    2  A    between atoms: S_1  and  N_20
REMARK    3  A    between atoms: C_11  and  O_14
REMARK    4  A    between atoms: O_14  and  C_15
REMARK    5  A    between atoms: C_15  and  C_16
REMARK    6  A    between atoms: C_16  and  C_17
REMARK    7  A    between atoms: C_17  and  C_18
REMARK    8  A    between atoms: N_20  and  C_22
REMARK    9  A    between atoms: C_22  and  C_24
REMARK   10  A    between atoms: C_22  and  C_27
REMARK   11  A    between atoms: C_24  and  O_25
REMARK   12  A    between atoms: C_27  and  C_28
REMARK   13  A    between atoms: C_28  and  C_30
REMARK   14  A    between atoms: C_30  and  O_31
REMARK                            x       y       z     vdW  Elec       q    Type
REMARK                         _______ _______ _______ _____ _____    ______ ____
ROOT
ATOM      1  S   UNL     1      33.803 -23.222 -17.788  0.00  0.00    +0.061 S 
ATOM      2  O   UNL     1      33.581 -24.442 -18.540  0.00  0.00    -0.153 OA
ATOM      3  O   UNL     1      34.925 -23.123 -16.873  0.00  0.00    -0.153 OA
ENDROOT
BRANCH   1   4
ATOM      4  C   UNL     1      33.959 -21.891 -18.940  0.00  0.00    +0.122 C 
ATOM      5  C   UNL     1      35.367 -20.384 -20.232  0.00  0.00    +0.002 C 
ATOM      6  C   UNL     1      34.209 -19.777 -20.773  0.00  0.00    +0.003 C 
ATOM      7  C   UNL     1      35.225 -21.441 -19.316  0.00  0.00    +0.020 C 
ATOM      8  C   UNL     1      32.820 -21.293 -19.473  0.00  0.00    +0.020 C 
ATOM      9  C   UNL     1      32.943 -20.244 -20.383  0.00  0.00    +0.001 C 
ATOM     10  C   UNL     1      34.350 -18.722 -21.687  0.00  0.00    +0.037 C 
ATOM     11  C   UNL     1      35.616 -18.270 -22.063  0.00  0.00    +0.139 C 
ATOM     12  C   UNL     1      36.633 -19.917 -20.620  0.00  0.00    +0.003 C 
ATOM     13  C   UNL     1      36.755 -18.868 -21.531  0.00  0.00    +0.037 C 
BRANCH  11  14
ATOM     14  O   UNL     1      35.737 -17.247 -22.952  0.00  0.00    -0.475 OA
BRANCH  14  15
ATOM     15  C   UNL     1      34.785 -17.193 -24.014  0.00  0.00    +0.205 C 
BRANCH  15  16
ATOM     16  C   UNL     1      34.281 -15.764 -24.151  0.00  0.00    +0.047 C 
BRANCH  16  17
ATOM     17  C   UNL     1      33.490 -15.324 -22.921  0.00  0.00    +0.004 C 
BRANCH  17  18
ATOM     18  C   UNL     1      34.347 -14.476 -21.983  0.00  0.00    +0.000 C 
ATOM     19  C   UNL     1      34.371 -15.052 -20.576  0.00  0.00    +0.000 C 
ENDBRANCH  17  18
ENDBRANCH  16  17
ENDBRANCH  15  16
ENDBRANCH  14  15
ENDBRANCH  11  14
ENDBRANCH   1   4
BRANCH   1  20
ATOM     20  N   UNL     1      32.380 -22.803 -16.960  0.00  0.00    -0.170 NA
ATOM     21  H   UNL     1      31.659 -22.658 -17.667  0.00  0.00    +0.149 HD
BRANCH  20  22
ATOM     22  C   UNL     1      31.812 -23.726 -15.952  0.00  0.00    +0.174 C 
BRANCH  22  24
ATOM     23  O   UNL     1      31.427 -23.166 -13.618  0.00  0.00    -0.249 OA
ATOM     24  C   UNL     1      32.180 -23.207 -14.583  0.00  0.00    +0.330 C 
BRANCH  24  25
ATOM     25  O   UNL     1      33.473 -22.796 -14.520  0.00  0.00    -0.479 OA
ATOM     26  H   UNL     1      34.024 -23.090 -13.822  0.00  0.00    +0.295 HD
ENDBRANCH  24  25
ENDBRANCH  22  24
BRANCH  22  27
ATOM     27  C   UNL     1      30.308 -23.911 -16.182  0.00  0.00    +0.040 C 
BRANCH  27  28
ATOM     28  C   UNL     1      29.496 -22.638 -16.436  0.00  0.00    +0.111 C 
BRANCH  28  30
ATOM     29  O   UNL     1      27.774 -23.985 -17.461  0.00  0.00    -0.250 OA
ATOM     30  C   UNL     1      28.157 -22.885 -17.084  0.00  0.00    +0.314 C 
BRANCH  30  31
ATOM     31  O   UNL     1      27.424 -21.753 -17.223  0.00  0.00    -0.480 OA
ATOM     32  H   UNL     1      27.766 -20.934 -16.926  0.00  0.00    +0.295 HD
ENDBRANCH  30  31
ENDBRANCH  28  30
ENDBRANCH  27  28
ENDBRANCH  22  27
ENDBRANCH  20  22
ENDBRANCH   1  20
TORSDOF 14
ENDMDL
MODEL 3
REMARK VINA RESULT:      -9.5      1.238      3.012
REMARK  Name = 24755470
REMARK  14 active torsions:
REMARK  status: ('A' for Active; 'I' for Inactive)
REMARK    1  A    between atoms: S_1  and  C_4
REMARK    2  A    between atoms: S_1  and  N_20
REMARK    3  A    between atoms: C_11  and  O_14
REMARK    4  A    between atoms: O_14  and  C_15
REMARK    5  A    between atoms: C_15  and  C_16
REMARK    6  A    between atoms: C_16  and  C_17
REMARK    7  A    between atoms: C_17  and  C_18
REMARK    8  A    between atoms: N_20  and  C_22
REMARK    9  A    between atoms: C_22  and  C_24
REMARK   10  A    between atoms: C_22  and  C_27
REMARK   11  A    between atoms: C_24  and  O_25
REMARK   12  A    between atoms: C_27  and  C_28
REMARK   13  A    between atoms: C_28  and  C_30
REMARK   14  A    between atoms: C_30  and  O_31
REMARK                            x       y       z     vdW  Elec       q    Type
REMARK                         _______ _______ _______ _____ _____    ______ ____
ROOT
ATOM      1  S   UNL     1      35.339 -24.252 -14.999  0.00  0.00    +0.061 S 
ATOM      2  O   UNL     1      33.953 -24.254 -14.573  0.00  0.00    -0.153 OA
ATOM      3  O   UNL     1      36.000 -25.498 -15.339  0.00  0.00    -0.153 OA
ENDROOT
BRANCH   1   4
ATOM      4  C   UNL     1      35.474 -23.196 -16.410  0.00  0.00    +0.122 C 
ATOM      5  C   UNL     1      34.448 -22.123 -18.337  0.00  0.00    +0.002 C 
ATOM      6  C   UNL     1      35.688 -21.517 -18.652  0.00  0.00    +0.003 C 
ATOM      7  C   UNL     1      34.358 -22.960 -17.212  0.00  0.00    +0.020 C 
ATOM      8  C   UNL     1      36.694 -22.601 -16.720  0.00  0.00    +0.020 C 
ATOM      9  C   UNL     1      36.801 -21.766 -17.833  0.00  0.00    +0.001 C 
ATOM     10  C   UNL     1      35.778 -20.681 -19.776  0.00  0.00    +0.037 C 
ATOM     11  C   UNL     1      34.662 -20.445 -20.579  0.00  0.00    +0.139 C 
ATOM     12  C   UNL     1      33.335 -21.875 -19.156  0.00  0.00    +0.003 C 
ATOM     13  C   UNL     1      33.443 -21.041 -20.269  0.00  0.00    +0.037 C 
BRANCH  11  14
ATOM     14  O   UNL     1      34.765 -19.631 -21.665  0.00  0.00    -0.475 OA
BRANCH  14  15
ATOM     15  C   UNL     1      35.440 -18.387 -21.481  0.00  0.00    +0.205 C 
BRANCH  15  16
ATOM     16  C   UNL     1      35.583 -17.700 -22.832  0.00  0.00    +0.047 C 
BRANCH  16  17
ATOM     17  C   UNL     1      35.046 -18.570 -23.966  0.00  0.00    +0.004 C 
BRANCH  17  18
ATOM     18  C   UNL     1      34.562 -17.718 -25.139  0.00  0.00    +0.000 C 
ATOM     19  C   UNL     1      34.240 -16.298 -24.700  0.00  0.00    +0.000 C 
ENDBRANCH  17  18
ENDBRANCH  16  17
ENDBRANCH  15  16
ENDBRANCH  14  15
ENDBRANCH  11  14
ENDBRANCH   1   4
BRANCH   1  20
ATOM     20  N   UNL     1      36.281 -23.425 -13.852  0.00  0.00    -0.170 NA
ATOM     21  H   UNL     1      35.702 -22.670 -13.484  0.00  0.00    +0.149 HD
BRANCH  20  22
ATOM     22  C   UNL     1      36.830 -24.151 -12.685  0.00  0.00    +0.174 C 
BRANCH  22  24
ATOM     23  O   UNL     1      35.669 -25.371 -10.932  0.00  0.00    -0.249 OA
ATOM     24  C   UNL     1      35.690 -24.454 -11.743  0.00  0.00    +0.330 C 
BRANCH  24  25
ATOM     25  O   UNL     1      34.667 -23.570 -11.876  0.00  0.00    -0.479 OA
ATOM     26  H   UNL     1      34.622 -22.820 -11.317  0.00  0.00    +0.295 HD
ENDBRANCH  24  25
ENDBRANCH  22  24
BRANCH  22  27
ATOM     27  C   UNL     1      37.623 -25.380 -13.144  0.00  0.00    +0.040 C 
BRANCH  27  28
ATOM     28  C   UNL     1      39.137 -25.201 -13.282  0.00  0.00    +0.111 C 
BRANCH  28  30
ATOM     29  O   UNL     1      40.898 -25.840 -14.806  0.00  0.00    -0.250 OA
ATOM     30  C   UNL     1      39.700 -25.726 -14.579  0.00  0.00    +0.314 C 
BRANCH  30  31
ATOM     31  O   UNL     1      38.738 -26.042 -15.480  0.00  0.00    -0.480 OA
ATOM     32  H   UNL     1      38.902 -25.938 -16.396  0.00  0.00    +0.295 HD
ENDBRANCH  30  31
ENDBRANCH  28  30
ENDBRANCH  27  28
ENDBRANCH  22  27
ENDBRANCH  20  22
ENDBRANCH   1  20
TORSDOF 14
ENDMDL
MODEL 4
REMARK VINA RESULT:      -9.4      4.599     10.561
REMARK  Name = 24755470
REMARK  14 active torsions:
REMARK  status: ('A' for Active; 'I' for Inactive)
REMARK    1  A    between atoms: S_1  and  C_4
REMARK    2  A    between atoms: S_1  and  N_20
REMARK    3  A    between atoms: C_11  and  O_14
REMARK    4  A    between atoms: O_14  and  C_15
REMARK    5  A    between atoms: C_15  and  C_16
REMARK    6  A    between atoms: C_16  and  C_17
REMARK    7  A    between atoms: C_17  and  C_18
REMARK    8  A    between atoms: N_20  and  C_22
REMARK    9  A    between atoms: C_22  and  C_24
REMARK   10  A    between atoms: C_22  and  C_27
REMARK   11  A    between atoms: C_24  and  O_25
REMARK   12  A    between atoms: C_27  and  C_28
REMARK   13  A    between atoms: C_28  and  C_30
REMARK   14  A    between atoms: C_30  and  O_31
REMARK                            x       y       z     vdW  Elec       q    Type
REMARK                         _______ _______ _______ _____ _____    ______ ____
ROOT
ATOM      1  S   UNL     1      35.421 -18.561 -22.860  0.00  0.00    +0.061 S 
ATOM      2  O   UNL     1      36.754 -18.167 -22.443  0.00  0.00    -0.153 OA
ATOM      3  O   UNL     1      35.226 -19.261 -24.115  0.00  0.00    -0.153 OA
ENDROOT
BRANCH   1   4
ATOM      4  C   UNL     1      34.731 -19.579 -21.590  0.00  0.00    +0.122 C 
ATOM      5  C   UNL     1      35.039 -21.074 -19.696  0.00  0.00    +0.002 C 
ATOM      6  C   UNL     1      33.635 -21.195 -19.572  0.00  0.00    +0.003 C 
ATOM      7  C   UNL     1      35.571 -20.262 -20.711  0.00  0.00    +0.020 C 
ATOM      8  C   UNL     1      33.349 -19.697 -21.467  0.00  0.00    +0.020 C 
ATOM      9  C   UNL     1      32.803 -20.499 -20.465  0.00  0.00    +0.001 C 
ATOM     10  C   UNL     1      33.102 -22.007 -18.558  0.00  0.00    +0.037 C 
ATOM     11  C   UNL     1      33.942 -22.691 -17.679  0.00  0.00    +0.139 C 
ATOM     12  C   UNL     1      35.870 -21.770 -18.804  0.00  0.00    +0.003 C 
ATOM     13  C   UNL     1      35.324 -22.572 -17.802  0.00  0.00    +0.037 C 
BRANCH  11  14
ATOM     14  O   UNL     1      33.412 -23.473 -16.700  0.00  0.00    -0.475 OA
BRANCH  14  15
ATOM     15  C   UNL     1      31.989 -23.492 -16.584  0.00  0.00    +0.205 C 
BRANCH  15  16
ATOM     16  C   UNL     1      31.614 -23.430 -15.110  0.00  0.00    +0.047 C 
BRANCH  16  17
ATOM     17  C   UNL     1      30.265 -22.748 -14.900  0.00  0.00    +0.004 C 
BRANCH  17  18
ATOM     18  C   UNL     1      29.432 -22.756 -16.182  0.00  0.00    +0.000 C 
ATOM     19  C   UNL     1      27.949 -22.606 -15.884  0.00  0.00    +0.000 C 
ENDBRANCH  17  18
ENDBRANCH  16  17
ENDBRANCH  15  16
ENDBRANCH  14  15
ENDBRANCH  11  14
ENDBRANCH   1   4
BRANCH   1  20
ATOM     20  N   UNL     1      34.395 -17.207 -22.820  0.00  0.00    -0.170 NA
ATOM     21  H   UNL     1      34.241 -16.982 -21.836  0.00  0.00    +0.149 HD
BRANCH  20  22
ATOM     22  C   UNL     1      34.803 -15.951 -23.487  0.00  0.00    +0.174 C 
BRANCH  22  24
ATOM     23  O   UNL     1      33.176 -15.174 -25.118  0.00  0.00    -0.249 OA
ATOM     24  C   UNL     1      34.124 -15.895 -24.834  0.00  0.00    +0.330 C 
BRANCH  24  25
ATOM     25  O   UNL     1      34.701 -16.734 -25.734  0.00  0.00    -0.479 OA
ATOM     26  H   UNL     1      34.184 -17.116 -26.415  0.00  0.00    +0.295 HD
ENDBRANCH  24  25
ENDBRANCH  22  24
BRANCH  22  27
ATOM     27  C   UNL     1      34.523 -14.747 -22.580  0.00  0.00    +0.040 C 
BRANCH  27  28
ATOM     28  C   UNL     1      33.262 -14.825 -21.715  0.00  0.00    +0.111 C 
BRANCH  28  30
ATOM     29  O   UNL     1      32.126 -12.904 -20.794  0.00  0.00    -0.250 OA
ATOM     30  C   UNL     1      32.403 -13.586 -21.772  0.00  0.00    +0.314 C 
BRANCH  30  31
ATOM     31  O   UNL     1      31.952 -13.316 -23.021  0.00  0.00    -0.480 OA
ATOM     32  H   UNL     1      31.032 -13.279 -23.189  0.00  0.00    +0.295 HD
ENDBRANCH  30  31
ENDBRANCH  28  30
ENDBRANCH  27  28
ENDBRANCH  22  27
ENDBRANCH  20  22
ENDBRANCH   1  20
TORSDOF 14
ENDMDL
MODEL 5
REMARK VINA RESULT:      -9.4      4.363     10.767
REMARK  Name = 24755470
REMARK  14 active torsions:
REMARK  status: ('A' for Active; 'I' for Inactive)
REMARK    1  A    between atoms: S_1  and  C_4
REMARK    2  A    between atoms: S_1  and  N_20
REMARK    3  A    between atoms: C_11  and  O_14
REMARK    4  A    between atoms: O_14  and  C_15
REMARK    5  A    between atoms: C_15  and  C_16
REMARK    6  A    between atoms: C_16  and  C_17
REMARK    7  A    between atoms: C_17  and  C_18
REMARK    8  A    between atoms: N_20  and  C_22
REMARK    9  A    between atoms: C_22  and  C_24
REMARK   10  A    between atoms: C_22  and  C_27
REMARK   11  A    between atoms: C_24  and  O_25
REMARK   12  A    between atoms: C_27  and  C_28
REMARK   13  A    between atoms: C_28  and  C_30
REMARK   14  A    between atoms: C_30  and  O_31
REMARK                            x       y       z     vdW  Elec       q    Type
REMARK                         _______ _______ _______ _____ _____    ______ ____
ROOT
ATOM      1  S   UNL     1      35.466 -18.341 -22.689  0.00  0.00    +0.061 S 
ATOM      2  O   UNL     1      36.875 -18.649 -22.843  0.00  0.00    -0.153 OA
ATOM      3  O   UNL     1      34.582 -18.374 -23.838  0.00  0.00    -0.153 OA
ENDROOT
BRANCH   1   4
ATOM      4  C   UNL     1      34.793 -19.450 -21.488  0.00  0.00    +0.122 C 
ATOM      5  C   UNL     1      35.124 -21.016 -19.656  0.00  0.00    +0.002 C 
ATOM      6  C   UNL     1      33.725 -21.211 -19.580  0.00  0.00    +0.003 C 
ATOM      7  C   UNL     1      35.643 -20.131 -20.616  0.00  0.00    +0.020 C 
ATOM      8  C   UNL     1      33.417 -19.642 -21.413  0.00  0.00    +0.020 C 
ATOM      9  C   UNL     1      32.885 -20.517 -20.465  0.00  0.00    +0.001 C 
ATOM     10  C   UNL     1      33.206 -22.096 -18.621  0.00  0.00    +0.037 C 
ATOM     11  C   UNL     1      34.055 -22.778 -17.749  0.00  0.00    +0.139 C 
ATOM     12  C   UNL     1      35.964 -21.711 -18.772  0.00  0.00    +0.003 C 
ATOM     13  C   UNL     1      35.432 -22.586 -17.824  0.00  0.00    +0.037 C 
BRANCH  11  14
ATOM     14  O   UNL     1      33.538 -23.631 -16.823  0.00  0.00    -0.475 OA
BRANCH  14  15
ATOM     15  C   UNL     1      33.641 -23.242 -15.454  0.00  0.00    +0.205 C 
BRANCH  15  16
ATOM     16  C   UNL     1      32.296 -23.464 -14.776  0.00  0.00    +0.047 C 
BRANCH  16  17
ATOM     17  C   UNL     1      31.135 -23.084 -15.692  0.00  0.00    +0.004 C 
BRANCH  17  18
ATOM     18  C   UNL     1      29.969 -24.061 -15.546  0.00  0.00    +0.000 C 
ATOM     19  C   UNL     1      30.317 -25.208 -14.610  0.00  0.00    +0.000 C 
ENDBRANCH  17  18
ENDBRANCH  16  17
ENDBRANCH  15  16
ENDBRANCH  14  15
ENDBRANCH  11  14
ENDBRANCH   1   4
BRANCH   1  20
ATOM     20  N   UNL     1      35.300 -16.839 -21.910  0.00  0.00    -0.170 NA
ATOM     21  H   UNL     1      36.138 -16.300 -22.127  0.00  0.00    +0.149 HD
BRANCH  20  22
ATOM     22  C   UNL     1      34.141 -15.973 -22.218  0.00  0.00    +0.174 C 
BRANCH  22  24
ATOM     23  O   UNL     1      32.639 -14.918 -20.623  0.00  0.00    -0.249 OA
ATOM     24  C   UNL     1      33.777 -15.215 -20.963  0.00  0.00    +0.330 C 
BRANCH  24  25
ATOM     25  O   UNL     1      34.869 -14.904 -20.217  0.00  0.00    -0.479 OA
ATOM     26  H   UNL     1      35.098 -15.433 -19.479  0.00  0.00    +0.295 HD
ENDBRANCH  24  25
ENDBRANCH  22  24
BRANCH  22  27
ATOM     27  C   UNL     1      34.441 -15.088 -23.433  0.00  0.00    +0.040 C 
BRANCH  27  28
ATOM     28  C   UNL     1      33.345 -14.999 -24.498  0.00  0.00    +0.111 C 
BRANCH  28  30
ATOM     29  O   UNL     1      33.473 -14.867 -26.906  0.00  0.00    -0.250 OA
ATOM     30  C   UNL     1      33.787 -15.441 -25.870  0.00  0.00    +0.314 C 
BRANCH  30  31
ATOM     31  O   UNL     1      34.558 -16.556 -25.841  0.00  0.00    -0.480 OA
ATOM     32  H   UNL     1      34.767 -16.958 -25.021  0.00  0.00    +0.295 HD
ENDBRANCH  30  31
ENDBRANCH  28  30
ENDBRANCH  27  28
ENDBRANCH  22  27
ENDBRANCH  20  22
ENDBRANCH   1  20
TORSDOF 14
ENDMDL
MODEL 6
REMARK VINA RESULT:      -9.3      2.881      4.746
REMARK  Name = 24755470
REMARK  14 active torsions:
REMARK  status: ('A' for Active; 'I' for Inactive)
REMARK    1  A    between atoms: S_1  and  C_4
REMARK    2  A    between atoms: S_1  and  N_20
REMARK    3  A    between atoms: C_11  and  O_14
REMARK    4  A    between atoms: O_14  and  C_15
REMARK    5  A    between atoms: C_15  and  C_16
REMARK    6  A    between atoms: C_16  and  C_17
REMARK    7  A    between atoms: C_17  and  C_18
REMARK    8  A    between atoms: N_20  and  C_22
REMARK    9  A    between atoms: C_22  and  C_24
REMARK   10  A    between atoms: C_22  and  C_27
REMARK   11  A    between atoms: C_24  and  O_25
REMARK   12  A    between atoms: C_27  and  C_28
REMARK   13  A    between atoms: C_28  and  C_30
REMARK   14  A    between atoms: C_30  and  O_31
REMARK                            x       y       z     vdW  Elec       q    Type
REMARK                         _______ _______ _______ _____ _____    ______ ____
ROOT
ATOM      1  S   UNL     1      34.984 -23.474 -15.704  0.00  0.00    +0.061 S 
ATOM      2  O   UNL     1      34.838 -24.866 -16.083  0.00  0.00    -0.153 OA
ATOM      3  O   UNL     1      36.036 -23.073 -14.789  0.00  0.00    -0.153 OA
ENDROOT
BRANCH   1   4
ATOM      4  C   UNL     1      35.198 -22.526 -17.181  0.00  0.00    +0.122 C 
ATOM      5  C   UNL     1      34.240 -21.422 -19.126  0.00  0.00    +0.002 C 
ATOM      6  C   UNL     1      35.536 -21.019 -19.526  0.00  0.00    +0.003 C 
ATOM      7  C   UNL     1      34.088 -22.175 -17.950  0.00  0.00    +0.020 C 
ATOM      8  C   UNL     1      36.472 -22.130 -17.575  0.00  0.00    +0.020 C 
ATOM      9  C   UNL     1      36.642 -21.381 -18.740  0.00  0.00    +0.001 C 
ATOM     10  C   UNL     1      35.689 -20.267 -20.702  0.00  0.00    +0.037 C 
ATOM     11  C   UNL     1      34.579 -19.916 -21.472  0.00  0.00    +0.139 C 
ATOM     12  C   UNL     1      33.135 -21.061 -19.913  0.00  0.00    +0.003 C 
ATOM     13  C   UNL     1      33.305 -20.313 -21.077  0.00  0.00    +0.037 C 
BRANCH  11  14
ATOM     14  O   UNL     1      34.743 -19.185 -22.608  0.00  0.00    -0.475 OA
BRANCH  14  15
ATOM     15  C   UNL     1      35.240 -17.855 -22.458  0.00  0.00    +0.205 C 
BRANCH  15  16
ATOM     16  C   UNL     1      34.179 -17.008 -21.770  0.00  0.00    +0.047 C 
BRANCH  16  17
ATOM     17  C   UNL     1      34.778 -16.145 -20.662  0.00  0.00    +0.004 C 
BRANCH  17  18
ATOM     18  C   UNL     1      34.330 -14.689 -20.787  0.00  0.00    +0.000 C 
ATOM     19  C   UNL     1      32.821 -14.557 -20.646  0.00  0.00    +0.000 C 
ENDBRANCH  17  18
ENDBRANCH  16  17
ENDBRANCH  15  16
ENDBRANCH  14  15
ENDBRANCH  11  14
ENDBRANCH   1   4
BRANCH   1  20
ATOM     20  N   UNL     1      33.498 -22.888 -15.124  0.00  0.00    -0.170 NA
ATOM     21  H   UNL     1      33.244 -22.094 -15.713  0.00  0.00    +0.149 HD
BRANCH  20  22
ATOM     22  C   UNL     1      32.320 -23.781 -15.078  0.00  0.00    +0.174 C 
BRANCH  22  24
ATOM     23  O   UNL     1      31.512 -25.064 -13.177  0.00  0.00    -0.249 OA
ATOM     24  C   UNL     1      31.973 -24.023 -13.628  0.00  0.00    +0.330 C 
BRANCH  24  25
ATOM     25  O   UNL     1      32.249 -22.946 -12.848  0.00  0.00    -0.479 OA
ATOM     26  H   UNL     1      32.890 -23.012 -12.169  0.00  0.00    +0.295 HD
ENDBRANCH  24  25
ENDBRANCH  22  24
BRANCH  22  27
ATOM     27  C   UNL     1      31.176 -23.203 -15.920  0.00  0.00    +0.040 C 
BRANCH  27  28
ATOM     28  C   UNL     1      29.865 -23.994 -15.921  0.00  0.00    +0.111 C 
BRANCH  28  30
ATOM     29  O   UNL     1      27.915 -24.051 -17.343  0.00  0.00    -0.250 OA
ATOM     30  C   UNL     1      28.790 -23.395 -16.793  0.00  0.00    +0.314 C 
BRANCH  30  31
ATOM     31  O   UNL     1      28.904 -22.050 -16.920  0.00  0.00    -0.480 OA
ATOM     32  H   UNL     1      29.750 -21.648 -16.897  0.00  0.00    +0.295 HD
ENDBRANCH  30  31
ENDBRANCH  28  30
ENDBRANCH  27  28
ENDBRANCH  22  27
ENDBRANCH  20  22
ENDBRANCH   1  20
TORSDOF 14
ENDMDL
MODEL 7
REMARK VINA RESULT:      -9.2      2.034      3.111
REMARK  Name = 24755470
REMARK  14 active torsions:
REMARK  status: ('A' for Active; 'I' for Inactive)
REMARK    1  A    between atoms: S_1  and  C_4
REMARK    2  A    between atoms: S_1  and  N_20
REMARK    3  A    between atoms: C_11  and  O_14
REMARK    4  A    between atoms: O_14  and  C_15
REMARK    5  A    between atoms: C_15  and  C_16
REMARK    6  A    between atoms: C_16  and  C_17
REMARK    7  A    between atoms: C_17  and  C_18
REMARK    8  A    between atoms: N_20  and  C_22
REMARK    9  A    between atoms: C_22  and  C_24
REMARK   10  A    between atoms: C_22  and  C_27
REMARK   11  A    between atoms: C_24  and  O_25
REMARK   12  A    between atoms: C_27  and  C_28
REMARK   13  A    between atoms: C_28  and  C_30
REMARK   14  A    between atoms: C_30  and  O_31
REMARK                            x       y       z     vdW  Elec       q    Type
REMARK                         _______ _______ _______ _____ _____    ______ ____
ROOT
ATOM      1  S   UNL     1      33.688 -23.165 -18.108  0.00  0.00    +0.061 S 
ATOM      2  O   UNL     1      32.407 -22.702 -17.608  0.00  0.00    -0.153 OA
ATOM      3  O   UNL     1      33.769 -24.388 -18.885  0.00  0.00    -0.153 OA
ENDROOT
BRANCH   1   4
ATOM      4  C   UNL     1      34.383 -21.878 -19.101  0.00  0.00    +0.122 C 
ATOM      5  C   UNL     1      34.081 -19.966 -20.576  0.00  0.00    +0.002 C 
ATOM      6  C   UNL     1      35.487 -19.832 -20.677  0.00  0.00    +0.003 C 
ATOM      7  C   UNL     1      33.545 -20.995 -19.783  0.00  0.00    +0.020 C 
ATOM      8  C   UNL     1      35.765 -21.745 -19.201  0.00  0.00    +0.020 C 
ATOM      9  C   UNL     1      36.315 -20.729 -19.983  0.00  0.00    +0.001 C 
ATOM     10  C   UNL     1      36.023 -18.804 -21.469  0.00  0.00    +0.037 C 
ATOM     11  C   UNL     1      35.186 -17.921 -22.152  0.00  0.00    +0.139 C 
ATOM     12  C   UNL     1      33.254 -19.070 -21.270  0.00  0.00    +0.003 C 
ATOM     13  C   UNL     1      33.803 -18.054 -22.052  0.00  0.00    +0.037 C 
BRANCH  11  14
ATOM     14  O   UNL     1      35.720 -16.929 -22.915  0.00  0.00    -0.475 OA
BRANCH  14  15
ATOM     15  C   UNL     1      34.814 -16.160 -23.706  0.00  0.00    +0.205 C 
BRANCH  15  16
ATOM     16  C   UNL     1      34.619 -14.801 -23.049  0.00  0.00    +0.047 C 
BRANCH  16  17
ATOM     17  C   UNL     1      33.147 -14.396 -23.020  0.00  0.00    +0.004 C 
BRANCH  17  18
ATOM     18  C   UNL     1      32.483 -14.807 -21.706  0.00  0.00    +0.000 C 
ATOM     19  C   UNL     1      33.463 -14.748 -20.545  0.00  0.00    +0.000 C 
ENDBRANCH  17  18
ENDBRANCH  16  17
ENDBRANCH  15  16
ENDBRANCH  14  15
ENDBRANCH  11  14
ENDBRANCH   1   4
BRANCH   1  20
ATOM     20  N   UNL     1      34.797 -23.254 -16.824  0.00  0.00    -0.170 NA
ATOM     21  H   UNL     1      34.825 -22.329 -16.394  0.00  0.00    +0.149 HD
BRANCH  20  22
ATOM     22  C   UNL     1      34.584 -24.228 -15.731  0.00  0.00    +0.174 C 
BRANCH  22  24
ATOM     23  O   UNL     1      35.850 -26.300 -15.595  0.00  0.00    -0.249 OA
ATOM     24  C   UNL     1      35.827 -25.076 -15.611  0.00  0.00    +0.330 C 
BRANCH  24  25
ATOM     25  O   UNL     1      36.956 -24.322 -15.538  0.00  0.00    -0.479 OA
ATOM     26  H   UNL     1      37.290 -24.060 -14.703  0.00  0.00    +0.295 HD
ENDBRANCH  24  25
ENDBRANCH  22  24
BRANCH  22  27
ATOM     27  C   UNL     1      34.176 -23.506 -14.442  0.00  0.00    +0.040 C 
BRANCH  27  28
ATOM     28  C   UNL     1      34.098 -24.365 -13.176  0.00  0.00    +0.111 C 
BRANCH  28  30
ATOM     29  O   UNL     1      36.258 -23.516 -12.507  0.00  0.00    -0.250 OA
ATOM     30  C   UNL     1      35.263 -24.177 -12.237  0.00  0.00    +0.314 C 
BRANCH  30  31
ATOM     31  O   UNL     1      35.104 -24.836 -11.063  0.00  0.00    -0.480 OA
ATOM     32  H   UNL     1      34.253 -24.908 -10.679  0.00  0.00    +0.295 HD
ENDBRANCH  30  31
ENDBRANCH  28  30
ENDBRANCH  27  28
ENDBRANCH  22  27
ENDBRANCH  20  22
ENDBRANCH   1  20
TORSDOF 14
ENDMDL
MODEL 8
REMARK VINA RESULT:      -9.2      4.696      8.568
REMARK  Name = 24755470
REMARK  14 active torsions:
REMARK  status: ('A' for Active; 'I' for Inactive)
REMARK    1  A    between atoms: S_1  and  C_4
REMARK    2  A    between atoms: S_1  and  N_20
REMARK    3  A    between atoms: C_11  and  O_14
REMARK    4  A    between atoms: O_14  and  C_15
REMARK    5  A    between atoms: C_15  and  C_16
REMARK    6  A    between atoms: C_16  and  C_17
REMARK    7  A    between atoms: C_17  and  C_18
REMARK    8  A    between atoms: N_20  and  C_22
REMARK    9  A    between atoms: C_22  and  C_24
REMARK   10  A    between atoms: C_22  and  C_27
REMARK   11  A    between atoms: C_24  and  O_25
REMARK   12  A    between atoms: C_27  and  C_28
REMARK   13  A    between atoms: C_28  and  C_30
REMARK   14  A    between atoms: C_30  and  O_31
REMARK                            x       y       z     vdW  Elec       q    Type
REMARK                         _______ _______ _______ _____ _____    ______ ____
ROOT
ATOM      1  S   UNL     1      35.474 -18.533 -22.407  0.00  0.00    +0.061 S 
ATOM      2  O   UNL     1      35.869 -19.044 -23.706  0.00  0.00    -0.153 OA
ATOM      3  O   UNL     1      36.473 -18.291 -21.383  0.00  0.00    -0.153 OA
ENDROOT
BRANCH   1   4
ATOM      4  C   UNL     1      34.616 -17.008 -22.660  0.00  0.00    +0.122 C 
ATOM      5  C   UNL     1      33.427 -15.090 -21.750  0.00  0.00    +0.002 C 
ATOM      6  C   UNL     1      33.255 -14.584 -23.060  0.00  0.00    +0.003 C 
ATOM      7  C   UNL     1      34.111 -16.304 -21.567  0.00  0.00    +0.020 C 
ATOM      8  C   UNL     1      34.446 -16.510 -23.949  0.00  0.00    +0.020 C 
ATOM      9  C   UNL     1      33.771 -15.306 -24.149  0.00  0.00    +0.001 C 
ATOM     10  C   UNL     1      32.572 -13.372 -23.244  0.00  0.00    +0.037 C 
ATOM     11  C   UNL     1      32.065 -12.668 -22.151  0.00  0.00    +0.139 C 
ATOM     12  C   UNL     1      32.911 -14.369 -20.662  0.00  0.00    +0.003 C 
ATOM     13  C   UNL     1      32.235 -13.166 -20.862  0.00  0.00    +0.037 C 
BRANCH  11  14
ATOM     14  O   UNL     1      31.406 -11.492 -22.344  0.00  0.00    -0.475 OA
BRANCH  14  15
ATOM     15  C   UNL     1      32.177 -10.294 -22.254  0.00  0.00    +0.205 C 
BRANCH  15  16
ATOM     16  C   UNL     1      32.610  -9.882 -23.654  0.00  0.00    +0.047 C 
BRANCH  16  17
ATOM     17  C   UNL     1      34.116 -10.041 -23.848  0.00  0.00    +0.004 C 
BRANCH  17  18
ATOM     18  C   UNL     1      34.431 -10.916 -25.061  0.00  0.00    +0.000 C 
ATOM     19  C   UNL     1      35.523 -10.301 -25.923  0.00  0.00    +0.000 C 
ENDBRANCH  17  18
ENDBRANCH  16  17
ENDBRANCH  15  16
ENDBRANCH  14  15
ENDBRANCH  11  14
ENDBRANCH   1   4
BRANCH   1  20
ATOM     20  N   UNL     1      34.251 -19.520 -21.761  0.00  0.00    -0.170 NA
ATOM     21  H   UNL     1      34.106 -20.282 -22.423  0.00  0.00    +0.149 HD
BRANCH  20  22
ATOM     22  C   UNL     1      34.428 -20.138 -20.428  0.00  0.00    +0.174 C 
BRANCH  22  24
ATOM     23  O   UNL     1      32.040 -19.880 -20.053  0.00  0.00    -0.249 OA
ATOM     24  C   UNL     1      33.066 -20.532 -19.910  0.00  0.00    +0.330 C 
BRANCH  24  25
ATOM     25  O   UNL     1      33.089 -21.729 -19.267  0.00  0.00    -0.479 OA
ATOM     26  H   UNL     1      33.364 -22.499 -19.722  0.00  0.00    +0.295 HD
ENDBRANCH  24  25
ENDBRANCH  22  24
BRANCH  22  27
ATOM     27  C   UNL     1      35.441 -21.287 -20.501  0.00  0.00    +0.040 C 
BRANCH  27  28
ATOM     28  C   UNL     1      36.659 -21.180 -19.580  0.00  0.00    +0.111 C 
BRANCH  28  30
ATOM     29  O   UNL     1      35.601 -22.478 -17.840  0.00  0.00    -0.250 OA
ATOM     30  C   UNL     1      36.387 -21.594 -18.156  0.00  0.00    +0.314 C 
BRANCH  30  31
ATOM     31  O   UNL     1      37.093 -20.869 -17.254  0.00  0.00    -0.480 OA
ATOM     32  H   UNL     1      37.793 -20.317 -17.541  0.00  0.00    +0.295 HD
ENDBRANCH  30  31
ENDBRANCH  28  30
ENDBRANCH  27  28
ENDBRANCH  22  27
ENDBRANCH  20  22
ENDBRANCH   1  20
TORSDOF 14
ENDMDL
MODEL 9
REMARK VINA RESULT:      -9.1      1.940      3.449
REMARK  Name = 24755470
REMARK  14 active torsions:
REMARK  status: ('A' for Active; 'I' for Inactive)
REMARK    1  A    between atoms: S_1  and  C_4
REMARK    2  A    between atoms: S_1  and  N_20
REMARK    3  A    between atoms: C_11  and  O_14
REMARK    4  A    between atoms: O_14  and  C_15
REMARK    5  A    between atoms: C_15  and  C_16
REMARK    6  A    between atoms: C_16  and  C_17
REMARK    7  A    between atoms: C_17  and  C_18
REMARK    8  A    between atoms: N_20  and  C_22
REMARK    9  A    between atoms: C_22  and  C_24
REMARK   10  A    between atoms: C_22  and  C_27
REMARK   11  A    between atoms: C_24  and  O_25
REMARK   12  A    between atoms: C_27  and  C_28
REMARK   13  A    between atoms: C_28  and  C_30
REMARK   14  A    between atoms: C_30  and  O_31
REMARK                            x       y       z     vdW  Elec       q    Type
REMARK                         _______ _______ _______ _____ _____    ______ ____
ROOT
ATOM      1  S   UNL     1      33.640 -23.506 -17.763  0.00  0.00    +0.061 S 
ATOM      2  O   UNL     1      32.461 -22.989 -17.095  0.00  0.00    -0.153 OA
ATOM      3  O   UNL     1      33.540 -24.674 -18.619  0.00  0.00    -0.153 OA
ENDROOT
BRANCH   1   4
ATOM      4  C   UNL     1      34.326 -22.206 -18.744  0.00  0.00    +0.122 C 
ATOM      5  C   UNL     1      34.016 -20.355 -20.293  0.00  0.00    +0.002 C 
ATOM      6  C   UNL     1      35.414 -20.137 -20.301  0.00  0.00    +0.003 C 
ATOM      7  C   UNL     1      33.487 -21.394 -19.508  0.00  0.00    +0.020 C 
ATOM      8  C   UNL     1      35.701 -21.991 -18.752  0.00  0.00    +0.020 C 
ATOM      9  C   UNL     1      36.243 -20.964 -19.525  0.00  0.00    +0.001 C 
ATOM     10  C   UNL     1      35.943 -19.100 -21.085  0.00  0.00    +0.037 C 
ATOM     11  C   UNL     1      35.105 -18.288 -21.851  0.00  0.00    +0.139 C 
ATOM     12  C   UNL     1      33.187 -19.530 -21.070  0.00  0.00    +0.003 C 
ATOM     13  C   UNL     1      33.729 -18.503 -21.843  0.00  0.00    +0.037 C 
BRANCH  11  14
ATOM     14  O   UNL     1      35.631 -17.285 -22.605  0.00  0.00    -0.475 OA
BRANCH  14  15
ATOM     15  C   UNL     1      35.044 -17.060 -23.886  0.00  0.00    +0.205 C 
BRANCH  15  16
ATOM     16  C   UNL     1      34.497 -15.640 -23.934  0.00  0.00    +0.047 C 
BRANCH  16  17
ATOM     17  C   UNL     1      34.513 -14.983 -22.556  0.00  0.00    +0.004 C 
BRANCH  17  18
ATOM     18  C   UNL     1      33.097 -14.811 -22.007  0.00  0.00    +0.000 C 
ATOM     19  C   UNL     1      33.045 -15.075 -20.510  0.00  0.00    +0.000 C 
ENDBRANCH  17  18
ENDBRANCH  16  17
ENDBRANCH  15  16
ENDBRANCH  14  15
ENDBRANCH  11  14
ENDBRANCH   1   4
BRANCH   1  20
ATOM     20  N   UNL     1      34.869 -23.767 -16.619  0.00  0.00    -0.170 NA
ATOM     21  H   UNL     1      35.740 -23.449 -17.044  0.00  0.00    +0.149 HD
BRANCH  20  22
ATOM     22  C   UNL     1      34.785 -23.129 -15.287  0.00  0.00    +0.174 C 
BRANCH  22  24
ATOM     23  O   UNL     1      33.727 -23.935 -13.252  0.00  0.00    -0.249 OA
ATOM     24  C   UNL     1      34.319 -24.169 -14.297  0.00  0.00    +0.330 C 
BRANCH  24  25
ATOM     25  O   UNL     1      34.614 -25.432 -14.704  0.00  0.00    -0.479 OA
ATOM     26  H   UNL     1      35.473 -25.634 -15.016  0.00  0.00    +0.295 HD
ENDBRANCH  24  25
ENDBRANCH  22  24
BRANCH  22  27
ATOM     27  C   UNL     1      36.117 -22.459 -14.929  0.00  0.00    +0.040 C 
BRANCH  27  28
ATOM     28  C   UNL     1      37.107 -23.301 -14.121  0.00  0.00    +0.111 C 
BRANCH  28  30
ATOM     29  O   UNL     1      37.680 -25.491 -14.963  0.00  0.00    -0.250 OA
ATOM     30  C   UNL     1      37.893 -24.285 -14.951  0.00  0.00    +0.314 C 
BRANCH  30  31
ATOM     31  O   UNL     1      38.878 -23.696 -15.672  0.00  0.00    -0.480 OA
ATOM     32  H   UNL     1      39.347 -24.189 -16.315  0.00  0.00    +0.295 HD
ENDBRANCH  30  31
ENDBRANCH  28  30
ENDBRANCH  27  28
ENDBRANCH  22  27
ENDBRANCH  20  22
ENDBRANCH   1  20
TORSDOF 14
ENDMDL
