MODEL 1
REMARK VINA RESULT:     -10.1      0.000      0.000
REMARK  Name = 9925908
REMARK  4 active torsions:
REMARK  status: ('A' for Active; 'I' for Inactive)
REMARK    1  A    between atoms: C_3  and  C_13
REMARK    2  A    between atoms: C_6  and  C_24
REMARK    3  A    between atoms: N_12  and  C_19
REMARK    4  A    between atoms: C_19  and  C_20
REMARK                            x       y       z     vdW  Elec       q    Type
REMARK                         _______ _______ _______ _____ _____    ______ ____
ROOT
ATOM      1  N   UNL     1      34.197 -22.835 -17.330  0.00  0.00    -0.318 N 
ATOM      2  N   UNL     1      32.092 -22.477 -17.949  0.00  0.00    -0.318 N 
ATOM      3  C   UNL     1      33.352 -22.328 -18.272  0.00  0.00    +0.143 C 
ATOM      4  C   UNL     1      33.426 -23.352 -16.320  0.00  0.00    +0.059 C 
ATOM      5  C   UNL     1      32.116 -23.116 -16.730  0.00  0.00    +0.063 C 
ATOM      6  C   UNL     1      31.056 -23.530 -15.907  0.00  0.00    +0.067 C 
ATOM      7  C   UNL     1      33.751 -23.985 -15.121  0.00  0.00    +0.016 C 
ATOM      8  C   UNL     1      31.360 -24.169 -14.697  0.00  0.00    +0.006 C 
ATOM      9  C   UNL     1      32.683 -24.392 -14.313  0.00  0.00    +0.001 C 
ATOM     10  H   UNL     1      35.181 -22.831 -17.368  0.00  0.00    +0.148 HD
ATOM     11  H   UNL     1      31.302 -22.194 -18.464  0.00  0.00    +0.148 HD
ENDROOT
BRANCH   3  13
ATOM     12  N   UNL     1      35.012 -19.409 -21.012  0.00  0.00    +0.387 N 
ATOM     13  C   UNL     1      33.889 -21.676 -19.535  0.00  0.00    +0.033 C 
ATOM     14  C   UNL     1      35.356 -21.249 -19.392  0.00  0.00    -0.020 C 
ATOM     15  C   UNL     1      33.033 -20.480 -19.980  0.00  0.00    -0.020 C 
ATOM     16  C   UNL     1      35.857 -20.560 -20.664  0.00  0.00    -0.077 C 
ATOM     17  C   UNL     1      33.618 -19.819 -21.231  0.00  0.00    -0.077 C 
ATOM     18  H   UNL     1      35.029 -18.759 -20.226  0.00  0.00    -0.080 HD
BRANCH  12  19
ATOM     19  C   UNL     1      35.537 -18.729 -22.196  0.00  0.00    -0.077 C 
BRANCH  19  20
ATOM     20  C   UNL     1      34.894 -19.280 -23.464  0.00  0.00    -0.023 C 
ATOM     21  C   UNL     1      34.648 -18.207 -24.516  0.00  0.00    -0.002 C 
ENDBRANCH  19  20
ENDBRANCH  12  19
ENDBRANCH   3  13
BRANCH   6  24
ATOM     22  O   UNL     1      29.353 -22.355 -17.033  0.00  0.00    -0.270 OA
ATOM     23  N   UNL     1      28.716 -24.203 -15.832  0.00  0.00    -0.325 N 
ATOM     24  C   UNL     1      29.676 -23.306 -16.297  0.00  0.00    +0.244 C 
ATOM     25  H   UNL     1      27.770 -24.081 -16.078  0.00  0.00    +0.145 HD
ATOM     26  H   UNL     1      28.983 -24.958 -15.261  0.00  0.00    +0.145 HD
ENDBRANCH   6  24
TORSDOF 4
ENDMDL
MODEL 2
REMARK VINA RESULT:      -9.7      1.836      2.780
REMARK  Name = 9925908
REMARK  4 active torsions:
REMARK  status: ('A' for Active; 'I' for Inactive)
REMARK    1  A    between atoms: C_3  and  C_13
REMARK    2  A    between atoms: C_6  and  C_24
REMARK    3  A    between atoms: N_12  and  C_19
REMARK    4  A    between atoms: C_19  and  C_20
REMARK                            x       y       z     vdW  Elec       q    Type
REMARK                         _______ _______ _______ _____ _____    ______ ____
ROOT
ATOM      1  N   UNL     1      32.139 -22.437 -17.939  0.00  0.00    -0.318 N 
ATOM      2  N   UNL     1      34.226 -22.941 -17.362  0.00  0.00    -0.318 N 
ATOM      3  C   UNL     1      33.462 -22.369 -18.259  0.00  0.00    +0.143 C 
ATOM      4  C   UNL     1      32.038 -23.105 -16.745  0.00  0.00    +0.059 C 
ATOM      5  C   UNL     1      33.354 -23.408 -16.406  0.00  0.00    +0.063 C 
ATOM      6  C   UNL     1      33.611 -24.104 -15.213  0.00  0.00    +0.067 C 
ATOM      7  C   UNL     1      30.943 -23.458 -15.956  0.00  0.00    +0.016 C 
ATOM      8  C   UNL     1      32.526 -24.469 -14.405  0.00  0.00    +0.006 C 
ATOM      9  C   UNL     1      31.217 -24.150 -14.772  0.00  0.00    +0.001 C 
ATOM     10  H   UNL     1      31.392 -22.075 -18.468  0.00  0.00    +0.148 HD
ATOM     11  H   UNL     1      35.208 -23.019 -17.371  0.00  0.00    +0.148 HD
ENDROOT
BRANCH   3  13
ATOM     12  N   UNL     1      34.922 -19.370 -21.027  0.00  0.00    +0.387 N 
ATOM     13  C   UNL     1      33.925 -21.685 -19.535  0.00  0.00    +0.033 C 
ATOM     14  C   UNL     1      35.386 -21.222 -19.450  0.00  0.00    -0.020 C 
ATOM     15  C   UNL     1      33.019 -20.507 -19.925  0.00  0.00    -0.020 C 
ATOM     16  C   UNL     1      35.811 -20.502 -20.732  0.00  0.00    -0.077 C 
ATOM     17  C   UNL     1      33.531 -19.814 -21.191  0.00  0.00    -0.077 C 
ATOM     18  H   UNL     1      34.956 -18.730 -20.233  0.00  0.00    -0.080 HD
BRANCH  12  19
ATOM     19  C   UNL     1      35.376 -18.661 -22.223  0.00  0.00    -0.077 C 
BRANCH  19  20
ATOM     20  C   UNL     1      34.879 -19.357 -23.485  0.00  0.00    -0.023 C 
ATOM     21  C   UNL     1      34.585 -18.386 -24.619  0.00  0.00    -0.002 C 
ENDBRANCH  19  20
ENDBRANCH  12  19
ENDBRANCH   3  13
BRANCH   6  24
ATOM     22  O   UNL     1      35.913 -24.378 -15.629  0.00  0.00    -0.270 OA
ATOM     23  N   UNL     1      35.187 -24.818 -13.498  0.00  0.00    -0.325 N 
ATOM     24  C   UNL     1      34.968 -24.439 -14.821  0.00  0.00    +0.244 C 
ATOM     25  H   UNL     1      36.095 -25.051 -13.198  0.00  0.00    +0.145 HD
ATOM     26  H   UNL     1      34.435 -24.851 -12.864  0.00  0.00    +0.145 HD
ENDBRANCH   6  24
TORSDOF 4
ENDMDL
MODEL 3
REMARK VINA RESULT:      -9.5      3.492      5.958
REMARK  Name = 9925908
REMARK  4 active torsions:
REMARK  status: ('A' for Active; 'I' for Inactive)
REMARK    1  A    between atoms: C_3  and  C_13
REMARK    2  A    between atoms: C_6  and  C_24
REMARK    3  A    between atoms: N_12  and  C_19
REMARK    4  A    between atoms: C_19  and  C_20
REMARK                            x       y       z     vdW  Elec       q    Type
REMARK                         _______ _______ _______ _____ _____    ______ ____
ROOT
ATOM      1  N   UNL     1      36.565 -18.555 -21.420  0.00  0.00    -0.318 N 
ATOM      2  N   UNL     1      34.378 -18.943 -21.350  0.00  0.00    -0.318 N 
ATOM      3  C   UNL     1      35.323 -18.170 -21.824  0.00  0.00    +0.143 C 
ATOM      4  C   UNL     1      36.415 -19.662 -20.623  0.00  0.00    +0.059 C 
ATOM      5  C   UNL     1      35.041 -19.884 -20.595  0.00  0.00    +0.063 C 
ATOM      6  C   UNL     1      34.537 -20.964 -19.852  0.00  0.00    +0.067 C 
ATOM      7  C   UNL     1      37.335 -20.462 -19.946  0.00  0.00    +0.016 C 
ATOM      8  C   UNL     1      35.443 -21.782 -19.164  0.00  0.00    +0.006 C 
ATOM      9  C   UNL     1      36.816 -21.534 -19.212  0.00  0.00    +0.001 C 
ATOM     10  H   UNL     1      37.416 -18.119 -21.657  0.00  0.00    +0.148 HD
ATOM     11  H   UNL     1      33.408 -18.868 -21.500  0.00  0.00    +0.148 HD
ENDROOT
BRANCH   3  13
ATOM     12  N   UNL     1      33.463 -14.995 -24.116  0.00  0.00    +0.387 N 
ATOM     13  C   UNL     1      35.132 -16.964 -22.729  0.00  0.00    +0.033 C 
ATOM     14  C   UNL     1      34.471 -15.787 -21.997  0.00  0.00    -0.020 C 
ATOM     15  C   UNL     1      34.338 -17.308 -23.998  0.00  0.00    -0.020 C 
ATOM     16  C   UNL     1      34.255 -14.602 -22.942  0.00  0.00    -0.077 C 
ATOM     17  C   UNL     1      34.128 -16.068 -24.870  0.00  0.00    -0.077 C 
ATOM     18  H   UNL     1      32.567 -15.353 -23.784  0.00  0.00    -0.080 HD
BRANCH  12  19
ATOM     19  C   UNL     1      33.219 -13.840 -24.978  0.00  0.00    -0.077 C 
BRANCH  19  20
ATOM     20  C   UNL     1      33.013 -14.279 -26.424  0.00  0.00    -0.023 C 
ATOM     21  C   UNL     1      33.429 -13.214 -27.430  0.00  0.00    -0.002 C 
ENDBRANCH  19  20
ENDBRANCH  12  19
ENDBRANCH   3  13
BRANCH   6  24
ATOM     22  O   UNL     1      32.326 -20.755 -20.638  0.00  0.00    -0.270 OA
ATOM     23  N   UNL     1      32.645 -22.061 -18.779  0.00  0.00    -0.325 N 
ATOM     24  C   UNL     1      33.111 -21.233 -19.798  0.00  0.00    +0.244 C 
ATOM     25  H   UNL     1      31.684 -22.264 -18.712  0.00  0.00    +0.145 HD
ATOM     26  H   UNL     1      33.276 -22.443 -18.128  0.00  0.00    +0.145 HD
ENDBRANCH   6  24
TORSDOF 4
ENDMDL
MODEL 4
REMARK VINA RESULT:      -9.4      5.463      7.571
REMARK  Name = 9925908
REMARK  4 active torsions:
REMARK  status: ('A' for Active; 'I' for Inactive)
REMARK    1  A    between atoms: C_3  and  C_13
REMARK    2  A    between atoms: C_6  and  C_24
REMARK    3  A    between atoms: N_12  and  C_19
REMARK    4  A    between atoms: C_19  and  C_20
REMARK                            x       y       z     vdW  Elec       q    Type
REMARK                         _______ _______ _______ _____ _____    ______ ____
ROOT
ATOM      1  N   UNL     1      34.338 -23.442 -12.740  0.00  0.00    -0.318 N 
ATOM      2  N   UNL     1      34.632 -24.976 -14.321  0.00  0.00    -0.318 N 
ATOM      3  C   UNL     1      33.794 -24.125 -13.786  0.00  0.00    +0.143 C 
ATOM      4  C   UNL     1      35.626 -23.885 -12.584  0.00  0.00    +0.059 C 
ATOM      5  C   UNL     1      35.786 -24.842 -13.583  0.00  0.00    +0.063 C 
ATOM      6  C   UNL     1      37.019 -25.505 -13.706  0.00  0.00    +0.067 C 
ATOM      7  C   UNL     1      36.635 -23.541 -11.684  0.00  0.00    +0.016 C 
ATOM      8  C   UNL     1      38.046 -25.175 -12.812  0.00  0.00    +0.006 C 
ATOM      9  C   UNL     1      37.856 -24.211 -11.821  0.00  0.00    +0.001 C 
ATOM     10  H   UNL     1      33.888 -22.757 -12.194  0.00  0.00    +0.148 HD
ATOM     11  H   UNL     1      34.472 -25.579 -15.083  0.00  0.00    +0.148 HD
ENDROOT
BRANCH   3  13
ATOM     12  N   UNL     1      30.027 -24.416 -15.910  0.00  0.00    +0.387 N 
ATOM     13  C   UNL     1      32.362 -23.871 -14.227  0.00  0.00    +0.033 C 
ATOM     14  C   UNL     1      31.459 -25.093 -14.008  0.00  0.00    -0.020 C 
ATOM     15  C   UNL     1      32.277 -23.408 -15.689  0.00  0.00    -0.020 C 
ATOM     16  C   UNL     1      30.035 -24.822 -14.498  0.00  0.00    -0.077 C 
ATOM     17  C   UNL     1      30.823 -23.198 -16.118  0.00  0.00    -0.077 C 
ATOM     18  H   UNL     1      30.453 -25.166 -16.455  0.00  0.00    -0.080 HD
BRANCH  12  19
ATOM     19  C   UNL     1      28.655 -24.216 -16.377  0.00  0.00    -0.077 C 
BRANCH  19  20
ATOM     20  C   UNL     1      28.359 -22.732 -16.564  0.00  0.00    -0.023 C 
ATOM     21  C   UNL     1      27.118 -22.277 -15.809  0.00  0.00    -0.002 C 
ENDBRANCH  19  20
ENDBRANCH  12  19
ENDBRANCH   3  13
BRANCH   6  24
ATOM     22  O   UNL     1      36.390 -26.703 -15.633  0.00  0.00    -0.270 OA
ATOM     23  N   UNL     1      38.413 -27.239 -14.696  0.00  0.00    -0.325 N 
ATOM     24  C   UNL     1      37.228 -26.507 -14.734  0.00  0.00    +0.244 C 
ATOM     25  H   UNL     1      38.589 -27.927 -15.378  0.00  0.00    +0.145 HD
ATOM     26  H   UNL     1      39.075 -27.067 -13.988  0.00  0.00    +0.145 HD
ENDBRANCH   6  24
TORSDOF 4
ENDMDL
MODEL 5
REMARK VINA RESULT:      -9.3      6.888     10.480
REMARK  Name = 9925908
REMARK  4 active torsions:
REMARK  status: ('A' for Active; 'I' for Inactive)
REMARK    1  A    between atoms: C_3  and  C_13
REMARK    2  A    between atoms: C_6  and  C_24
REMARK    3  A    between atoms: N_12  and  C_19
REMARK    4  A    between atoms: C_19  and  C_20
REMARK                            x       y       z     vdW  Elec       q    Type
REMARK                         _______ _______ _______ _____ _____    ______ ____
ROOT
ATOM      1  N   UNL     1      33.403 -14.832 -24.806  0.00  0.00    -0.318 N 
ATOM      2  N   UNL     1      33.863 -14.788 -22.631  0.00  0.00    -0.318 N 
ATOM      3  C   UNL     1      33.357 -14.126 -23.642  0.00  0.00    +0.143 C 
ATOM      4  C   UNL     1      33.985 -16.044 -24.529  0.00  0.00    +0.059 C 
ATOM      5  C   UNL     1      34.262 -15.991 -23.166  0.00  0.00    +0.063 C 
ATOM      6  C   UNL     1      34.872 -17.096 -22.549  0.00  0.00    +0.067 C 
ATOM      7  C   UNL     1      34.282 -17.147 -25.330  0.00  0.00    +0.016 C 
ATOM      8  C   UNL     1      35.180 -18.215 -23.334  0.00  0.00    +0.006 C 
ATOM      9  C   UNL     1      34.889 -18.238 -24.699  0.00  0.00    +0.001 C 
ATOM     10  H   UNL     1      33.080 -14.529 -25.685  0.00  0.00    +0.148 HD
ATOM     11  H   UNL     1      33.941 -14.490 -21.696  0.00  0.00    +0.148 HD
ENDROOT
BRANCH   3  13
ATOM     12  N   UNL     1      32.617 -10.002 -22.533  0.00  0.00    +0.387 N 
ATOM     13  C   UNL     1      32.765 -12.727 -23.598  0.00  0.00    +0.033 C 
ATOM     14  C   UNL     1      33.795 -11.647 -23.958  0.00  0.00    -0.020 C 
ATOM     15  C   UNL     1      32.123 -12.409 -22.239  0.00  0.00    -0.020 C 
ATOM     16  C   UNL     1      33.183 -10.248 -23.867  0.00  0.00    -0.077 C 
ATOM     17  C   UNL     1      31.571 -10.982 -22.210  0.00  0.00    -0.077 C 
ATOM     18  H   UNL     1      33.367 -10.106 -21.850  0.00  0.00    -0.080 HD
BRANCH  12  19
ATOM     19  C   UNL     1      32.087  -8.641 -22.446  0.00  0.00    -0.077 C 
BRANCH  19  20
ATOM     20  C   UNL     1      33.040  -7.739 -21.669  0.00  0.00    -0.023 C 
ATOM     21  C   UNL     1      32.558  -7.448 -20.255  0.00  0.00    -0.002 C 
ENDBRANCH  19  20
ENDBRANCH  12  19
ENDBRANCH   3  13
BRANCH   6  24
ATOM     22  O   UNL     1      34.988 -16.070 -20.431  0.00  0.00    -0.270 OA
ATOM     23  N   UNL     1      35.677 -18.254 -20.563  0.00  0.00    -0.325 N 
ATOM     24  C   UNL     1      35.178 -17.083 -21.129  0.00  0.00    +0.244 C 
ATOM     25  H   UNL     1      35.894 -18.282 -19.603  0.00  0.00    +0.145 HD
ATOM     26  H   UNL     1      35.811 -19.053 -21.121  0.00  0.00    +0.145 HD
ENDBRANCH   6  24
TORSDOF 4
ENDMDL
MODEL 6
REMARK VINA RESULT:      -9.3      5.526      7.699
REMARK  Name = 9925908
REMARK  4 active torsions:
REMARK  status: ('A' for Active; 'I' for Inactive)
REMARK    1  A    between atoms: C_3  and  C_13
REMARK    2  A    between atoms: C_6  and  C_24
REMARK    3  A    between atoms: N_12  and  C_19
REMARK    4  A    between atoms: C_19  and  C_20
REMARK                            x       y       z     vdW  Elec       q    Type
REMARK                         _______ _______ _______ _____ _____    ______ ____
ROOT
ATOM      1  N   UNL     1      34.788 -25.200 -14.942  0.00  0.00    -0.318 N 
ATOM      2  N   UNL     1      34.989 -23.720 -13.296  0.00  0.00    -0.318 N 
ATOM      3  C   UNL     1      34.180 -24.250 -14.178  0.00  0.00    +0.143 C 
ATOM      4  C   UNL     1      36.091 -25.292 -14.524  0.00  0.00    +0.059 C 
ATOM      5  C   UNL     1      36.191 -24.359 -13.496  0.00  0.00    +0.063 C 
ATOM      6  C   UNL     1      37.421 -24.197 -12.836  0.00  0.00    +0.067 C 
ATOM      7  C   UNL     1      37.157 -26.088 -14.944  0.00  0.00    +0.016 C 
ATOM      8  C   UNL     1      38.506 -24.986 -13.241  0.00  0.00    +0.006 C 
ATOM      9  C   UNL     1      38.374 -25.914 -14.276  0.00  0.00    +0.001 C 
ATOM     10  H   UNL     1      34.369 -25.723 -15.664  0.00  0.00    +0.148 HD
ATOM     11  H   UNL     1      34.783 -23.019 -12.635  0.00  0.00    +0.148 HD
ENDROOT
BRANCH   3  13
ATOM     12  N   UNL     1      30.093 -24.315 -15.622  0.00  0.00    +0.387 N 
ATOM     13  C   UNL     1      32.716 -23.898 -14.385  0.00  0.00    +0.033 C 
ATOM     14  C   UNL     1      31.777 -25.034 -13.956  0.00  0.00    -0.020 C 
ATOM     15  C   UNL     1      32.416 -23.485 -15.834  0.00  0.00    -0.020 C 
ATOM     16  C   UNL     1      30.314 -24.667 -14.212  0.00  0.00    -0.077 C 
ATOM     17  C   UNL     1      30.929 -23.174 -16.022  0.00  0.00    -0.077 C 
ATOM     18  H   UNL     1      30.363 -25.117 -16.191  0.00  0.00    -0.080 HD
BRANCH  12  19
ATOM     19  C   UNL     1      28.680 -24.022 -15.861  0.00  0.00    -0.077 C 
BRANCH  19  20
ATOM     20  C   UNL     1      28.398 -22.536 -15.674  0.00  0.00    -0.023 C 
ATOM     21  C   UNL     1      27.043 -22.117 -16.230  0.00  0.00    -0.002 C 
ENDBRANCH  19  20
ENDBRANCH  12  19
ENDBRANCH   3  13
BRANCH   6  24
ATOM     22  O   UNL     1      38.287 -22.227 -11.879  0.00  0.00    -0.270 OA
ATOM     23  N   UNL     1      36.864 -23.471 -10.579  0.00  0.00    -0.325 N 
ATOM     24  C   UNL     1      37.569 -23.237 -11.758  0.00  0.00    +0.244 C 
ATOM     25  H   UNL     1      36.941 -22.840  -9.827  0.00  0.00    +0.145 HD
ATOM     26  H   UNL     1      36.290 -24.266 -10.498  0.00  0.00    +0.145 HD
ENDBRANCH   6  24
TORSDOF 4
ENDMDL
MODEL 7
REMARK VINA RESULT:      -9.3      3.915      6.725
REMARK  Name = 9925908
REMARK  4 active torsions:
REMARK  status: ('A' for Active; 'I' for Inactive)
REMARK    1  A    between atoms: C_3  and  C_13
REMARK    2  A    between atoms: C_6  and  C_24
REMARK    3  A    between atoms: N_12  and  C_19
REMARK    4  A    between atoms: C_19  and  C_20
REMARK                            x       y       z     vdW  Elec       q    Type
REMARK                         _______ _______ _______ _____ _____    ______ ____
ROOT
ATOM      1  N   UNL     1      35.676 -17.537 -21.698  0.00  0.00    -0.318 N 
ATOM      2  N   UNL     1      33.674 -18.359 -21.194  0.00  0.00    -0.318 N 
ATOM      3  C   UNL     1      34.326 -17.360 -21.733  0.00  0.00    +0.143 C 
ATOM      4  C   UNL     1      35.918 -18.742 -21.089  0.00  0.00    +0.059 C 
ATOM      5  C   UNL     1      34.652 -19.235 -20.784  0.00  0.00    +0.063 C 
ATOM      6  C   UNL     1      34.538 -20.479 -20.141  0.00  0.00    +0.067 C 
ATOM      7  C   UNL     1      37.098 -19.422 -20.788  0.00  0.00    +0.016 C 
ATOM      8  C   UNL     1      35.711 -21.180 -19.829  0.00  0.00    +0.006 C 
ATOM      9  C   UNL     1      36.966 -20.660 -20.149  0.00  0.00    +0.001 C 
ATOM     10  H   UNL     1      36.355 -16.914 -22.046  0.00  0.00    +0.148 HD
ATOM     11  H   UNL     1      32.699 -18.460 -21.102  0.00  0.00    +0.148 HD
ENDROOT
BRANCH   3  13
ATOM     12  N   UNL     1      33.693 -13.236 -22.908  0.00  0.00    +0.387 N 
ATOM     13  C   UNL     1      33.716 -16.112 -22.350  0.00  0.00    +0.033 C 
ATOM     14  C   UNL     1      34.635 -15.472 -23.400  0.00  0.00    -0.020 C 
ATOM     15  C   UNL     1      33.323 -15.072 -21.290  0.00  0.00    -0.020 C 
ATOM     16  C   UNL     1      34.013 -14.197 -23.973  0.00  0.00    -0.077 C 
ATOM     17  C   UNL     1      32.749 -13.811 -21.940  0.00  0.00    -0.077 C 
ATOM     18  H   UNL     1      34.557 -13.017 -22.413  0.00  0.00    -0.080 HD
BRANCH  12  19
ATOM     19  C   UNL     1      33.152 -12.002 -23.478  0.00  0.00    -0.077 C 
BRANCH  19  20
ATOM     20  C   UNL     1      33.957 -11.573 -24.700  0.00  0.00    -0.023 C 
ATOM     21  C   UNL     1      34.633 -10.221 -24.518  0.00  0.00    -0.002 C 
ENDBRANCH  19  20
ENDBRANCH  12  19
ENDBRANCH   3  13
BRANCH   6  24
ATOM     22  O   UNL     1      32.223 -20.312 -19.742  0.00  0.00    -0.270 OA
ATOM     23  N   UNL     1      33.155 -22.402 -19.573  0.00  0.00    -0.325 N 
ATOM     24  C   UNL     1      33.238 -21.030 -19.806  0.00  0.00    +0.244 C 
ATOM     25  H   UNL     1      32.288 -22.810 -19.345  0.00  0.00    +0.145 HD
ATOM     26  H   UNL     1      33.961 -22.962 -19.639  0.00  0.00    +0.145 HD
ENDBRANCH   6  24
TORSDOF 4
ENDMDL
MODEL 8
REMARK VINA RESULT:      -9.2      7.311     10.414
REMARK  Name = 9925908
REMARK  4 active torsions:
REMARK  status: ('A' for Active; 'I' for Inactive)
REMARK    1  A    between atoms: C_3  and  C_13
REMARK    2  A    between atoms: C_6  and  C_24
REMARK    3  A    between atoms: N_12  and  C_19
REMARK    4  A    between atoms: C_19  and  C_20
REMARK                            x       y       z     vdW  Elec       q    Type
REMARK                         _______ _______ _______ _____ _____    ______ ____
ROOT
ATOM      1  N   UNL     1      33.738 -14.402 -21.607  0.00  0.00    -0.318 N 
ATOM      2  N   UNL     1      33.595 -14.951 -23.756  0.00  0.00    -0.318 N 
ATOM      3  C   UNL     1      33.334 -14.036 -22.856  0.00  0.00    +0.143 C 
ATOM      4  C   UNL     1      34.302 -15.648 -21.705  0.00  0.00    +0.059 C 
ATOM      5  C   UNL     1      34.201 -15.968 -23.056  0.00  0.00    +0.063 C 
ATOM      6  C   UNL     1      34.696 -17.204 -23.505  0.00  0.00    +0.067 C 
ATOM      7  C   UNL     1      34.875 -16.496 -20.757  0.00  0.00    +0.016 C 
ATOM      8  C   UNL     1      35.275 -18.072 -22.570  0.00  0.00    +0.006 C 
ATOM      9  C   UNL     1      35.363 -17.722 -21.221  0.00  0.00    +0.001 C 
ATOM     10  H   UNL     1      33.641 -13.869 -20.784  0.00  0.00    +0.148 HD
ATOM     11  H   UNL     1      33.400 -14.918 -24.721  0.00  0.00    +0.148 HD
ENDROOT
BRANCH   3  13
ATOM     12  N   UNL     1      32.281  -9.842 -22.555  0.00  0.00    +0.387 N 
ATOM     13  C   UNL     1      32.662 -12.695 -23.101  0.00  0.00    +0.033 C 
ATOM     14  C   UNL     1      33.653 -11.627 -23.585  0.00  0.00    -0.020 C 
ATOM     15  C   UNL     1      31.905 -12.190 -21.864  0.00  0.00    -0.020 C 
ATOM     16  C   UNL     1      32.957 -10.279 -23.785  0.00  0.00    -0.077 C 
ATOM     17  C   UNL     1      31.272 -10.821 -22.126  0.00  0.00    -0.077 C 
ATOM     18  H   UNL     1      32.984  -9.773 -21.819  0.00  0.00    -0.080 HD
BRANCH  12  19
ATOM     19  C   UNL     1      31.669  -8.528 -22.746  0.00  0.00    -0.077 C 
BRANCH  19  20
ATOM     20  C   UNL     1      32.475  -7.447 -22.033  0.00  0.00    -0.023 C 
ATOM     21  C   UNL     1      32.697  -7.753 -20.558  0.00  0.00    -0.002 C 
ENDBRANCH  19  20
ENDBRANCH  12  19
ENDBRANCH   3  13
BRANCH   6  24
ATOM     22  O   UNL     1      34.857 -16.761 -25.813  0.00  0.00    -0.270 OA
ATOM     23  N   UNL     1      34.262 -18.892 -25.207  0.00  0.00    -0.325 N 
ATOM     24  C   UNL     1      34.612 -17.577 -24.906  0.00  0.00    +0.244 C 
ATOM     25  H   UNL     1      34.197 -19.180 -26.146  0.00  0.00    +0.145 HD
ATOM     26  H   UNL     1      34.083 -19.533 -24.482  0.00  0.00    +0.145 HD
ENDBRANCH   6  24
TORSDOF 4
ENDMDL
MODEL 9
REMARK VINA RESULT:      -9.1      2.940      8.396
REMARK  Name = 9925908
REMARK  4 active torsions:
REMARK  status: ('A' for Active; 'I' for Inactive)
REMARK    1  A    between atoms: C_3  and  C_13
REMARK    2  A    between atoms: C_6  and  C_24
REMARK    3  A    between atoms: N_12  and  C_19
REMARK    4  A    between atoms: C_19  and  C_20
REMARK                            x       y       z     vdW  Elec       q    Type
REMARK                         _______ _______ _______ _____ _____    ______ ____
ROOT
ATOM      1  N   UNL     1      34.774 -19.434 -22.905  0.00  0.00    -0.318 N 
ATOM      2  N   UNL     1      34.481 -18.125 -21.133  0.00  0.00    -0.318 N 
ATOM      3  C   UNL     1      34.624 -19.357 -21.553  0.00  0.00    +0.143 C 
ATOM      4  C   UNL     1      34.724 -18.156 -23.399  0.00  0.00    +0.059 C 
ATOM      5  C   UNL     1      34.540 -17.357 -22.273  0.00  0.00    +0.063 C 
ATOM      6  C   UNL     1      34.445 -15.964 -22.430  0.00  0.00    +0.067 C 
ATOM      7  C   UNL     1      34.820 -17.645 -24.693  0.00  0.00    +0.016 C 
ATOM      8  C   UNL     1      34.539 -15.429 -23.721  0.00  0.00    +0.006 C 
ATOM      9  C   UNL     1      34.724 -16.256 -24.831  0.00  0.00    +0.001 C 
ATOM     10  H   UNL     1      34.896 -20.258 -23.431  0.00  0.00    +0.148 HD
ATOM     11  H   UNL     1      34.357 -17.817 -20.206  0.00  0.00    +0.148 HD
ENDROOT
BRANCH   3  13
ATOM     12  N   UNL     1      34.555 -21.982 -18.104  0.00  0.00    +0.387 N 
ATOM     13  C   UNL     1      34.634 -20.609 -20.691  0.00  0.00    +0.033 C 
ATOM     14  C   UNL     1      33.336 -20.772 -19.888  0.00  0.00    -0.020 C 
ATOM     15  C   UNL     1      35.846 -20.657 -19.749  0.00  0.00    -0.020 C 
ATOM     16  C   UNL     1      33.390 -22.018 -19.000  0.00  0.00    -0.077 C 
ATOM     17  C   UNL     1      35.809 -21.907 -18.867  0.00  0.00    -0.077 C 
ATOM     18  H   UNL     1      34.484 -21.141 -17.532  0.00  0.00    -0.080 HD
BRANCH  12  19
ATOM     19  C   UNL     1      34.560 -23.151 -17.225  0.00  0.00    -0.077 C 
BRANCH  19  20
ATOM     20  C   UNL     1      33.142 -23.510 -16.796  0.00  0.00    -0.023 C 
ATOM     21  C   UNL     1      32.886 -23.242 -15.319  0.00  0.00    -0.002 C 
ENDBRANCH  19  20
ENDBRANCH  12  19
ENDBRANCH   3  13
BRANCH   6  24
ATOM     22  O   UNL     1      34.951 -15.210 -20.256  0.00  0.00    -0.270 OA
ATOM     23  N   UNL     1      33.275 -14.109 -21.370  0.00  0.00    -0.325 N 
ATOM     24  C   UNL     1      34.255 -15.095 -21.282  0.00  0.00    +0.244 C 
ATOM     25  H   UNL     1      33.119 -13.502 -20.611  0.00  0.00    +0.145 HD
ATOM     26  H   UNL     1      32.739 -14.019 -22.190  0.00  0.00    +0.145 HD
ENDBRANCH   6  24
TORSDOF 4
ENDMDL
