MODEL 1
REMARK VINA RESULT:      -9.1      0.000      0.000
REMARK  Name = 456389
REMARK  4 active torsions:
REMARK  status: ('A' for Active; 'I' for Inactive)
REMARK    1  A    between atoms: C_3  and  C_18
REMARK    2  A    between atoms: C_4  and  N_11
REMARK    3  A    between atoms: C_18  and  C_20
REMARK    4  A    between atoms: C_18  and  C_27
REMARK                            x       y       z     vdW  Elec       q    Type
REMARK                         _______ _______ _______ _____ _____    ______ ____
ROOT
ATOM      1 CL   UNL     1      31.824 -13.543 -22.524  0.00  0.00    -0.082 Cl
ATOM      2 CL   UNL     1      35.280 -10.682 -25.623  0.00  0.00    -0.082 Cl
ATOM      3  C   UNL     1      33.498 -11.975 -24.007  0.00  0.00    +0.017 C 
ATOM      4  C   UNL     1      32.581  -9.639 -22.873  0.00  0.00    +0.080 C 
ATOM      5  C   UNL     1      32.511 -12.048 -23.048  0.00  0.00    +0.057 C 
ATOM      6  C   UNL     1      34.043 -10.781 -24.421  0.00  0.00    +0.057 C 
ATOM      7  C   UNL     1      32.047 -10.864 -22.474  0.00  0.00    +0.028 C 
ATOM      8  C   UNL     1      33.578  -9.597 -23.847  0.00  0.00    +0.028 C 
ENDROOT
BRANCH   4  11
ATOM      9  O   UNL     1      32.824  -8.737 -20.063  0.00  0.00    -0.250 OA
ATOM     10  O   UNL     1      30.479  -4.941 -21.108  0.00  0.00    -0.268 OA
ATOM     11  N   UNL     1      32.100  -8.414 -22.279  0.00  0.00    -0.142 N 
ATOM     12  N   UNL     1      31.497  -7.576 -23.183  0.00  0.00    -0.164 NA
ATOM     13  N   UNL     1      31.642  -6.875 -20.545  0.00  0.00    -0.233 N 
ATOM     14  C   UNL     1      32.229  -8.079 -20.921  0.00  0.00    +0.333 C 
ATOM     15  C   UNL     1      30.987  -6.461 -22.792  0.00  0.00    +0.176 C 
ATOM     16  C   UNL     1      31.004  -6.006 -21.386  0.00  0.00    +0.274 C 
ATOM     17  H   UNL     1      31.688  -6.628 -19.593  0.00  0.00    +0.160 HD
ENDBRANCH   4  11
BRANCH   3  18
ATOM     18  C   UNL     1      34.008 -13.277 -24.640  0.00  0.00    +0.137 C 
BRANCH  18  20
ATOM     19 CL   UNL     1      35.164 -17.581 -20.620  0.00  0.00    -0.082 Cl
ATOM     20  C   UNL     1      34.294 -14.346 -23.640  0.00  0.00    -0.004 C 
ATOM     21  C   UNL     1      34.526 -14.011 -22.306  0.00  0.00    -0.002 C 
ATOM     22  C   UNL     1      34.332 -15.683 -24.041  0.00  0.00    -0.002 C 
ATOM     23  C   UNL     1      34.795 -15.011 -21.372  0.00  0.00    +0.011 C 
ATOM     24  C   UNL     1      34.600 -16.683 -23.106  0.00  0.00    +0.011 C 
ATOM     25  C   UNL     1      34.831 -16.348 -21.772  0.00  0.00    +0.058 C 
ENDBRANCH  18  20
BRANCH  18  27
ATOM     26  N   UNL     1      32.405 -14.009 -26.622  0.00  0.00    -0.195 NA
ATOM     27  C   UNL     1      33.098 -13.681 -25.750  0.00  0.00    +0.081 C 
ENDBRANCH  18  27
ENDBRANCH   3  18
TORSDOF 4
ENDMDL
MODEL 2
REMARK VINA RESULT:      -9.1      0.025      1.785
REMARK  Name = 456389
REMARK  4 active torsions:
REMARK  status: ('A' for Active; 'I' for Inactive)
REMARK    1  A    between atoms: C_3  and  C_18
REMARK    2  A    between atoms: C_4  and  N_11
REMARK    3  A    between atoms: C_18  and  C_20
REMARK    4  A    between atoms: C_18  and  C_27
REMARK                            x       y       z     vdW  Elec       q    Type
REMARK                         _______ _______ _______ _____ _____    ______ ____
ROOT
ATOM      1 CL   UNL     1      35.271 -10.702 -25.640  0.00  0.00    -0.082 Cl
ATOM      2 CL   UNL     1      31.806 -13.551 -22.540  0.00  0.00    -0.082 Cl
ATOM      3  C   UNL     1      33.486 -11.990 -24.023  0.00  0.00    +0.017 C 
ATOM      4  C   UNL     1      32.577  -9.651 -22.888  0.00  0.00    +0.080 C 
ATOM      5  C   UNL     1      34.036 -10.796 -24.438  0.00  0.00    +0.057 C 
ATOM      6  C   UNL     1      32.500 -12.059 -23.064  0.00  0.00    +0.057 C 
ATOM      7  C   UNL     1      33.575  -9.612 -23.862  0.00  0.00    +0.028 C 
ATOM      8  C   UNL     1      32.040 -10.874 -22.489  0.00  0.00    +0.028 C 
ENDROOT
BRANCH   4  11
ATOM      9  O   UNL     1      32.791  -8.768 -20.069  0.00  0.00    -0.250 OA
ATOM     10  O   UNL     1      30.501  -4.942 -21.123  0.00  0.00    -0.268 OA
ATOM     11  N   UNL     1      32.101  -8.425 -22.293  0.00  0.00    -0.142 N 
ATOM     12  N   UNL     1      31.520  -7.575 -23.199  0.00  0.00    -0.164 NA
ATOM     13  N   UNL     1      31.636  -6.891 -20.555  0.00  0.00    -0.233 N 
ATOM     14  C   UNL     1      32.215  -8.099 -20.931  0.00  0.00    +0.333 C 
ATOM     15  C   UNL     1      31.016  -6.456 -22.809  0.00  0.00    +0.176 C 
ATOM     16  C   UNL     1      31.019  -6.010 -21.400  0.00  0.00    +0.274 C 
ATOM     17  H   UNL     1      31.672  -6.651 -19.602  0.00  0.00    +0.160 HD
ENDBRANCH   4  11
BRANCH   3  18
ATOM     18  C   UNL     1      33.992 -13.293 -24.655  0.00  0.00    +0.137 C 
BRANCH  18  20
ATOM     19 CL   UNL     1      35.171 -17.588 -20.632  0.00  0.00    -0.082 Cl
ATOM     20  C   UNL     1      34.283 -14.360 -23.655  0.00  0.00    -0.004 C 
ATOM     21  C   UNL     1      34.516 -14.022 -22.322  0.00  0.00    -0.002 C 
ATOM     22  C   UNL     1      34.327 -15.697 -24.054  0.00  0.00    -0.002 C 
ATOM     23  C   UNL     1      34.790 -15.020 -21.387  0.00  0.00    +0.011 C 
ATOM     24  C   UNL     1      34.601 -16.695 -23.119  0.00  0.00    +0.011 C 
ATOM     25  C   UNL     1      34.832 -16.357 -21.785  0.00  0.00    +0.058 C 
ENDBRANCH  18  20
BRANCH  18  27
ATOM     26  N   UNL     1      32.376 -14.031 -26.625  0.00  0.00    -0.195 NA
ATOM     27  C   UNL     1      33.075 -13.700 -25.759  0.00  0.00    +0.081 C 
ENDBRANCH  18  27
ENDBRANCH   3  18
TORSDOF 4
ENDMDL
MODEL 3
REMARK VINA RESULT:      -9.1      3.464      8.358
REMARK  Name = 456389
REMARK  4 active torsions:
REMARK  status: ('A' for Active; 'I' for Inactive)
REMARK    1  A    between atoms: C_3  and  C_18
REMARK    2  A    between atoms: C_4  and  N_11
REMARK    3  A    between atoms: C_18  and  C_20
REMARK    4  A    between atoms: C_18  and  C_27
REMARK                            x       y       z     vdW  Elec       q    Type
REMARK                         _______ _______ _______ _____ _____    ______ ____
ROOT
ATOM      1 CL   UNL     1      35.148  -8.446 -23.988  0.00  0.00    -0.082 Cl
ATOM      2 CL   UNL     1      30.981 -10.398 -21.063  0.00  0.00    -0.082 Cl
ATOM      3  C   UNL     1      33.077  -9.564 -22.602  0.00  0.00    +0.017 C 
ATOM      4  C   UNL     1      33.298 -11.982 -23.900  0.00  0.00    +0.080 C 
ATOM      5  C   UNL     1      34.054  -9.712 -23.562  0.00  0.00    +0.057 C 
ATOM      6  C   UNL     1      32.207 -10.577 -22.265  0.00  0.00    +0.057 C 
ATOM      7  C   UNL     1      34.165 -10.938 -24.220  0.00  0.00    +0.028 C 
ATOM      8  C   UNL     1      32.319 -11.802 -22.924  0.00  0.00    +0.028 C 
ENDROOT
BRANCH   4  11
ATOM      9  O   UNL     1      33.068 -12.544 -26.798  0.00  0.00    -0.250 OA
ATOM     10  O   UNL     1      33.712 -17.002 -25.958  0.00  0.00    -0.268 OA
ATOM     11  N   UNL     1      33.414 -13.250 -24.581  0.00  0.00    -0.142 N 
ATOM     12  N   UNL     1      33.711 -14.291 -23.737  0.00  0.00    -0.164 NA
ATOM     13  N   UNL     1      33.349 -14.749 -26.408  0.00  0.00    -0.233 N 
ATOM     14  C   UNL     1      33.255 -13.433 -25.965  0.00  0.00    +0.333 C 
ATOM     15  C   UNL     1      33.810 -15.489 -24.196  0.00  0.00    +0.176 C 
ATOM     16  C   UNL     1      33.616 -15.834 -25.620  0.00  0.00    +0.274 C 
ATOM     17  H   UNL     1      33.211 -14.913 -27.368  0.00  0.00    +0.160 HD
ENDBRANCH   4  11
BRANCH   3  18
ATOM     18  C   UNL     1      32.954  -8.216 -21.879  0.00  0.00    +0.137 C 
BRANCH  18  20
ATOM     19 CL   UNL     1      30.255  -3.988 -25.176  0.00  0.00    -0.082 Cl
ATOM     20  C   UNL     1      32.282  -7.166 -22.697  0.00  0.00    -0.004 C 
ATOM     21  C   UNL     1      31.692  -7.503 -23.916  0.00  0.00    -0.002 C 
ATOM     22  C   UNL     1      32.246  -5.846 -22.246  0.00  0.00    -0.002 C 
ATOM     23  C   UNL     1      31.064  -6.520 -24.682  0.00  0.00    +0.011 C 
ATOM     24  C   UNL     1      31.619  -4.864 -23.012  0.00  0.00    +0.011 C 
ATOM     25  C   UNL     1      31.028  -5.200 -24.230  0.00  0.00    +0.058 C 
ENDBRANCH  18  20
BRANCH  18  27
ATOM     26  N   UNL     1      31.921  -8.582 -19.463  0.00  0.00    -0.195 NA
ATOM     27  C   UNL     1      32.365  -8.430 -20.525  0.00  0.00    +0.081 C 
ENDBRANCH  18  27
ENDBRANCH   3  18
TORSDOF 4
ENDMDL
MODEL 4
REMARK VINA RESULT:      -9.1      3.470      8.176
REMARK  Name = 456389
REMARK  4 active torsions:
REMARK  status: ('A' for Active; 'I' for Inactive)
REMARK    1  A    between atoms: C_3  and  C_18
REMARK    2  A    between atoms: C_4  and  N_11
REMARK    3  A    between atoms: C_18  and  C_20
REMARK    4  A    between atoms: C_18  and  C_27
REMARK                            x       y       z     vdW  Elec       q    Type
REMARK                         _______ _______ _______ _____ _____    ______ ____
ROOT
ATOM      1 CL   UNL     1      30.940 -10.330 -21.095  0.00  0.00    -0.082 Cl
ATOM      2 CL   UNL     1      35.183  -8.414 -23.935  0.00  0.00    -0.082 Cl
ATOM      3  C   UNL     1      33.075  -9.514 -22.591  0.00  0.00    +0.017 C 
ATOM      4  C   UNL     1      33.290 -11.928 -23.899  0.00  0.00    +0.080 C 
ATOM      5  C   UNL     1      32.186 -10.519 -22.276  0.00  0.00    +0.057 C 
ATOM      6  C   UNL     1      34.066  -9.669 -23.534  0.00  0.00    +0.057 C 
ATOM      7  C   UNL     1      32.296 -11.742 -22.939  0.00  0.00    +0.028 C 
ATOM      8  C   UNL     1      34.175 -10.892 -24.196  0.00  0.00    +0.028 C 
ENDROOT
BRANCH   4  11
ATOM      9  O   UNL     1      33.098 -12.473 -26.803  0.00  0.00    -0.250 OA
ATOM     10  O   UNL     1      33.684 -16.941 -25.976  0.00  0.00    -0.268 OA
ATOM     11  N   UNL     1      33.403 -13.194 -24.584  0.00  0.00    -0.142 N 
ATOM     12  N   UNL     1      33.676 -14.241 -23.741  0.00  0.00    -0.164 NA
ATOM     13  N   UNL     1      33.351 -14.682 -26.419  0.00  0.00    -0.233 N 
ATOM     14  C   UNL     1      33.264 -13.368 -25.971  0.00  0.00    +0.333 C 
ATOM     15  C   UNL     1      33.770 -15.439 -24.204  0.00  0.00    +0.176 C 
ATOM     16  C   UNL     1      33.595 -15.774 -25.633  0.00  0.00    +0.274 C 
ATOM     17  H   UNL     1      33.226 -14.840 -27.383  0.00  0.00    +0.160 HD
ENDBRANCH   4  11
BRANCH   3  18
ATOM     18  C   UNL     1      32.955  -8.169 -21.862  0.00  0.00    +0.137 C 
BRANCH  18  20
ATOM     19 CL   UNL     1      30.242  -3.928 -25.130  0.00  0.00    -0.082 Cl
ATOM     20  C   UNL     1      32.279  -7.116 -22.674  0.00  0.00    -0.004 C 
ATOM     21  C   UNL     1      31.719  -7.439 -23.910  0.00  0.00    -0.002 C 
ATOM     22  C   UNL     1      32.210  -5.806 -22.197  0.00  0.00    -0.002 C 
ATOM     23  C   UNL     1      31.089  -6.454 -24.669  0.00  0.00    +0.011 C 
ATOM     24  C   UNL     1      31.579  -4.821 -22.957  0.00  0.00    +0.011 C 
ATOM     25  C   UNL     1      31.019  -5.144 -24.192  0.00  0.00    +0.058 C 
ENDBRANCH  18  20
BRANCH  18  27
ATOM     26  N   UNL     1      31.932  -8.543 -19.444  0.00  0.00    -0.195 NA
ATOM     27  C   UNL     1      32.373  -8.388 -20.507  0.00  0.00    +0.081 C 
ENDBRANCH  18  27
ENDBRANCH   3  18
TORSDOF 4
ENDMDL
MODEL 5
REMARK VINA RESULT:      -8.8      3.463      8.157
REMARK  Name = 456389
REMARK  4 active torsions:
REMARK  status: ('A' for Active; 'I' for Inactive)
REMARK    1  A    between atoms: C_3  and  C_18
REMARK    2  A    between atoms: C_4  and  N_11
REMARK    3  A    between atoms: C_18  and  C_20
REMARK    4  A    between atoms: C_18  and  C_27
REMARK                            x       y       z     vdW  Elec       q    Type
REMARK                         _______ _______ _______ _____ _____    ______ ____
ROOT
ATOM      1 CL   UNL     1      31.092  -9.509 -21.055  0.00  0.00    -0.082 Cl
ATOM      2 CL   UNL     1      35.384  -8.053 -24.086  0.00  0.00    -0.082 Cl
ATOM      3  C   UNL     1      33.242  -8.928 -22.636  0.00  0.00    +0.017 C 
ATOM      4  C   UNL     1      33.298 -11.440 -23.764  0.00  0.00    +0.080 C 
ATOM      5  C   UNL     1      32.304  -9.855 -22.235  0.00  0.00    +0.057 C 
ATOM      6  C   UNL     1      34.205  -9.209 -23.578  0.00  0.00    +0.057 C 
ATOM      7  C   UNL     1      32.333 -11.127 -22.806  0.00  0.00    +0.028 C 
ATOM      8  C   UNL     1      34.234 -10.481 -24.149  0.00  0.00    +0.028 C 
ENDROOT
BRANCH   4  11
ATOM      9  O   UNL     1      33.693 -14.051 -22.424  0.00  0.00    -0.250 OA
ATOM     10  O   UNL     1      33.433 -16.146 -26.491  0.00  0.00    -0.268 OA
ATOM     11  N   UNL     1      33.327 -12.757 -24.355  0.00  0.00    -0.142 N 
ATOM     12  N   UNL     1      33.096 -12.747 -25.707  0.00  0.00    -0.164 NA
ATOM     13  N   UNL     1      33.603 -15.103 -24.418  0.00  0.00    -0.233 N 
ATOM     14  C   UNL     1      33.557 -13.948 -23.645  0.00  0.00    +0.333 C 
ATOM     15  C   UNL     1      33.127 -13.845 -26.378  0.00  0.00    +0.176 C 
ATOM     16  C   UNL     1      33.407 -15.162 -25.771  0.00  0.00    +0.274 C 
ATOM     17  H   UNL     1      33.793 -15.950 -23.954  0.00  0.00    +0.160 HD
ENDBRANCH   4  11
BRANCH   3  18
ATOM     18  C   UNL     1      33.211  -7.529 -22.007  0.00  0.00    +0.137 C 
BRANCH  18  20
ATOM     19 CL   UNL     1      30.241  -3.497 -25.316  0.00  0.00    -0.082 Cl
ATOM     20  C   UNL     1      32.472  -6.528 -22.829  0.00  0.00    -0.004 C 
ATOM     21  C   UNL     1      32.510  -6.604 -24.222  0.00  0.00    -0.002 C 
ATOM     22  C   UNL     1      31.744  -5.514 -22.206  0.00  0.00    -0.002 C 
ATOM     23  C   UNL     1      31.820  -5.667 -24.991  0.00  0.00    +0.011 C 
ATOM     24  C   UNL     1      31.054  -4.577 -22.975  0.00  0.00    +0.011 C 
ATOM     25  C   UNL     1      31.091  -4.654 -24.367  0.00  0.00    +0.058 C 
ENDBRANCH  18  20
BRANCH  18  27
ATOM     26  N   UNL     1      32.425  -7.693 -19.479  0.00  0.00    -0.195 NA
ATOM     27  C   UNL     1      32.762  -7.631 -20.588  0.00  0.00    +0.081 C 
ENDBRANCH  18  27
ENDBRANCH   3  18
TORSDOF 4
ENDMDL
MODEL 6
REMARK VINA RESULT:      -8.5      1.046      1.378
REMARK  Name = 456389
REMARK  4 active torsions:
REMARK  status: ('A' for Active; 'I' for Inactive)
REMARK    1  A    between atoms: C_3  and  C_18
REMARK    2  A    between atoms: C_4  and  N_11
REMARK    3  A    between atoms: C_18  and  C_20
REMARK    4  A    between atoms: C_18  and  C_27
REMARK                            x       y       z     vdW  Elec       q    Type
REMARK                         _______ _______ _______ _____ _____    ______ ____
ROOT
ATOM      1 CL   UNL     1      31.938 -13.843 -22.498  0.00  0.00    -0.082 Cl
ATOM      2 CL   UNL     1      35.162 -11.049 -25.893  0.00  0.00    -0.082 Cl
ATOM      3  C   UNL     1      33.499 -12.308 -24.130  0.00  0.00    +0.017 C 
ATOM      4  C   UNL     1      32.635  -9.946 -23.007  0.00  0.00    +0.080 C 
ATOM      5  C   UNL     1      32.576 -12.360 -23.108  0.00  0.00    +0.057 C 
ATOM      6  C   UNL     1      34.006 -11.122 -24.612  0.00  0.00    +0.057 C 
ATOM      7  C   UNL     1      32.139 -11.163 -22.540  0.00  0.00    +0.028 C 
ATOM      8  C   UNL     1      33.568  -9.925 -24.044  0.00  0.00    +0.028 C 
ENDROOT
BRANCH   4  11
ATOM      9  O   UNL     1      30.893  -7.869 -24.200  0.00  0.00    -0.250 OA
ATOM     10  O   UNL     1      31.303  -5.371 -20.381  0.00  0.00    -0.268 OA
ATOM     11  N   UNL     1      32.182  -8.708 -22.419  0.00  0.00    -0.142 N 
ATOM     12  N   UNL     1      32.607  -8.538 -21.125  0.00  0.00    -0.164 NA
ATOM     13  N   UNL     1      31.107  -6.605 -22.343  0.00  0.00    -0.233 N 
ATOM     14  C   UNL     1      31.380  -7.757 -23.072  0.00  0.00    +0.333 C 
ATOM     15  C   UNL     1      32.311  -7.464 -20.481  0.00  0.00    +0.176 C 
ATOM     16  C   UNL     1      31.519  -6.359 -21.062  0.00  0.00    +0.274 C 
ATOM     17  H   UNL     1      30.573  -5.906 -22.786  0.00  0.00    +0.160 HD
ENDBRANCH   4  11
BRANCH   3  18
ATOM     18  C   UNL     1      33.980 -13.623 -24.756  0.00  0.00    +0.137 C 
BRANCH  18  20
ATOM     19 CL   UNL     1      35.328 -17.836 -20.699  0.00  0.00    -0.082 Cl
ATOM     20  C   UNL     1      34.313 -14.670 -23.748  0.00  0.00    -0.004 C 
ATOM     21  C   UNL     1      34.562 -14.309 -22.423  0.00  0.00    -0.002 C 
ATOM     22  C   UNL     1      34.379 -16.010 -24.129  0.00  0.00    -0.002 C 
ATOM     23  C   UNL     1      34.876 -15.288 -21.480  0.00  0.00    +0.011 C 
ATOM     24  C   UNL     1      34.692 -16.989 -23.186  0.00  0.00    +0.011 C 
ATOM     25  C   UNL     1      34.940 -16.629 -21.862  0.00  0.00    +0.058 C 
ENDBRANCH  18  20
BRANCH  18  27
ATOM     26  N   UNL     1      32.286 -14.398 -26.644  0.00  0.00    -0.195 NA
ATOM     27  C   UNL     1      33.019 -14.052 -25.813  0.00  0.00    +0.081 C 
ENDBRANCH  18  27
ENDBRANCH   3  18
TORSDOF 4
ENDMDL
MODEL 7
REMARK VINA RESULT:      -8.5      7.720     11.341
REMARK  Name = 456389
REMARK  4 active torsions:
REMARK  status: ('A' for Active; 'I' for Inactive)
REMARK    1  A    between atoms: C_3  and  C_18
REMARK    2  A    between atoms: C_4  and  N_11
REMARK    3  A    between atoms: C_18  and  C_20
REMARK    4  A    between atoms: C_18  and  C_27
REMARK                            x       y       z     vdW  Elec       q    Type
REMARK                         _______ _______ _______ _____ _____    ______ ____
ROOT
ATOM      1 CL   UNL     1      37.158 -18.720 -21.965  0.00  0.00    -0.082 Cl
ATOM      2 CL   UNL     1      32.094 -20.520 -21.047  0.00  0.00    -0.082 Cl
ATOM      3  C   UNL     1      34.678 -19.697 -21.374  0.00  0.00    +0.017 C 
ATOM      4  C   UNL     1      35.549 -20.993 -19.105  0.00  0.00    +0.080 C 
ATOM      5  C   UNL     1      36.010 -19.609 -21.032  0.00  0.00    +0.057 C 
ATOM      6  C   UNL     1      33.765 -20.406 -20.625  0.00  0.00    +0.057 C 
ATOM      7  C   UNL     1      36.450 -20.266 -19.883  0.00  0.00    +0.028 C 
ATOM      8  C   UNL     1      34.207 -21.064 -19.477  0.00  0.00    +0.028 C 
ENDROOT
BRANCH   4  11
ATOM      9  O   UNL     1      34.348 -23.334 -17.746  0.00  0.00    -0.250 OA
ATOM     10  O   UNL     1      37.623 -23.123 -14.549  0.00  0.00    -0.268 OA
ATOM     11  N   UNL     1      36.006 -21.673 -17.916  0.00  0.00    -0.142 N 
ATOM     12  N   UNL     1      37.173 -21.156 -17.414  0.00  0.00    -0.164 NA
ATOM     13  N   UNL     1      35.930 -23.230 -16.140  0.00  0.00    -0.233 N 
ATOM     14  C   UNL     1      35.352 -22.761 -17.315  0.00  0.00    +0.333 C 
ATOM     15  C   UNL     1      37.684 -21.636 -16.335  0.00  0.00    +0.176 C 
ATOM     16  C   UNL     1      37.076 -22.746 -15.571  0.00  0.00    +0.274 C 
ATOM     17  H   UNL     1      35.477 -23.972 -15.679  0.00  0.00    +0.160 HD
ENDBRANCH   4  11
BRANCH   3  18
ATOM     18  C   UNL     1      34.192 -18.975 -22.638  0.00  0.00    +0.137 C 
BRANCH  18  20
ATOM     19 CL   UNL     1      34.379 -12.993 -22.184  0.00  0.00    -0.082 Cl
ATOM     20  C   UNL     1      34.240 -17.489 -22.524  0.00  0.00    -0.004 C 
ATOM     21  C   UNL     1      33.926 -16.871 -21.313  0.00  0.00    -0.002 C 
ATOM     22  C   UNL     1      34.596 -16.716 -23.630  0.00  0.00    -0.002 C 
ATOM     23  C   UNL     1      33.969 -15.481 -21.208  0.00  0.00    +0.011 C 
ATOM     24  C   UNL     1      34.640 -15.326 -23.525  0.00  0.00    +0.011 C 
ATOM     25  C   UNL     1      34.327 -14.708 -22.314  0.00  0.00    +0.058 C 
ENDBRANCH  18  20
BRANCH  18  27
ATOM     26  N   UNL     1      35.413 -19.979 -24.767  0.00  0.00    -0.195 NA
ATOM     27  C   UNL     1      34.889 -19.537 -23.830  0.00  0.00    +0.081 C 
ENDBRANCH  18  27
ENDBRANCH   3  18
TORSDOF 4
ENDMDL
MODEL 8
REMARK VINA RESULT:      -8.5      3.915      8.669
REMARK  Name = 456389
REMARK  4 active torsions:
REMARK  status: ('A' for Active; 'I' for Inactive)
REMARK    1  A    between atoms: C_3  and  C_18
REMARK    2  A    between atoms: C_4  and  N_11
REMARK    3  A    between atoms: C_18  and  C_20
REMARK    4  A    between atoms: C_18  and  C_27
REMARK                            x       y       z     vdW  Elec       q    Type
REMARK                         _______ _______ _______ _____ _____    ______ ____
ROOT
ATOM      1 CL   UNL     1      35.623  -7.177 -23.376  0.00  0.00    -0.082 Cl
ATOM      2 CL   UNL     1      30.206  -7.767 -23.571  0.00  0.00    -0.082 Cl
ATOM      3  C   UNL     1      32.933  -7.630 -23.496  0.00  0.00    +0.017 C 
ATOM      4  C   UNL     1      33.241 -10.340 -23.878  0.00  0.00    +0.080 C 
ATOM      5  C   UNL     1      34.208  -8.151 -23.545  0.00  0.00    +0.057 C 
ATOM      6  C   UNL     1      31.807  -8.412 -23.631  0.00  0.00    +0.057 C 
ATOM      7  C   UNL     1      34.363  -9.524 -23.739  0.00  0.00    +0.028 C 
ATOM      8  C   UNL     1      31.963  -9.785 -23.825  0.00  0.00    +0.028 C 
ENDROOT
BRANCH   4  11
ATOM      9  O   UNL     1      33.892 -11.785 -26.380  0.00  0.00    -0.250 OA
ATOM     10  O   UNL     1      33.634 -15.762 -24.119  0.00  0.00    -0.268 OA
ATOM     11  N   UNL     1      33.403 -11.761 -24.078  0.00  0.00    -0.142 N 
ATOM     12  N   UNL     1      33.270 -12.488 -22.922  0.00  0.00    -0.164 NA
ATOM     13  N   UNL     1      33.738 -13.758 -25.297  0.00  0.00    -0.233 N 
ATOM     14  C   UNL     1      33.679 -12.369 -25.315  0.00  0.00    +0.333 C 
ATOM     15  C   UNL     1      33.353 -13.772 -22.950  0.00  0.00    +0.176 C 
ATOM     16  C   UNL     1      33.589 -14.545 -24.188  0.00  0.00    +0.274 C 
ATOM     17  H   UNL     1      33.899 -14.215 -26.154  0.00  0.00    +0.160 HD
ENDBRANCH   4  11
BRANCH   3  18
ATOM     18  C   UNL     1      32.761  -6.121 -23.284  0.00  0.00    +0.137 C 
BRANCH  18  20
ATOM     19 CL   UNL     1      31.863  -3.095 -28.389  0.00  0.00    -0.082 Cl
ATOM     20  C   UNL     1      32.538  -5.368 -24.552  0.00  0.00    -0.004 C 
ATOM     21  C   UNL     1      31.539  -4.397 -24.621  0.00  0.00    -0.002 C 
ATOM     22  C   UNL     1      33.329  -5.636 -25.670  0.00  0.00    -0.002 C 
ATOM     23  C   UNL     1      31.330  -3.694 -25.808  0.00  0.00    +0.011 C 
ATOM     24  C   UNL     1      33.120  -4.933 -26.857  0.00  0.00    +0.011 C 
ATOM     25  C   UNL     1      32.121  -3.962 -26.926  0.00  0.00    +0.058 C 
ENDBRANCH  18  20
BRANCH  18  27
ATOM     26  N   UNL     1      30.953  -5.673 -21.396  0.00  0.00    -0.195 NA
ATOM     27  C   UNL     1      31.740  -5.880 -22.223  0.00  0.00    +0.081 C 
ENDBRANCH  18  27
ENDBRANCH   3  18
TORSDOF 4
ENDMDL
MODEL 9
REMARK VINA RESULT:      -8.3      3.381      5.383
REMARK  Name = 456389
REMARK  4 active torsions:
REMARK  status: ('A' for Active; 'I' for Inactive)
REMARK    1  A    between atoms: C_3  and  C_18
REMARK    2  A    between atoms: C_4  and  N_11
REMARK    3  A    between atoms: C_18  and  C_20
REMARK    4  A    between atoms: C_18  and  C_27
REMARK                            x       y       z     vdW  Elec       q    Type
REMARK                         _______ _______ _______ _____ _____    ______ ____
ROOT
ATOM      1 CL   UNL     1      35.343 -16.940 -20.248  0.00  0.00    -0.082 Cl
ATOM      2 CL   UNL     1      33.975 -17.356 -25.509  0.00  0.00    -0.082 Cl
ATOM      3  C   UNL     1      34.599 -16.998 -22.875  0.00  0.00    +0.017 C 
ATOM      4  C   UNL     1      33.587 -14.438 -22.815  0.00  0.00    +0.080 C 
ATOM      5  C   UNL     1      34.659 -16.291 -21.694  0.00  0.00    +0.057 C 
ATOM      6  C   UNL     1      34.054 -16.476 -24.026  0.00  0.00    +0.057 C 
ATOM      7  C   UNL     1      34.146 -14.994 -21.664  0.00  0.00    +0.028 C 
ATOM      8  C   UNL     1      33.540 -15.179 -23.995  0.00  0.00    +0.028 C 
ENDROOT
BRANCH   4  11
ATOM      9  O   UNL     1      34.214 -12.167 -24.608  0.00  0.00    -0.250 OA
ATOM     10  O   UNL     1      31.368  -9.509 -22.193  0.00  0.00    -0.268 OA
ATOM     11  N   UNL     1      33.055 -13.096 -22.783  0.00  0.00    -0.142 N 
ATOM     12  N   UNL     1      32.112 -12.912 -21.804  0.00  0.00    -0.164 NA
ATOM     13  N   UNL     1      32.844 -10.828 -23.415  0.00  0.00    -0.233 N 
ATOM     14  C   UNL     1      33.436 -12.063 -23.656  0.00  0.00    +0.333 C 
ATOM     15  C   UNL     1      31.574 -11.755 -21.631  0.00  0.00    +0.176 C 
ATOM     16  C   UNL     1      31.918 -10.569 -22.442  0.00  0.00    +0.274 C 
ATOM     17  H   UNL     1      33.115 -10.077 -23.990  0.00  0.00    +0.160 HD
ENDBRANCH   4  11
BRANCH   3  18
ATOM     18  C   UNL     1      35.163 -18.425 -22.908  0.00  0.00    +0.137 C 
BRANCH  18  20
ATOM     19 CL   UNL     1      33.044 -21.926 -18.518  0.00  0.00    -0.082 Cl
ATOM     20  C   UNL     1      34.637 -19.294 -21.816  0.00  0.00    -0.004 C 
ATOM     21  C   UNL     1      35.515 -20.067 -21.056  0.00  0.00    -0.002 C 
ATOM     22  C   UNL     1      33.267 -19.335 -21.557  0.00  0.00    -0.002 C 
ATOM     23  C   UNL     1      35.022 -20.881 -20.036  0.00  0.00    +0.011 C 
ATOM     24  C   UNL     1      32.774 -20.148 -20.536  0.00  0.00    +0.011 C 
ATOM     25  C   UNL     1      33.652 -20.921 -19.776  0.00  0.00    +0.058 C 
ENDBRANCH  18  20
BRANCH  18  27
ATOM     26  N   UNL     1      34.909 -19.441 -25.345  0.00  0.00    -0.195 NA
ATOM     27  C   UNL     1      35.017 -18.986 -24.283  0.00  0.00    +0.081 C 
ENDBRANCH  18  27
ENDBRANCH   3  18
TORSDOF 4
ENDMDL
