MODEL 1
REMARK VINA RESULT:      -5.8      0.000      0.000
REMARK  Name = 21439
REMARK  3 active torsions:
REMARK  status: ('A' for Active; 'I' for Inactive)
REMARK    1  A    between atoms: C_1  and  C_10
REMARK    2  A    between atoms: C_2  and  N_7
REMARK    3  A    between atoms: C_10  and  O_11
REMARK                            x       y       z     vdW  Elec       q    Type
REMARK                         _______ _______ _______ _____ _____    ______ ____
ROOT
ATOM      1  C   UNL     1      34.067 -21.290 -19.627  0.00  0.00    +0.020 C 
ATOM      2  C   UNL     1      35.399 -20.947 -19.857  0.00  0.00    +0.040 C 
ATOM      3  C   UNL     1      33.044 -20.555 -20.225  0.00  0.00    -0.001 C 
ATOM      4  C   UNL     1      35.708 -19.867 -20.685  0.00  0.00    +0.014 C 
ATOM      5  C   UNL     1      33.352 -19.477 -21.053  0.00  0.00    -0.000 C 
ATOM      6  C   UNL     1      34.684 -19.132 -21.283  0.00  0.00    +0.001 C 
ENDROOT
BRANCH   2   7
ATOM      7  N   UNL     1      36.448 -21.680 -19.262  0.00  0.00    -0.357 N 
ATOM      8  H   UNL     1      37.286 -21.833 -19.757  0.00  0.00    +0.142 HD
ATOM      9  H   UNL     1      36.343 -22.038 -18.350  0.00  0.00    +0.142 HD
ENDBRANCH   2   7
BRANCH   1  10
ATOM     10  C   UNL     1      33.708 -22.442 -18.745  0.00  0.00    +0.165 C 
BRANCH  10  11
ATOM     11  O   UNL     1      33.975 -23.659 -19.428  0.00  0.00    -0.377 OA
ATOM     12  H   UNL     1      33.716 -24.407 -18.868  0.00  0.00    +0.211 HD
ENDBRANCH  10  11
ENDBRANCH   1  10
TORSDOF 3
ENDMDL
MODEL 2
REMARK VINA RESULT:      -5.7      1.536      2.269
REMARK  Name = 21439
REMARK  3 active torsions:
REMARK  status: ('A' for Active; 'I' for Inactive)
REMARK    1  A    between atoms: C_1  and  C_10
REMARK    2  A    between atoms: C_2  and  N_7
REMARK    3  A    between atoms: C_10  and  O_11
REMARK                            x       y       z     vdW  Elec       q    Type
REMARK                         _______ _______ _______ _____ _____    ______ ____
ROOT
ATOM      1  C   UNL     1      34.877 -21.355 -19.508  0.00  0.00    +0.020 C 
ATOM      2  C   UNL     1      33.988 -20.548 -20.220  0.00  0.00    +0.040 C 
ATOM      3  C   UNL     1      36.248 -21.108 -19.573  0.00  0.00    -0.001 C 
ATOM      4  C   UNL     1      34.472 -19.495 -20.997  0.00  0.00    +0.014 C 
ATOM      5  C   UNL     1      36.732 -20.055 -20.348  0.00  0.00    -0.000 C 
ATOM      6  C   UNL     1      35.843 -19.248 -21.060  0.00  0.00    +0.001 C 
ENDROOT
BRANCH   2   7
ATOM      7  N   UNL     1      32.597 -20.782 -20.166  0.00  0.00    -0.357 N 
ATOM      8  H   UNL     1      32.186 -21.118 -19.336  0.00  0.00    +0.142 HD
ATOM      9  H   UNL     1      32.038 -20.609 -20.957  0.00  0.00    +0.142 HD
ENDBRANCH   2   7
BRANCH   1  10
ATOM     10  C   UNL     1      34.386 -22.490 -18.669  0.00  0.00    +0.165 C 
BRANCH  10  11
ATOM     11  O   UNL     1      33.938 -23.540 -19.514  0.00  0.00    -0.377 OA
ATOM     12  H   UNL     1      33.622 -24.279 -18.972  0.00  0.00    +0.211 HD
ENDBRANCH  10  11
ENDBRANCH   1  10
TORSDOF 3
ENDMDL
MODEL 3
REMARK VINA RESULT:      -5.6      1.899      2.516
REMARK  Name = 21439
REMARK  3 active torsions:
REMARK  status: ('A' for Active; 'I' for Inactive)
REMARK    1  A    between atoms: C_1  and  C_10
REMARK    2  A    between atoms: C_2  and  N_7
REMARK    3  A    between atoms: C_10  and  O_11
REMARK                            x       y       z     vdW  Elec       q    Type
REMARK                         _______ _______ _______ _____ _____    ______ ____
ROOT
ATOM      1  C   UNL     1      35.025 -21.044 -19.690  0.00  0.00    +0.020 C 
ATOM      2  C   UNL     1      33.633 -21.132 -19.736  0.00  0.00    +0.040 C 
ATOM      3  C   UNL     1      35.693 -20.138 -20.513  0.00  0.00    -0.001 C 
ATOM      4  C   UNL     1      32.911 -20.314 -20.605  0.00  0.00    +0.014 C 
ATOM      5  C   UNL     1      34.972 -19.320 -21.381  0.00  0.00    -0.000 C 
ATOM      6  C   UNL     1      33.581 -19.408 -21.428  0.00  0.00    +0.001 C 
ENDROOT
BRANCH   2   7
ATOM      7  N   UNL     1      32.939 -22.041 -18.909  0.00  0.00    -0.357 N 
ATOM      8  H   UNL     1      32.107 -22.462 -19.229  0.00  0.00    +0.142 HD
ATOM      9  H   UNL     1      33.286 -22.257 -18.014  0.00  0.00    +0.142 HD
ENDBRANCH   2   7
BRANCH   1  10
ATOM     10  C   UNL     1      35.823 -21.908 -18.769  0.00  0.00    +0.165 C 
BRANCH  10  11
ATOM     11  O   UNL     1      36.746 -21.102 -18.049  0.00  0.00    -0.377 OA
ATOM     12  H   UNL     1      36.454 -21.019 -17.128  0.00  0.00    +0.211 HD
ENDBRANCH  10  11
ENDBRANCH   1  10
TORSDOF 3
ENDMDL
MODEL 4
REMARK VINA RESULT:      -5.6      2.520      3.790
REMARK  Name = 21439
REMARK  3 active torsions:
REMARK  status: ('A' for Active; 'I' for Inactive)
REMARK    1  A    between atoms: C_1  and  C_10
REMARK    2  A    between atoms: C_2  and  N_7
REMARK    3  A    between atoms: C_10  and  O_11
REMARK                            x       y       z     vdW  Elec       q    Type
REMARK                         _______ _______ _______ _____ _____    ______ ____
ROOT
ATOM      1  C   UNL     1      34.875 -20.022 -20.650  0.00  0.00    +0.020 C 
ATOM      2  C   UNL     1      33.671 -20.601 -20.248  0.00  0.00    +0.040 C 
ATOM      3  C   UNL     1      36.084 -20.511 -20.154  0.00  0.00    -0.001 C 
ATOM      4  C   UNL     1      33.676 -21.668 -19.349  0.00  0.00    +0.014 C 
ATOM      5  C   UNL     1      36.089 -21.578 -19.257  0.00  0.00    -0.000 C 
ATOM      6  C   UNL     1      34.885 -22.156 -18.854  0.00  0.00    +0.001 C 
ENDROOT
BRANCH   2   7
ATOM      7  N   UNL     1      32.439 -20.120 -20.740  0.00  0.00    -0.357 N 
ATOM      8  H   UNL     1      31.992 -20.583 -21.486  0.00  0.00    +0.142 HD
ATOM      9  H   UNL     1      32.025 -19.322 -20.337  0.00  0.00    +0.142 HD
ENDBRANCH   2   7
BRANCH   1  10
ATOM     10  C   UNL     1      34.899 -18.878 -21.611  0.00  0.00    +0.165 C 
BRANCH  10  11
ATOM     11  O   UNL     1      34.531 -19.341 -22.903  0.00  0.00    -0.377 OA
ATOM     12  H   UNL     1      33.607 -19.638 -22.889  0.00  0.00    +0.211 HD
ENDBRANCH  10  11
ENDBRANCH   1  10
TORSDOF 3
ENDMDL
MODEL 5
REMARK VINA RESULT:      -5.5      2.191      3.171
REMARK  Name = 21439
REMARK  3 active torsions:
REMARK  status: ('A' for Active; 'I' for Inactive)
REMARK    1  A    between atoms: C_1  and  C_10
REMARK    2  A    between atoms: C_2  and  N_7
REMARK    3  A    between atoms: C_10  and  O_11
REMARK                            x       y       z     vdW  Elec       q    Type
REMARK                         _______ _______ _______ _____ _____    ______ ____
ROOT
ATOM      1  C   UNL     1      34.388 -19.979 -20.576  0.00  0.00    +0.020 C 
ATOM      2  C   UNL     1      35.659 -20.342 -20.129  0.00  0.00    +0.040 C 
ATOM      3  C   UNL     1      33.273 -20.715 -20.176  0.00  0.00    -0.001 C 
ATOM      4  C   UNL     1      35.815 -21.441 -19.284  0.00  0.00    +0.014 C 
ATOM      5  C   UNL     1      33.427 -21.813 -19.331  0.00  0.00    -0.000 C 
ATOM      6  C   UNL     1      34.698 -22.176 -18.885  0.00  0.00    +0.001 C 
ENDROOT
BRANCH   2   7
ATOM      7  N   UNL     1      36.800 -19.608 -20.522  0.00  0.00    -0.357 N 
ATOM      8  H   UNL     1      37.674 -19.800 -20.111  0.00  0.00    +0.142 HD
ATOM      9  H   UNL     1      36.721 -18.905 -21.207  0.00  0.00    +0.142 HD
ENDBRANCH   2   7
BRANCH   1  10
ATOM     10  C   UNL     1      34.193 -18.807 -21.482  0.00  0.00    +0.165 C 
BRANCH  10  11
ATOM     11  O   UNL     1      34.714 -19.115 -22.768  0.00  0.00    -0.377 OA
ATOM     12  H   UNL     1      35.378 -18.453 -23.015  0.00  0.00    +0.211 HD
ENDBRANCH  10  11
ENDBRANCH   1  10
TORSDOF 3
ENDMDL
MODEL 6
REMARK VINA RESULT:      -5.3      3.607      4.583
REMARK  Name = 21439
REMARK  3 active torsions:
REMARK  status: ('A' for Active; 'I' for Inactive)
REMARK    1  A    between atoms: C_1  and  C_10
REMARK    2  A    between atoms: C_2  and  N_7
REMARK    3  A    between atoms: C_10  and  O_11
REMARK                            x       y       z     vdW  Elec       q    Type
REMARK                         _______ _______ _______ _____ _____    ______ ____
ROOT
ATOM      1  C   UNL     1      34.862 -18.463 -22.422  0.00  0.00    +0.020 C 
ATOM      2  C   UNL     1      34.866 -17.070 -22.354  0.00  0.00    +0.040 C 
ATOM      3  C   UNL     1      34.775 -19.100 -23.660  0.00  0.00    -0.001 C 
ATOM      4  C   UNL     1      34.783 -16.314 -23.523  0.00  0.00    +0.014 C 
ATOM      5  C   UNL     1      34.694 -18.346 -24.829  0.00  0.00    -0.000 C 
ATOM      6  C   UNL     1      34.697 -16.952 -24.761  0.00  0.00    +0.001 C 
ENDROOT
BRANCH   2   7
ATOM      7  N   UNL     1      34.954 -16.407 -21.110  0.00  0.00    -0.357 N 
ATOM      8  H   UNL     1      35.376 -15.519 -21.054  0.00  0.00    +0.142 HD
ATOM      9  H   UNL     1      34.593 -16.833 -20.299  0.00  0.00    +0.142 HD
ENDBRANCH   2   7
BRANCH   1  10
ATOM     10  C   UNL     1      34.949 -19.297 -21.185  0.00  0.00    +0.165 C 
BRANCH  10  11
ATOM     11  O   UNL     1      36.162 -19.004 -20.505  0.00  0.00    -0.377 OA
ATOM     12  H   UNL     1      36.815 -19.695 -20.696  0.00  0.00    +0.211 HD
ENDBRANCH  10  11
ENDBRANCH   1  10
TORSDOF 3
ENDMDL
MODEL 7
REMARK VINA RESULT:      -5.3     10.321     11.078
REMARK  Name = 21439
REMARK  3 active torsions:
REMARK  status: ('A' for Active; 'I' for Inactive)
REMARK    1  A    between atoms: C_1  and  C_10
REMARK    2  A    between atoms: C_2  and  N_7
REMARK    3  A    between atoms: C_10  and  O_11
REMARK                            x       y       z     vdW  Elec       q    Type
REMARK                         _______ _______ _______ _____ _____    ______ ____
ROOT
ATOM      1  C   UNL     1      41.201 -14.239 -15.252  0.00  0.00    +0.020 C 
ATOM      2  C   UNL     1      42.151 -13.690 -16.115  0.00  0.00    +0.040 C 
ATOM      3  C   UNL     1      40.952 -15.611 -15.272  0.00  0.00    -0.001 C 
ATOM      4  C   UNL     1      42.850 -14.514 -16.997  0.00  0.00    +0.014 C 
ATOM      5  C   UNL     1      41.652 -16.435 -16.152  0.00  0.00    -0.000 C 
ATOM      6  C   UNL     1      42.601 -15.887 -17.015  0.00  0.00    +0.001 C 
ENDROOT
BRANCH   2   7
ATOM      7  N   UNL     1      42.417 -12.304 -16.109  0.00  0.00    -0.357 N 
ATOM      8  H   UNL     1      43.227 -11.960 -15.666  0.00  0.00    +0.142 HD
ATOM      9  H   UNL     1      41.795 -11.681 -16.549  0.00  0.00    +0.142 HD
ENDBRANCH   2   7
BRANCH   1  10
ATOM     10  C   UNL     1      40.437 -13.379 -14.298  0.00  0.00    +0.165 C 
BRANCH  10  11
ATOM     11  O   UNL     1      40.988 -13.519 -12.995  0.00  0.00    -0.377 OA
ATOM     12  H   UNL     1      41.112 -12.642 -12.601  0.00  0.00    +0.211 HD
ENDBRANCH  10  11
ENDBRANCH   1  10
TORSDOF 3
ENDMDL
MODEL 8
REMARK VINA RESULT:      -5.2     11.366     12.396
REMARK  Name = 21439
REMARK  3 active torsions:
REMARK  status: ('A' for Active; 'I' for Inactive)
REMARK    1  A    between atoms: C_1  and  C_10
REMARK    2  A    between atoms: C_2  and  N_7
REMARK    3  A    between atoms: C_10  and  O_11
REMARK                            x       y       z     vdW  Elec       q    Type
REMARK                         _______ _______ _______ _____ _____    ______ ____
ROOT
ATOM      1  C   UNL     1      31.930  -9.263 -21.508  0.00  0.00    +0.020 C 
ATOM      2  C   UNL     1      32.223  -9.051 -20.160  0.00  0.00    +0.040 C 
ATOM      3  C   UNL     1      31.365 -10.471 -21.917  0.00  0.00    -0.001 C 
ATOM      4  C   UNL     1      31.951 -10.047 -19.222  0.00  0.00    +0.014 C 
ATOM      5  C   UNL     1      31.092 -11.466 -20.980  0.00  0.00    -0.000 C 
ATOM      6  C   UNL     1      31.386 -11.254 -19.632  0.00  0.00    +0.001 C 
ENDROOT
BRANCH   2   7
ATOM      7  N   UNL     1      32.794  -7.834 -19.728  0.00  0.00    -0.357 N 
ATOM      8  H   UNL     1      32.390  -6.977 -19.997  0.00  0.00    +0.142 HD
ATOM      9  H   UNL     1      33.595  -7.842 -19.156  0.00  0.00    +0.142 HD
ENDBRANCH   2   7
BRANCH   1  10
ATOM     10  C   UNL     1      32.211  -8.213 -22.534  0.00  0.00    +0.165 C 
BRANCH  10  11
ATOM     11  O   UNL     1      31.334  -7.113 -22.333  0.00  0.00    -0.377 OA
ATOM     12  H   UNL     1      31.679  -6.550 -21.623  0.00  0.00    +0.211 HD
ENDBRANCH  10  11
ENDBRANCH   1  10
TORSDOF 3
ENDMDL
MODEL 9
REMARK VINA RESULT:      -5.2     11.264     12.338
REMARK  Name = 21439
REMARK  3 active torsions:
REMARK  status: ('A' for Active; 'I' for Inactive)
REMARK    1  A    between atoms: C_1  and  C_10
REMARK    2  A    between atoms: C_2  and  N_7
REMARK    3  A    between atoms: C_10  and  O_11
REMARK                            x       y       z     vdW  Elec       q    Type
REMARK                         _______ _______ _______ _____ _____    ______ ____
ROOT
ATOM      1  C   UNL     1      32.114  -8.972 -20.773  0.00  0.00    +0.020 C 
ATOM      2  C   UNL     1      31.745  -9.620 -21.952  0.00  0.00    +0.040 C 
ATOM      3  C   UNL     1      31.928  -9.602 -19.543  0.00  0.00    -0.001 C 
ATOM      4  C   UNL     1      31.188 -10.899 -21.900  0.00  0.00    +0.014 C 
ATOM      5  C   UNL     1      31.373 -10.880 -19.490  0.00  0.00    -0.000 C 
ATOM      6  C   UNL     1      31.003 -11.528 -20.669  0.00  0.00    +0.001 C 
ENDROOT
BRANCH   2   7
ATOM      7  N   UNL     1      31.927  -8.999 -23.206  0.00  0.00    -0.357 N 
ATOM      8  H   UNL     1      31.836  -8.021 -23.289  0.00  0.00    +0.142 HD
ATOM      9  H   UNL     1      32.145  -9.542 -23.997  0.00  0.00    +0.142 HD
ENDBRANCH   2   7
BRANCH   1  10
ATOM     10  C   UNL     1      32.711  -7.602 -20.799  0.00  0.00    +0.165 C 
BRANCH  10  11
ATOM     11  O   UNL     1      33.207  -7.280 -19.507  0.00  0.00    -0.377 OA
ATOM     12  H   UNL     1      33.485  -8.092 -19.056  0.00  0.00    +0.211 HD
ENDBRANCH  10  11
ENDBRANCH   1  10
TORSDOF 3
ENDMDL
