MODEL 1
REMARK VINA RESULT:      -8.3      0.000      0.000
REMARK  Name = 44224261
REMARK  5 active torsions:
REMARK  status: ('A' for Active; 'I' for Inactive)
REMARK    1  A    between atoms: C_2  and  N_8
REMARK    2  A    between atoms: C_3  and  N_19
REMARK    3  A    between atoms: N_9  and  C_15
REMARK    4  A    between atoms: C_15  and  C_16
REMARK    5  A    between atoms: C_20  and  C_24
REMARK                            x       y       z     vdW  Elec       q    Type
REMARK                         _______ _______ _______ _____ _____    ______ ____
ROOT
ATOM      1 CL   UNL     1      32.071 -25.369 -13.207  0.00  0.00    -0.081 Cl
ATOM      2  C   UNL     1      32.687 -23.803 -15.358  0.00  0.00    +0.072 C 
ATOM      3  C   UNL     1      32.343 -23.049 -16.480  0.00  0.00    +0.065 C 
ATOM      4  C   UNL     1      31.693 -24.425 -14.604  0.00  0.00    +0.072 C 
ATOM      5  C   UNL     1      31.004 -22.915 -16.846  0.00  0.00    +0.016 C 
ATOM      6  C   UNL     1      30.353 -24.292 -14.970  0.00  0.00    +0.013 C 
ATOM      7  C   UNL     1      30.009 -23.538 -16.092  0.00  0.00    +0.002 C 
ENDROOT
BRANCH   2   8
ATOM      8  N   UNL     1      34.033 -23.932 -14.998  0.00  0.00    -0.310 N 
ATOM      9  N   UNL     1      36.840 -24.158 -14.518  0.00  0.00    +0.397 N 
ATOM     10  C   UNL     1      34.781 -25.081 -15.526  0.00  0.00    +0.068 C 
ATOM     11  C   UNL     1      34.829 -22.734 -14.717  0.00  0.00    +0.068 C 
ATOM     12  C   UNL     1      36.012 -25.362 -14.662  0.00  0.00    -0.054 C 
ATOM     13  C   UNL     1      36.060 -23.090 -13.880  0.00  0.00    -0.054 C 
ATOM     14  H   UNL     1      37.131 -23.845 -15.444  0.00  0.00    -0.078 HD
BRANCH   9  15
ATOM     15  C   UNL     1      38.041 -24.452 -13.737  0.00  0.00    +0.003 C 
BRANCH  15  16
ATOM     16  C   UNL     1      39.098 -25.003 -14.590  0.00  0.00    -0.101 C 
ATOM     17  C   UNL     1      39.968 -25.450 -15.287  0.00  0.00    -0.016 C 
ENDBRANCH  15  16
ENDBRANCH   9  15
ENDBRANCH   2   8
BRANCH   3  19
ATOM     18  O   UNL     1      33.672 -23.924 -19.021  0.00  0.00    -0.266 OA
ATOM     19  N   UNL     1      33.320 -22.414 -17.254  0.00  0.00    -0.277 N 
ATOM     20  C   UNL     1      33.909 -22.871 -18.437  0.00  0.00    +0.284 C 
ATOM     21  H   UNL     1      33.631 -21.540 -16.924  0.00  0.00    +0.155 HD
BRANCH  20  24
ATOM     22 BR   UNL     1      35.516 -19.014 -21.720  0.00  0.00    -0.008 Br
ATOM     23  O   UNL     1      34.475 -21.089 -20.004  0.00  0.00    -0.442 OA
ATOM     24  C   UNL     1      34.906 -21.952 -19.047  0.00  0.00    +0.199 C 
ATOM     25  C   UNL     1      36.253 -21.791 -18.823  0.00  0.00    +0.046 C 
ATOM     26  C   UNL     1      36.678 -20.763 -19.699  0.00  0.00    +0.048 C 
ATOM     27  C   UNL     1      35.559 -20.370 -20.396  0.00  0.00    +0.179 C 
ENDBRANCH  20  24
ENDBRANCH   3  19
TORSDOF 5
ENDMDL
MODEL 2
REMARK VINA RESULT:      -7.8      3.204      5.688
REMARK  Name = 44224261
REMARK  5 active torsions:
REMARK  status: ('A' for Active; 'I' for Inactive)
REMARK    1  A    between atoms: C_2  and  N_8
REMARK    2  A    between atoms: C_3  and  N_19
REMARK    3  A    between atoms: N_9  and  C_15
REMARK    4  A    between atoms: C_15  and  C_16
REMARK    5  A    between atoms: C_20  and  C_24
REMARK                            x       y       z     vdW  Elec       q    Type
REMARK                         _______ _______ _______ _____ _____    ______ ____
ROOT
ATOM      1 CL   UNL     1      30.686 -22.523 -16.925  0.00  0.00    -0.081 Cl
ATOM      2  C   UNL     1      32.565 -23.789 -15.400  0.00  0.00    +0.072 C 
ATOM      3  C   UNL     1      32.954 -24.597 -14.332  0.00  0.00    +0.065 C 
ATOM      4  C   UNL     1      31.215 -23.518 -15.615  0.00  0.00    +0.072 C 
ATOM      5  C   UNL     1      31.991 -25.137 -13.479  0.00  0.00    +0.016 C 
ATOM      6  C   UNL     1      30.251 -24.058 -14.763  0.00  0.00    +0.013 C 
ATOM      7  C   UNL     1      30.639 -24.867 -13.694  0.00  0.00    +0.002 C 
ENDROOT
BRANCH   2   8
ATOM      8  N   UNL     1      33.539 -23.251 -16.250  0.00  0.00    -0.310 N 
ATOM      9  N   UNL     1      35.390 -21.929 -17.978  0.00  0.00    +0.397 N 
ATOM     10  C   UNL     1      33.133 -22.867 -17.608  0.00  0.00    +0.068 C 
ATOM     11  C   UNL     1      34.658 -22.492 -15.684  0.00  0.00    +0.068 C 
ATOM     12  C   UNL     1      34.350 -22.804 -18.533  0.00  0.00    -0.054 C 
ATOM     13  C   UNL     1      35.826 -22.440 -16.672  0.00  0.00    -0.054 C 
ATOM     14  H   UNL     1      35.002 -20.994 -17.853  0.00  0.00    -0.078 HD
BRANCH   9  15
ATOM     15  C   UNL     1      36.525 -21.834 -18.896  0.00  0.00    +0.003 C 
BRANCH  15  16
ATOM     16  C   UNL     1      36.329 -20.746 -19.858  0.00  0.00    -0.101 C 
ATOM     17  C   UNL     1      36.169 -19.850 -20.642  0.00  0.00    -0.016 C 
ENDBRANCH  15  16
ENDBRANCH   9  15
ENDBRANCH   2   8
BRANCH   3  19
ATOM     18  O   UNL     1      34.731 -23.800 -12.052  0.00  0.00    -0.266 OA
ATOM     19  N   UNL     1      34.302 -24.884 -14.093  0.00  0.00    -0.277 N 
ATOM     20  C   UNL     1      35.086 -24.483 -13.007  0.00  0.00    +0.284 C 
ATOM     21  H   UNL     1      34.753 -25.435 -14.774  0.00  0.00    +0.155 HD
BRANCH  20  24
ATOM     22 BR   UNL     1      39.900 -25.220 -15.134  0.00  0.00    -0.008 Br
ATOM     23  O   UNL     1      37.237 -24.733 -14.131  0.00  0.00    -0.442 OA
ATOM     24  C   UNL     1      36.490 -24.974 -13.022  0.00  0.00    +0.199 C 
ATOM     25  C   UNL     1      37.225 -25.662 -12.085  0.00  0.00    +0.046 C 
ATOM     26  C   UNL     1      38.506 -25.857 -12.655  0.00  0.00    +0.048 C 
ATOM     27  C   UNL     1      38.462 -25.273 -13.901  0.00  0.00    +0.179 C 
ENDBRANCH  20  24
ENDBRANCH   3  19
TORSDOF 5
ENDMDL
MODEL 3
REMARK VINA RESULT:      -7.6      3.266      6.341
REMARK  Name = 44224261
REMARK  5 active torsions:
REMARK  status: ('A' for Active; 'I' for Inactive)
REMARK    1  A    between atoms: C_2  and  N_8
REMARK    2  A    between atoms: C_3  and  N_19
REMARK    3  A    between atoms: N_9  and  C_15
REMARK    4  A    between atoms: C_15  and  C_16
REMARK    5  A    between atoms: C_20  and  C_24
REMARK                            x       y       z     vdW  Elec       q    Type
REMARK                         _______ _______ _______ _____ _____    ______ ____
ROOT
ATOM      1 CL   UNL     1      38.662 -23.920 -15.376  0.00  0.00    -0.081 Cl
ATOM      2  C   UNL     1      36.012 -23.755 -14.738  0.00  0.00    +0.072 C 
ATOM      3  C   UNL     1      34.927 -23.969 -13.888  0.00  0.00    +0.065 C 
ATOM      4  C   UNL     1      37.289 -24.164 -14.357  0.00  0.00    +0.072 C 
ATOM      5  C   UNL     1      35.120 -24.591 -12.655  0.00  0.00    +0.016 C 
ATOM      6  C   UNL     1      37.482 -24.786 -13.123  0.00  0.00    +0.013 C 
ATOM      7  C   UNL     1      36.397 -25.001 -12.272  0.00  0.00    +0.002 C 
ENDROOT
BRANCH   2   8
ATOM      8  N   UNL     1      35.808 -23.131 -15.974  0.00  0.00    -0.310 N 
ATOM      9  N   UNL     1      35.236 -21.687 -18.372  0.00  0.00    +0.397 N 
ATOM     10  C   UNL     1      34.457 -23.163 -16.549  0.00  0.00    +0.068 C 
ATOM     11  C   UNL     1      36.629 -21.976 -16.350  0.00  0.00    +0.068 C 
ATOM     12  C   UNL     1      34.511 -22.925 -18.059  0.00  0.00    -0.054 C 
ATOM     13  C   UNL     1      36.612 -21.775 -17.867  0.00  0.00    -0.054 C 
ATOM     14  H   UNL     1      34.767 -20.906 -17.915  0.00  0.00    -0.078 HD
BRANCH   9  15
ATOM     15  C   UNL     1      35.234 -21.442 -19.814  0.00  0.00    +0.003 C 
BRANCH  15  16
ATOM     16  C   UNL     1      34.020 -20.728 -20.221  0.00  0.00    -0.101 C 
ATOM     17  C   UNL     1      33.021 -20.147 -20.550  0.00  0.00    -0.016 C 
ENDBRANCH  15  16
ENDBRANCH   9  15
ENDBRANCH   2   8
BRANCH   3  19
ATOM     18  O   UNL     1      32.340 -25.484 -13.825  0.00  0.00    -0.266 OA
ATOM     19  N   UNL     1      33.636 -23.568 -14.246  0.00  0.00    -0.277 N 
ATOM     20  C   UNL     1      32.458 -24.321 -14.197  0.00  0.00    +0.284 C 
ATOM     21  H   UNL     1      33.545 -22.644 -14.573  0.00  0.00    +0.155 HD
BRANCH  20  24
ATOM     22 BR   UNL     1      28.100 -23.577 -17.146  0.00  0.00    -0.008 Br
ATOM     23  O   UNL     1      30.500 -24.133 -15.640  0.00  0.00    -0.442 OA
ATOM     24  C   UNL     1      31.227 -23.603 -14.622  0.00  0.00    +0.199 C 
ATOM     25  C   UNL     1      30.645 -22.444 -14.165  0.00  0.00    +0.046 C 
ATOM     26  C   UNL     1      29.485 -22.249 -14.952  0.00  0.00    +0.048 C 
ATOM     27  C   UNL     1      29.442 -23.304 -15.835  0.00  0.00    +0.179 C 
ENDBRANCH  20  24
ENDBRANCH   3  19
TORSDOF 5
ENDMDL
MODEL 4
REMARK VINA RESULT:      -7.3      1.392      2.052
REMARK  Name = 44224261
REMARK  5 active torsions:
REMARK  status: ('A' for Active; 'I' for Inactive)
REMARK    1  A    between atoms: C_2  and  N_8
REMARK    2  A    between atoms: C_3  and  N_19
REMARK    3  A    between atoms: N_9  and  C_15
REMARK    4  A    between atoms: C_15  and  C_16
REMARK    5  A    between atoms: C_20  and  C_24
REMARK                            x       y       z     vdW  Elec       q    Type
REMARK                         _______ _______ _______ _____ _____    ______ ____
ROOT
ATOM      1 CL   UNL     1      31.564 -25.417 -13.178  0.00  0.00    -0.081 Cl
ATOM      2  C   UNL     1      31.714 -23.830 -15.395  0.00  0.00    +0.072 C 
ATOM      3  C   UNL     1      31.145 -23.149 -16.472  0.00  0.00    +0.065 C 
ATOM      4  C   UNL     1      30.905 -24.558 -14.524  0.00  0.00    +0.072 C 
ATOM      5  C   UNL     1      29.766 -23.195 -16.675  0.00  0.00    +0.016 C 
ATOM      6  C   UNL     1      29.525 -24.604 -14.727  0.00  0.00    +0.013 C 
ATOM      7  C   UNL     1      28.956 -23.923 -15.804  0.00  0.00    +0.002 C 
ENDROOT
BRANCH   2   8
ATOM      8  N   UNL     1      33.098 -23.779 -15.200  0.00  0.00    -0.310 N 
ATOM      9  N   UNL     1      35.878 -23.716 -14.546  0.00  0.00    +0.397 N 
ATOM     10  C   UNL     1      33.641 -22.675 -14.398  0.00  0.00    +0.068 C 
ATOM     11  C   UNL     1      33.876 -25.022 -15.176  0.00  0.00    +0.068 C 
ATOM     12  C   UNL     1      35.125 -22.466 -14.708  0.00  0.00    -0.054 C 
ATOM     13  C   UNL     1      35.353 -24.737 -15.460  0.00  0.00    -0.054 C 
ATOM     14  H   UNL     1      35.769 -24.044 -13.587  0.00  0.00    -0.078 HD
BRANCH   9  15
ATOM     15  C   UNL     1      37.303 -23.492 -14.792  0.00  0.00    +0.003 C 
BRANCH  15  16
ATOM     16  C   UNL     1      37.501 -22.567 -15.912  0.00  0.00    -0.101 C 
ATOM     17  C   UNL     1      37.660 -21.804 -16.826  0.00  0.00    -0.016 C 
ENDBRANCH  15  16
ENDBRANCH   9  15
ENDBRANCH   2   8
BRANCH   3  19
ATOM     18  O   UNL     1      33.349 -24.036 -18.300  0.00  0.00    -0.266 OA
ATOM     19  N   UNL     1      31.933 -22.412 -17.361  0.00  0.00    -0.277 N 
ATOM     20  C   UNL     1      32.955 -22.879 -18.194  0.00  0.00    +0.284 C 
ATOM     21  H   UNL     1      31.747 -21.446 -17.404  0.00  0.00    +0.155 HD
BRANCH  20  24
ATOM     22 BR   UNL     1      37.066 -20.224 -20.263  0.00  0.00    -0.008 Br
ATOM     23  O   UNL     1      34.952 -21.767 -19.045  0.00  0.00    -0.442 OA
ATOM     24  C   UNL     1      33.596 -21.848 -19.052  0.00  0.00    +0.199 C 
ATOM     25  C   UNL     1      33.060 -20.906 -19.899  0.00  0.00    +0.046 C 
ATOM     26  C   UNL     1      34.158 -20.201 -20.448  0.00  0.00    +0.048 C 
ATOM     27  C   UNL     1      35.286 -20.763 -19.897  0.00  0.00    +0.179 C 
ENDBRANCH  20  24
ENDBRANCH   3  19
TORSDOF 5
ENDMDL
MODEL 5
REMARK VINA RESULT:      -7.0      3.436      6.760
REMARK  Name = 44224261
REMARK  5 active torsions:
REMARK  status: ('A' for Active; 'I' for Inactive)
REMARK    1  A    between atoms: C_2  and  N_8
REMARK    2  A    between atoms: C_3  and  N_19
REMARK    3  A    between atoms: N_9  and  C_15
REMARK    4  A    between atoms: C_15  and  C_16
REMARK    5  A    between atoms: C_20  and  C_24
REMARK                            x       y       z     vdW  Elec       q    Type
REMARK                         _______ _______ _______ _____ _____    ______ ____
ROOT
ATOM      1 CL   UNL     1      37.838 -22.349 -16.660  0.00  0.00    -0.081 Cl
ATOM      2  C   UNL     1      35.462 -23.319 -15.726  0.00  0.00    +0.072 C 
ATOM      3  C   UNL     1      34.684 -23.992 -14.783  0.00  0.00    +0.065 C 
ATOM      4  C   UNL     1      36.834 -23.174 -15.522  0.00  0.00    +0.072 C 
ATOM      5  C   UNL     1      35.277 -24.518 -13.636  0.00  0.00    +0.016 C 
ATOM      6  C   UNL     1      37.428 -23.700 -14.374  0.00  0.00    +0.013 C 
ATOM      7  C   UNL     1      36.650 -24.373 -13.432  0.00  0.00    +0.002 C 
ENDROOT
BRANCH   2   8
ATOM      8  N   UNL     1      34.858 -22.796 -16.874  0.00  0.00    -0.310 N 
ATOM      9  N   UNL     1      33.731 -21.926 -19.351  0.00  0.00    +0.397 N 
ATOM     10  C   UNL     1      35.729 -22.289 -17.942  0.00  0.00    +0.068 C 
ATOM     11  C   UNL     1      33.556 -23.309 -17.309  0.00  0.00    +0.068 C 
ATOM     12  C   UNL     1      34.965 -21.315 -18.841  0.00  0.00    -0.054 C 
ATOM     13  C   UNL     1      32.862 -22.303 -18.230  0.00  0.00    -0.054 C 
ATOM     14  H   UNL     1      33.973 -22.766 -19.877  0.00  0.00    -0.078 HD
BRANCH   9  15
ATOM     15  C   UNL     1      33.037 -21.006 -20.252  0.00  0.00    +0.003 C 
BRANCH  15  16
ATOM     16  C   UNL     1      33.955 -19.985 -20.766  0.00  0.00    -0.101 C 
ATOM     17  C   UNL     1      34.707 -19.152 -21.193  0.00  0.00    -0.016 C 
ENDBRANCH  15  16
ENDBRANCH   9  15
ENDBRANCH   2   8
BRANCH   3  19
ATOM     18  O   UNL     1      32.407 -23.422 -12.918  0.00  0.00    -0.266 OA
ATOM     19  N   UNL     1      33.306 -24.152 -14.963  0.00  0.00    -0.277 N 
ATOM     20  C   UNL     1      32.282 -23.869 -14.053  0.00  0.00    +0.284 C 
ATOM     21  H   UNL     1      33.023 -24.507 -15.837  0.00  0.00    +0.155 HD
BRANCH  20  24
ATOM     22 BR   UNL     1      27.626 -22.500 -16.216  0.00  0.00    -0.008 Br
ATOM     23  O   UNL     1      30.208 -23.070 -15.058  0.00  0.00    -0.442 OA
ATOM     24  C   UNL     1      30.904 -24.121 -14.550  0.00  0.00    +0.199 C 
ATOM     25  C   UNL     1      30.149 -25.269 -14.601  0.00  0.00    +0.046 C 
ATOM     26  C   UNL     1      28.909 -24.901 -15.177  0.00  0.00    +0.048 C 
ATOM     27  C   UNL     1      28.996 -23.552 -15.437  0.00  0.00    +0.179 C 
ENDBRANCH  20  24
ENDBRANCH   3  19
TORSDOF 5
ENDMDL
MODEL 6
REMARK VINA RESULT:      -6.9      3.382      5.873
REMARK  Name = 44224261
REMARK  5 active torsions:
REMARK  status: ('A' for Active; 'I' for Inactive)
REMARK    1  A    between atoms: C_2  and  N_8
REMARK    2  A    between atoms: C_3  and  N_19
REMARK    3  A    between atoms: N_9  and  C_15
REMARK    4  A    between atoms: C_15  and  C_16
REMARK    5  A    between atoms: C_20  and  C_24
REMARK                            x       y       z     vdW  Elec       q    Type
REMARK                         _______ _______ _______ _____ _____    ______ ____
ROOT
ATOM      1 CL   UNL     1      31.037 -22.656 -16.882  0.00  0.00    -0.081 Cl
ATOM      2  C   UNL     1      33.303 -23.572 -15.664  0.00  0.00    +0.072 C 
ATOM      3  C   UNL     1      33.977 -24.228 -14.633  0.00  0.00    +0.065 C 
ATOM      4  C   UNL     1      31.914 -23.459 -15.628  0.00  0.00    +0.072 C 
ATOM      5  C   UNL     1      33.260 -24.772 -13.567  0.00  0.00    +0.016 C 
ATOM      6  C   UNL     1      31.197 -24.003 -14.562  0.00  0.00    +0.013 C 
ATOM      7  C   UNL     1      31.870 -24.659 -13.531  0.00  0.00    +0.002 C 
ENDROOT
BRANCH   2   8
ATOM      8  N   UNL     1      34.031 -23.028 -16.728  0.00  0.00    -0.310 N 
ATOM      9  N   UNL     1      35.667 -22.134 -18.892  0.00  0.00    +0.397 N 
ATOM     10  C   UNL     1      35.432 -22.661 -16.489  0.00  0.00    +0.068 C 
ATOM     11  C   UNL     1      33.703 -23.412 -18.104  0.00  0.00    +0.068 C 
ATOM     12  C   UNL     1      35.905 -21.642 -17.529  0.00  0.00    -0.054 C 
ATOM     13  C   UNL     1      34.232 -22.370 -19.093  0.00  0.00    -0.054 C 
ATOM     14  H   UNL     1      36.167 -23.014 -19.018  0.00  0.00    -0.078 HD
BRANCH   9  15
ATOM     15  C   UNL     1      36.172 -21.177 -19.877  0.00  0.00    +0.003 C 
BRANCH  15  16
ATOM     16  C   UNL     1      35.082 -20.360 -20.419  0.00  0.00    -0.101 C 
ATOM     17  C   UNL     1      34.192 -19.692 -20.870  0.00  0.00    -0.016 C 
ENDBRANCH  15  16
ENDBRANCH   9  15
ENDBRANCH   2   8
BRANCH   3  19
ATOM     18  O   UNL     1      35.705 -26.534 -15.459  0.00  0.00    -0.266 OA
ATOM     19  N   UNL     1      35.369 -24.355 -14.644  0.00  0.00    -0.277 N 
ATOM     20  C   UNL     1      36.128 -25.461 -15.041  0.00  0.00    +0.284 C 
ATOM     21  H   UNL     1      35.877 -23.571 -14.333  0.00  0.00    +0.155 HD
BRANCH  20  24
ATOM     22 BR   UNL     1      41.104 -26.962 -13.937  0.00  0.00    -0.008 Br
ATOM     23  O   UNL     1      38.344 -26.310 -14.477  0.00  0.00    -0.442 OA
ATOM     24  C   UNL     1      37.602 -25.281 -14.963  0.00  0.00    +0.199 C 
ATOM     25  C   UNL     1      38.409 -24.221 -15.304  0.00  0.00    +0.046 C 
ATOM     26  C   UNL     1      39.734 -24.624 -15.009  0.00  0.00    +0.048 C 
ATOM     27  C   UNL     1      39.640 -25.903 -14.508  0.00  0.00    +0.179 C 
ENDBRANCH  20  24
ENDBRANCH   3  19
TORSDOF 5
ENDMDL
MODEL 7
REMARK VINA RESULT:      -6.7     13.431     16.099
REMARK  Name = 44224261
REMARK  5 active torsions:
REMARK  status: ('A' for Active; 'I' for Inactive)
REMARK    1  A    between atoms: C_2  and  N_8
REMARK    2  A    between atoms: C_3  and  N_19
REMARK    3  A    between atoms: N_9  and  C_15
REMARK    4  A    between atoms: C_15  and  C_16
REMARK    5  A    between atoms: C_20  and  C_24
REMARK                            x       y       z     vdW  Elec       q    Type
REMARK                         _______ _______ _______ _____ _____    ______ ____
ROOT
ATOM      1 CL   UNL     1      32.190  -6.904 -19.787  0.00  0.00    -0.081 Cl
ATOM      2  C   UNL     1      32.241  -9.177 -21.300  0.00  0.00    +0.072 C 
ATOM      3  C   UNL     1      32.032 -10.543 -21.490  0.00  0.00    +0.065 C 
ATOM      4  C   UNL     1      31.948  -8.591 -20.069  0.00  0.00    +0.072 C 
ATOM      5  C   UNL     1      31.528 -11.323 -20.449  0.00  0.00    +0.016 C 
ATOM      6  C   UNL     1      31.443  -9.370 -19.028  0.00  0.00    +0.013 C 
ATOM      7  C   UNL     1      31.234 -10.737 -19.218  0.00  0.00    +0.002 C 
ENDROOT
BRANCH   2   8
ATOM      8  N   UNL     1      32.749  -8.403 -22.349  0.00  0.00    -0.310 N 
ATOM      9  N   UNL     1      33.736  -6.613 -24.344  0.00  0.00    +0.397 N 
ATOM     10  C   UNL     1      31.828  -7.494 -23.044  0.00  0.00    +0.068 C 
ATOM     11  C   UNL     1      34.155  -7.991 -22.335  0.00  0.00    +0.068 C 
ATOM     12  C   UNL     1      32.368  -7.140 -24.431  0.00  0.00    -0.054 C 
ATOM     13  C   UNL     1      34.621  -7.619 -23.745  0.00  0.00    -0.054 C 
ATOM     14  H   UNL     1      33.732  -5.783 -23.752  0.00  0.00    -0.078 HD
BRANCH   9  15
ATOM     15  C   UNL     1      34.222  -6.227 -25.669  0.00  0.00    +0.003 C 
BRANCH  15  16
ATOM     16  C   UNL     1      33.401  -5.152 -26.234  0.00  0.00    -0.101 C 
ATOM     17  C   UNL     1      32.726  -4.270 -26.691  0.00  0.00    -0.016 C 
ENDBRANCH  15  16
ENDBRANCH   9  15
ENDBRANCH   2   8
BRANCH   3  19
ATOM     18  O   UNL     1      33.610 -13.020 -22.094  0.00  0.00    -0.266 OA
ATOM     19  N   UNL     1      32.318 -11.157 -22.714  0.00  0.00    -0.277 N 
ATOM     20  C   UNL     1      33.065 -12.318 -22.939  0.00  0.00    +0.284 C 
ATOM     21  H   UNL     1      31.950 -10.716 -23.514  0.00  0.00    +0.155 HD
BRANCH  20  24
ATOM     22 BR   UNL     1      32.571 -15.709 -27.000  0.00  0.00    -0.008 Br
ATOM     23  O   UNL     1      32.772 -13.997 -24.685  0.00  0.00    -0.442 OA
ATOM     24  C   UNL     1      33.170 -12.739 -24.361  0.00  0.00    +0.199 C 
ATOM     25  C   UNL     1      33.616 -12.071 -25.478  0.00  0.00    +0.046 C 
ATOM     26  C   UNL     1      33.483 -12.977 -26.558  0.00  0.00    +0.048 C 
ATOM     27  C   UNL     1      32.966 -14.135 -26.022  0.00  0.00    +0.179 C 
ENDBRANCH  20  24
ENDBRANCH   3  19
TORSDOF 5
ENDMDL
MODEL 8
REMARK VINA RESULT:      -6.6     10.082     13.138
REMARK  Name = 44224261
REMARK  5 active torsions:
REMARK  status: ('A' for Active; 'I' for Inactive)
REMARK    1  A    between atoms: C_2  and  N_8
REMARK    2  A    between atoms: C_3  and  N_19
REMARK    3  A    between atoms: N_9  and  C_15
REMARK    4  A    between atoms: C_15  and  C_16
REMARK    5  A    between atoms: C_20  and  C_24
REMARK                            x       y       z     vdW  Elec       q    Type
REMARK                         _______ _______ _______ _____ _____    ______ ____
ROOT
ATOM      1 CL   UNL     1      31.917 -16.299 -20.315  0.00  0.00    -0.081 Cl
ATOM      2  C   UNL     1      33.331 -14.707 -22.025  0.00  0.00    +0.072 C 
ATOM      3  C   UNL     1      34.276 -14.501 -23.030  0.00  0.00    +0.065 C 
ATOM      4  C   UNL     1      33.079 -15.996 -21.557  0.00  0.00    +0.072 C 
ATOM      5  C   UNL     1      34.969 -15.586 -23.568  0.00  0.00    +0.016 C 
ATOM      6  C   UNL     1      33.772 -17.081 -22.095  0.00  0.00    +0.013 C 
ATOM      7  C   UNL     1      34.717 -16.876 -23.100  0.00  0.00    +0.002 C 
ENDROOT
BRANCH   2   8
ATOM      8  N   UNL     1      32.642 -13.612 -21.490  0.00  0.00    -0.310 N 
ATOM      9  N   UNL     1      31.016 -11.522 -20.420  0.00  0.00    +0.397 N 
ATOM     10  C   UNL     1      31.662 -12.930 -22.345  0.00  0.00    +0.068 C 
ATOM     11  C   UNL     1      32.376 -13.553 -20.050  0.00  0.00    +0.068 C 
ATOM     12  C   UNL     1      31.402 -11.511 -21.836  0.00  0.00    -0.054 C 
ATOM     13  C   UNL     1      32.092 -12.114 -19.615  0.00  0.00    -0.054 C 
ATOM     14  H   UNL     1      30.174 -12.087 -20.312  0.00  0.00    -0.078 HD
BRANCH   9  15
ATOM     15  C   UNL     1      30.718 -10.166 -19.959  0.00  0.00    +0.003 C 
BRANCH  15  16
ATOM     16  C   UNL     1      31.814  -9.249 -20.286  0.00  0.00    -0.101 C 
ATOM     17  C   UNL     1      32.707  -8.493 -20.556  0.00  0.00    -0.016 C 
ENDBRANCH  15  16
ENDBRANCH   9  15
ENDBRANCH   2   8
BRANCH   3  19
ATOM     18  O   UNL     1      33.277 -13.112 -25.491  0.00  0.00    -0.266 OA
ATOM     19  N   UNL     1      34.548 -13.219 -23.517  0.00  0.00    -0.277 N 
ATOM     20  C   UNL     1      34.052 -12.618 -24.679  0.00  0.00    +0.284 C 
ATOM     21  H   UNL     1      35.164 -12.673 -22.976  0.00  0.00    +0.155 HD
BRANCH  20  24
ATOM     22 BR   UNL     1      34.651  -7.482 -23.456  0.00  0.00    -0.008 Br
ATOM     23  O   UNL     1      34.239 -10.294 -23.961  0.00  0.00    -0.442 OA
ATOM     24  C   UNL     1      34.507 -11.223 -24.916  0.00  0.00    +0.199 C 
ATOM     25  C   UNL     1      35.184 -10.652 -25.969  0.00  0.00    +0.046 C 
ATOM     26  C   UNL     1      35.341  -9.284 -25.640  0.00  0.00    +0.048 C 
ATOM     27  C   UNL     1      34.749  -9.117 -24.409  0.00  0.00    +0.179 C 
ENDBRANCH  20  24
ENDBRANCH   3  19
TORSDOF 5
ENDMDL
MODEL 9
REMARK VINA RESULT:      -6.4      8.822     11.326
REMARK  Name = 44224261
REMARK  5 active torsions:
REMARK  status: ('A' for Active; 'I' for Inactive)
REMARK    1  A    between atoms: C_2  and  N_8
REMARK    2  A    between atoms: C_3  and  N_19
REMARK    3  A    between atoms: N_9  and  C_15
REMARK    4  A    between atoms: C_15  and  C_16
REMARK    5  A    between atoms: C_20  and  C_24
REMARK                            x       y       z     vdW  Elec       q    Type
REMARK                         _______ _______ _______ _____ _____    ______ ____
ROOT
ATOM      1 CL   UNL     1      34.066 -19.096 -20.654  0.00  0.00    -0.081 Cl
ATOM      2  C   UNL     1      34.226 -17.475 -22.846  0.00  0.00    +0.072 C 
ATOM      3  C   UNL     1      34.491 -17.239 -24.195  0.00  0.00    +0.065 C 
ATOM      4  C   UNL     1      34.382 -18.756 -22.318  0.00  0.00    +0.072 C 
ATOM      5  C   UNL     1      34.909 -18.285 -25.017  0.00  0.00    +0.016 C 
ATOM      6  C   UNL     1      34.800 -19.803 -23.140  0.00  0.00    +0.013 C 
ATOM      7  C   UNL     1      35.064 -19.567 -24.490  0.00  0.00    +0.002 C 
ENDROOT
BRANCH   2   8
ATOM      8  N   UNL     1      33.808 -16.418 -22.029  0.00  0.00    -0.310 N 
ATOM      9  N   UNL     1      32.999 -14.419 -20.156  0.00  0.00    +0.397 N 
ATOM     10  C   UNL     1      32.578 -16.597 -21.247  0.00  0.00    +0.068 C 
ATOM     11  C   UNL     1      34.802 -15.511 -21.448  0.00  0.00    +0.068 C 
ATOM     12  C   UNL     1      31.996 -15.239 -20.847  0.00  0.00    -0.054 C 
ATOM     13  C   UNL     1      34.148 -14.188 -21.040  0.00  0.00    -0.054 C 
ATOM     14  H   UNL     1      33.317 -14.918 -19.325  0.00  0.00    -0.078 HD
BRANCH   9  15
ATOM     15  C   UNL     1      32.416 -13.147 -19.730  0.00  0.00    +0.003 C 
BRANCH  15  16
ATOM     16  C   UNL     1      31.926 -12.384 -20.882  0.00  0.00    -0.101 C 
ATOM     17  C   UNL     1      31.523 -11.754 -21.821  0.00  0.00    -0.016 C 
ENDBRANCH  15  16
ENDBRANCH   9  15
ENDBRANCH   2   8
BRANCH   3  19
ATOM     18  O   UNL     1      32.703 -16.281 -26.403  0.00  0.00    -0.266 OA
ATOM     19  N   UNL     1      34.343 -15.963 -24.750  0.00  0.00    -0.277 N 
ATOM     20  C   UNL     1      33.489 -15.570 -25.786  0.00  0.00    +0.284 C 
ATOM     21  H   UNL     1      34.910 -15.256 -24.364  0.00  0.00    +0.155 HD
BRANCH  20  24
ATOM     22 BR   UNL     1      34.062 -10.388 -24.760  0.00  0.00    -0.008 Br
ATOM     23  O   UNL     1      33.778 -13.236 -25.140  0.00  0.00    -0.442 OA
ATOM     24  C   UNL     1      33.541 -14.127 -26.138  0.00  0.00    +0.199 C 
ATOM     25  C   UNL     1      33.387 -13.476 -27.340  0.00  0.00    +0.046 C 
ATOM     26  C   UNL     1      33.539 -12.096 -27.063  0.00  0.00    +0.048 C 
ATOM     27  C   UNL     1      33.776 -12.003 -25.710  0.00  0.00    +0.179 C 
ENDBRANCH  20  24
ENDBRANCH   3  19
TORSDOF 5
ENDMDL
