MODEL 1
REMARK VINA RESULT:      -7.9      0.000      0.000
REMARK  Name = 5289343
REMARK  13 active torsions:
REMARK  status: ('A' for Active; 'I' for Inactive)
REMARK    1  A    between atoms: C_3  and  C_10
REMARK    2  A    between atoms: C_7  and  C_22
REMARK    3  A    between atoms: N_9  and  C_12
REMARK    4  A    between atoms: C_12  and  C_15
REMARK    5  A    between atoms: C_12  and  C_18
REMARK    6  A    between atoms: C_18  and  C_19
REMARK    7  A    between atoms: C_19  and  S_20
REMARK    8  A    between atoms: C_22  and  N_24
REMARK    9  A    between atoms: C_22  and  C_30
REMARK   10  A    between atoms: C_25  and  C_27
REMARK   11  A    between atoms: C_27  and  S_28
REMARK   12  A    between atoms: C_30  and  C_31
REMARK   13  A    between atoms: C_36  and  O_37
REMARK                            x       y       z     vdW  Elec       q    Type
REMARK                         _______ _______ _______ _____ _____    ______ ____
ROOT
ATOM      1  O   UNL     1      32.512 -19.850 -21.259  0.00  0.00    -0.273 OA
ATOM      2  N   UNL     1      34.582 -20.410 -20.388  0.00  0.00    -0.272 N 
ATOM      3  C   UNL     1      34.279 -21.809 -20.124  0.00  0.00    +0.152 C 
ATOM      4  C   UNL     1      35.636 -22.462 -19.886  0.00  0.00    +0.031 C 
ATOM      5  C   UNL     1      36.481 -21.325 -19.319  0.00  0.00    +0.024 C 
ATOM      6  C   UNL     1      35.975 -20.103 -20.072  0.00  0.00    +0.094 C 
ATOM      7  C   UNL     1      33.682 -19.557 -21.008  0.00  0.00    +0.244 C 
ENDROOT
BRANCH   3  10
ATOM      8  O   UNL     1      32.394 -21.180 -18.802  0.00  0.00    -0.273 OA
ATOM      9  N   UNL     1      33.929 -22.695 -17.926  0.00  0.00    -0.297 N 
ATOM     10  C   UNL     1      33.418 -21.851 -18.898  0.00  0.00    +0.241 C 
ATOM     11  H   UNL     1      34.762 -23.183 -18.120  0.00  0.00    +0.150 HD
BRANCH   9  12
ATOM     12  C   UNL     1      33.299 -22.894 -16.641  0.00  0.00    +0.149 C 
BRANCH  12  15
ATOM     13  O   UNL     1      35.200 -24.298 -16.076  0.00  0.00    -0.274 OA
ATOM     14  N   UNL     1      34.120 -23.185 -14.383  0.00  0.00    -0.327 N 
ATOM     15  C   UNL     1      34.302 -23.548 -15.700  0.00  0.00    +0.237 C 
ATOM     16  H   UNL     1      34.713 -23.548 -13.686  0.00  0.00    +0.145 HD
ATOM     17  H   UNL     1      33.398 -22.562 -14.140  0.00  0.00    +0.145 HD
ENDBRANCH  12  15
BRANCH  12  18
ATOM     18  C   UNL     1      31.989 -23.684 -16.758  0.00  0.00    +0.041 C 
BRANCH  18  19
ATOM     19  C   UNL     1      30.793 -22.990 -16.102  0.00  0.00    +0.060 C 
BRANCH  19  20
ATOM     20  S   UNL     1      29.510 -24.203 -15.672  0.00  0.00    -0.139 S 
ATOM     21  C   UNL     1      28.273 -23.722 -16.899  0.00  0.00    +0.069 C 
ENDBRANCH  19  20
ENDBRANCH  18  19
ENDBRANCH  12  18
ENDBRANCH   9  12
ENDBRANCH   3  10
BRANCH   7  22
ATOM     22  C   UNL     1      34.219 -18.193 -21.364  0.00  0.00    +0.153 C 
BRANCH  22  24
ATOM     23  O   UNL     1      36.161 -18.684 -23.453  0.00  0.00    -0.274 OA
ATOM     24  N   UNL     1      34.010 -18.109 -22.781  0.00  0.00    -0.297 N 
ATOM     25  C   UNL     1      35.004 -18.364 -23.720  0.00  0.00    +0.233 C 
ATOM     26  H   UNL     1      33.115 -17.860 -23.106  0.00  0.00    +0.150 HD
BRANCH  25  27
ATOM     27  C   UNL     1      34.537 -18.190 -25.147  0.00  0.00    +0.138 C 
BRANCH  27  28
ATOM     28  S   UNL     1      34.074 -16.462 -25.407  0.00  0.00    -0.159 S 
ATOM     29  H   UNL     1      33.588 -15.943 -24.247  0.00  0.00    +0.103 HD
ENDBRANCH  27  28
ENDBRANCH  25  27
ENDBRANCH  22  24
BRANCH  22  30
ATOM     30  C   UNL     1      33.480 -17.116 -20.582  0.00  0.00    +0.055 C 
BRANCH  30  31
ATOM     31  C   UNL     1      33.440 -15.802 -21.322  0.00  0.00    -0.020 C 
ATOM     32  C   UNL     1      34.588 -15.324 -21.956  0.00  0.00    -0.001 C 
ATOM     33  C   UNL     1      32.258 -15.064 -21.372  0.00  0.00    -0.001 C 
ATOM     34  C   UNL     1      34.552 -14.109 -22.639  0.00  0.00    +0.036 C 
ATOM     35  C   UNL     1      32.222 -13.848 -22.056  0.00  0.00    +0.036 C 
ATOM     36  C   UNL     1      33.369 -13.371 -22.690  0.00  0.00    +0.134 C 
BRANCH  36  37
ATOM     37  O   UNL     1      33.334 -12.186 -23.357  0.00  0.00    -0.506 OA
ATOM     38  H   UNL     1      33.289 -11.381 -22.881  0.00  0.00    +0.292 HD
ENDBRANCH  36  37
ENDBRANCH  30  31
ENDBRANCH  22  30
ENDBRANCH   7  22
TORSDOF 13
ENDMDL
MODEL 2
REMARK VINA RESULT:      -7.7      5.407     10.833
REMARK  Name = 5289343
REMARK  13 active torsions:
REMARK  status: ('A' for Active; 'I' for Inactive)
REMARK    1  A    between atoms: C_3  and  C_10
REMARK    2  A    between atoms: C_7  and  C_22
REMARK    3  A    between atoms: N_9  and  C_12
REMARK    4  A    between atoms: C_12  and  C_15
REMARK    5  A    between atoms: C_12  and  C_18
REMARK    6  A    between atoms: C_18  and  C_19
REMARK    7  A    between atoms: C_19  and  S_20
REMARK    8  A    between atoms: C_22  and  N_24
REMARK    9  A    between atoms: C_22  and  C_30
REMARK   10  A    between atoms: C_25  and  C_27
REMARK   11  A    between atoms: C_27  and  S_28
REMARK   12  A    between atoms: C_30  and  C_31
REMARK   13  A    between atoms: C_36  and  O_37
REMARK                            x       y       z     vdW  Elec       q    Type
REMARK                         _______ _______ _______ _____ _____    ______ ____
ROOT
ATOM      1  O   UNL     1      31.993 -13.104 -23.862  0.00  0.00    -0.273 OA
ATOM      2  N   UNL     1      31.913 -12.319 -21.686  0.00  0.00    -0.272 N 
ATOM      3  C   UNL     1      30.789 -11.412 -21.877  0.00  0.00    +0.152 C 
ATOM      4  C   UNL     1      30.330 -11.061 -20.467  0.00  0.00    +0.031 C 
ATOM      5  C   UNL     1      31.608 -11.176 -19.639  0.00  0.00    +0.024 C 
ATOM      6  C   UNL     1      32.342 -12.339 -20.290  0.00  0.00    +0.094 C 
ATOM      7  C   UNL     1      32.378 -13.150 -22.693  0.00  0.00    +0.244 C 
ENDROOT
BRANCH   3  10
ATOM      8  O   UNL     1      30.580  -9.265 -22.898  0.00  0.00    -0.273 OA
ATOM      9  N   UNL     1      32.652 -10.327 -22.919  0.00  0.00    -0.297 N 
ATOM     10  C   UNL     1      31.308 -10.212 -22.609  0.00  0.00    +0.241 C 
ATOM     11  H   UNL     1      33.132 -11.137 -22.632  0.00  0.00    +0.150 HD
BRANCH   9  12
ATOM     12  C   UNL     1      33.386  -9.314 -23.643  0.00  0.00    +0.149 C 
BRANCH  12  15
ATOM     13  O   UNL     1      35.703  -9.564 -24.330  0.00  0.00    -0.274 OA
ATOM     14  N   UNL     1      34.173 -11.115 -25.056  0.00  0.00    -0.327 N 
ATOM     15  C   UNL     1      34.547  -9.978 -24.371  0.00  0.00    +0.237 C 
ATOM     16  H   UNL     1      34.844 -11.626 -25.564  0.00  0.00    +0.145 HD
ATOM     17  H   UNL     1      33.236 -11.414 -25.036  0.00  0.00    +0.145 HD
ENDBRANCH  12  15
BRANCH  12  18
ATOM     18  C   UNL     1      33.833  -8.164 -22.731  0.00  0.00    +0.041 C 
BRANCH  18  19
ATOM     19  C   UNL     1      33.100  -6.847 -22.999  0.00  0.00    +0.060 C 
BRANCH  19  20
ATOM     20  S   UNL     1      32.086  -6.380 -21.565  0.00  0.00    -0.139 S 
ATOM     21  C   UNL     1      32.711  -7.605 -20.393  0.00  0.00    +0.069 C 
ENDBRANCH  19  20
ENDBRANCH  18  19
ENDBRANCH  12  18
ENDBRANCH   9  12
ENDBRANCH   3  10
BRANCH   7  22
ATOM     22  C   UNL     1      33.430 -14.148 -22.277  0.00  0.00    +0.153 C 
BRANCH  22  24
ATOM     23  O   UNL     1      33.513 -15.701 -19.836  0.00  0.00    -0.274 OA
ATOM     24  N   UNL     1      32.672 -15.327 -21.972  0.00  0.00    -0.297 N 
ATOM     25  C   UNL     1      32.773 -16.015 -20.766  0.00  0.00    +0.233 C 
ATOM     26  H   UNL     1      32.046 -15.667 -22.651  0.00  0.00    +0.150 HD
BRANCH  25  27
ATOM     27  C   UNL     1      31.885 -17.235 -20.699  0.00  0.00    +0.138 C 
BRANCH  27  28
ATOM     28  S   UNL     1      32.908 -18.717 -20.852  0.00  0.00    -0.159 S 
ATOM     29  H   UNL     1      34.220 -18.378 -20.729  0.00  0.00    +0.103 HD
ENDBRANCH  27  28
ENDBRANCH  25  27
ENDBRANCH  22  24
BRANCH  22  30
ATOM     30  C   UNL     1      34.435 -14.352 -23.402  0.00  0.00    +0.055 C 
BRANCH  30  31
ATOM     31  C   UNL     1      34.589 -15.807 -23.770  0.00  0.00    -0.020 C 
ATOM     32  C   UNL     1      33.984 -16.301 -24.927  0.00  0.00    -0.001 C 
ATOM     33  C   UNL     1      35.333 -16.659 -22.954  0.00  0.00    -0.001 C 
ATOM     34  C   UNL     1      34.126 -17.646 -25.267  0.00  0.00    +0.036 C 
ATOM     35  C   UNL     1      35.474 -18.005 -23.295  0.00  0.00    +0.036 C 
ATOM     36  C   UNL     1      34.871 -18.498 -24.452  0.00  0.00    +0.134 C 
BRANCH  36  37
ATOM     37  O   UNL     1      35.008 -19.810 -24.784  0.00  0.00    -0.506 OA
ATOM     38  H   UNL     1      34.443 -20.193 -25.424  0.00  0.00    +0.292 HD
ENDBRANCH  36  37
ENDBRANCH  30  31
ENDBRANCH  22  30
ENDBRANCH   7  22
TORSDOF 13
ENDMDL
MODEL 3
REMARK VINA RESULT:      -7.6      4.629      8.184
REMARK  Name = 5289343
REMARK  13 active torsions:
REMARK  status: ('A' for Active; 'I' for Inactive)
REMARK    1  A    between atoms: C_3  and  C_10
REMARK    2  A    between atoms: C_7  and  C_22
REMARK    3  A    between atoms: N_9  and  C_12
REMARK    4  A    between atoms: C_12  and  C_15
REMARK    5  A    between atoms: C_12  and  C_18
REMARK    6  A    between atoms: C_18  and  C_19
REMARK    7  A    between atoms: C_19  and  S_20
REMARK    8  A    between atoms: C_22  and  N_24
REMARK    9  A    between atoms: C_22  and  C_30
REMARK   10  A    between atoms: C_25  and  C_27
REMARK   11  A    between atoms: C_27  and  S_28
REMARK   12  A    between atoms: C_30  and  C_31
REMARK   13  A    between atoms: C_36  and  O_37
REMARK                            x       y       z     vdW  Elec       q    Type
REMARK                         _______ _______ _______ _____ _____    ______ ____
ROOT
ATOM      1  O   UNL     1      34.352 -12.751 -23.952  0.00  0.00    -0.273 OA
ATOM      2  N   UNL     1      33.449 -13.755 -22.072  0.00  0.00    -0.272 N 
ATOM      3  C   UNL     1      34.507 -14.738 -21.884  0.00  0.00    +0.152 C 
ATOM      4  C   UNL     1      34.294 -15.270 -20.471  0.00  0.00    +0.031 C 
ATOM      5  C   UNL     1      32.790 -15.120 -20.259  0.00  0.00    +0.024 C 
ATOM      6  C   UNL     1      32.458 -13.835 -21.002  0.00  0.00    +0.094 C 
ATOM      7  C   UNL     1      33.500 -12.787 -23.063  0.00  0.00    +0.244 C 
ENDROOT
BRANCH   3  10
ATOM      8  O   UNL     1      33.317 -15.830 -23.641  0.00  0.00    -0.273 OA
ATOM      9  N   UNL     1      35.340 -16.729 -22.921  0.00  0.00    -0.297 N 
ATOM     10  C   UNL     1      34.309 -15.806 -22.917  0.00  0.00    +0.241 C 
ATOM     11  H   UNL     1      36.085 -16.603 -22.291  0.00  0.00    +0.150 HD
BRANCH   9  12
ATOM     12  C   UNL     1      35.376 -17.870 -23.808  0.00  0.00    +0.149 C 
BRANCH  12  15
ATOM     13  O   UNL     1      35.215 -16.619 -25.885  0.00  0.00    -0.274 OA
ATOM     14  N   UNL     1      33.617 -18.207 -25.436  0.00  0.00    -0.327 N 
ATOM     15  C   UNL     1      34.748 -17.477 -25.138  0.00  0.00    +0.237 C 
ATOM     16  H   UNL     1      33.128 -18.037 -26.274  0.00  0.00    +0.145 HD
ATOM     17  H   UNL     1      33.300 -18.899 -24.811  0.00  0.00    +0.145 HD
ENDBRANCH  12  15
BRANCH  12  18
ATOM     18  C   UNL     1      34.720 -19.108 -23.182  0.00  0.00    +0.041 C 
BRANCH  18  19
ATOM     19  C   UNL     1      34.920 -19.210 -21.668  0.00  0.00    +0.060 C 
BRANCH  19  20
ATOM     20  S   UNL     1      33.385 -19.751 -20.859  0.00  0.00    -0.139 S 
ATOM     21  C   UNL     1      34.081 -21.066 -19.833  0.00  0.00    +0.069 C 
ENDBRANCH  19  20
ENDBRANCH  18  19
ENDBRANCH  12  18
ENDBRANCH   9  12
ENDBRANCH   3  10
BRANCH   7  22
ATOM     22  C   UNL     1      32.413 -11.743 -23.008  0.00  0.00    +0.153 C 
BRANCH  22  24
ATOM     23  O   UNL     1      30.307 -11.281 -21.077  0.00  0.00    -0.274 OA
ATOM     24  N   UNL     1      32.548 -11.187 -21.692  0.00  0.00    -0.297 N 
ATOM     25  C   UNL     1      31.477 -11.000 -20.824  0.00  0.00    +0.233 C 
ATOM     26  H   UNL     1      33.446 -10.927 -21.386  0.00  0.00    +0.150 HD
BRANCH  25  27
ATOM     27  C   UNL     1      31.878 -10.381 -19.505  0.00  0.00    +0.138 C 
BRANCH  27  28
ATOM     28  S   UNL     1      32.025  -8.592 -19.715  0.00  0.00    -0.159 S 
ATOM     29  H   UNL     1      32.797  -8.080 -18.719  0.00  0.00    +0.103 HD
ENDBRANCH  27  28
ENDBRANCH  25  27
ENDBRANCH  22  24
BRANCH  22  30
ATOM     30  C   UNL     1      32.611 -10.719 -24.117  0.00  0.00    +0.055 C 
BRANCH  30  31
ATOM     31  C   UNL     1      32.483  -9.302 -23.613  0.00  0.00    -0.020 C 
ATOM     32  C   UNL     1      33.622  -8.589 -23.237  0.00  0.00    -0.001 C 
ATOM     33  C   UNL     1      31.225  -8.706 -23.520  0.00  0.00    -0.001 C 
ATOM     34  C   UNL     1      33.503  -7.281 -22.771  0.00  0.00    +0.036 C 
ATOM     35  C   UNL     1      31.107  -7.396 -23.053  0.00  0.00    +0.036 C 
ATOM     36  C   UNL     1      32.246  -6.684 -22.679  0.00  0.00    +0.134 C 
BRANCH  36  37
ATOM     37  O   UNL     1      32.131  -5.407 -22.223  0.00  0.00    -0.506 OA
ATOM     38  H   UNL     1      31.343  -4.924 -22.376  0.00  0.00    +0.292 HD
ENDBRANCH  36  37
ENDBRANCH  30  31
ENDBRANCH  22  30
ENDBRANCH   7  22
TORSDOF 13
ENDMDL
MODEL 4
REMARK VINA RESULT:      -7.4      5.400     11.471
REMARK  Name = 5289343
REMARK  13 active torsions:
REMARK  status: ('A' for Active; 'I' for Inactive)
REMARK    1  A    between atoms: C_3  and  C_10
REMARK    2  A    between atoms: C_7  and  C_22
REMARK    3  A    between atoms: N_9  and  C_12
REMARK    4  A    between atoms: C_12  and  C_15
REMARK    5  A    between atoms: C_12  and  C_18
REMARK    6  A    between atoms: C_18  and  C_19
REMARK    7  A    between atoms: C_19  and  S_20
REMARK    8  A    between atoms: C_22  and  N_24
REMARK    9  A    between atoms: C_22  and  C_30
REMARK   10  A    between atoms: C_25  and  C_27
REMARK   11  A    between atoms: C_27  and  S_28
REMARK   12  A    between atoms: C_30  and  C_31
REMARK   13  A    between atoms: C_36  and  O_37
REMARK                            x       y       z     vdW  Elec       q    Type
REMARK                         _______ _______ _______ _____ _____    ______ ____
ROOT
ATOM      1  O   UNL     1      32.632 -12.971 -24.036  0.00  0.00    -0.273 OA
ATOM      2  N   UNL     1      32.197 -12.405 -21.834  0.00  0.00    -0.272 N 
ATOM      3  C   UNL     1      31.156 -11.426 -22.116  0.00  0.00    +0.152 C 
ATOM      4  C   UNL     1      30.468 -11.194 -20.776  0.00  0.00    +0.031 C 
ATOM      5  C   UNL     1      31.575 -11.460 -19.759  0.00  0.00    +0.024 C 
ATOM      6  C   UNL     1      32.371 -12.589 -20.395  0.00  0.00    +0.094 C 
ATOM      7  C   UNL     1      32.803 -13.155 -22.830  0.00  0.00    +0.244 C 
ENDROOT
BRANCH   3  10
ATOM      8  O   UNL     1      32.574 -10.204 -23.596  0.00  0.00    -0.273 OA
ATOM      9  N   UNL     1      31.554  -9.081 -21.830  0.00  0.00    -0.297 N 
ATOM     10  C   UNL     1      31.838 -10.187 -22.613  0.00  0.00    +0.241 C 
ATOM     11  H   UNL     1      30.946  -9.193 -21.064  0.00  0.00    +0.150 HD
BRANCH   9  12
ATOM     12  C   UNL     1      32.105  -7.769 -22.084  0.00  0.00    +0.149 C 
BRANCH  12  15
ATOM     13  O   UNL     1      31.915  -5.945 -20.492  0.00  0.00    -0.274 OA
ATOM     14  N   UNL     1      33.038  -7.843 -19.852  0.00  0.00    -0.327 N 
ATOM     15  C   UNL     1      32.335  -7.069 -20.752  0.00  0.00    +0.237 C 
ATOM     16  H   UNL     1      33.245  -7.490 -18.956  0.00  0.00    +0.145 HD
ATOM     17  H   UNL     1      33.332  -8.747 -20.106  0.00  0.00    +0.145 HD
ENDBRANCH  12  15
BRANCH  12  18
ATOM     18  C   UNL     1      31.230  -6.953 -23.044  0.00  0.00    +0.041 C 
BRANCH  18  19
ATOM     19  C   UNL     1      31.950  -6.537 -24.329  0.00  0.00    +0.060 C 
BRANCH  19  20
ATOM     20  S   UNL     1      31.435  -4.869 -24.837  0.00  0.00    -0.139 S 
ATOM     21  C   UNL     1      31.195  -4.159 -23.193  0.00  0.00    +0.069 C 
ENDBRANCH  19  20
ENDBRANCH  18  19
ENDBRANCH  12  18
ENDBRANCH   9  12
ENDBRANCH   3  10
BRANCH   7  22
ATOM     22  C   UNL     1      33.729 -14.244 -22.349  0.00  0.00    +0.153 C 
BRANCH  22  24
ATOM     23  O   UNL     1      33.573 -15.787 -19.905  0.00  0.00    -0.274 OA
ATOM     24  N   UNL     1      32.845 -15.338 -22.068  0.00  0.00    -0.297 N 
ATOM     25  C   UNL     1      32.835 -16.027 -20.859  0.00  0.00    +0.233 C 
ATOM     26  H   UNL     1      32.209 -15.614 -22.766  0.00  0.00    +0.150 HD
BRANCH  25  27
ATOM     27  C   UNL     1      31.824 -17.149 -20.819  0.00  0.00    +0.138 C 
BRANCH  27  28
ATOM     28  S   UNL     1      32.698 -18.731 -20.846  0.00  0.00    -0.159 S 
ATOM     29  H   UNL     1      34.037 -18.508 -20.940  0.00  0.00    +0.103 HD
ENDBRANCH  27  28
ENDBRANCH  25  27
ENDBRANCH  22  24
BRANCH  22  30
ATOM     30  C   UNL     1      34.763 -14.566 -23.420  0.00  0.00    +0.055 C 
BRANCH  30  31
ATOM     31  C   UNL     1      34.794 -16.036 -23.757  0.00  0.00    -0.020 C 
ATOM     32  C   UNL     1      35.471 -16.928 -22.924  0.00  0.00    -0.001 C 
ATOM     33  C   UNL     1      34.148 -16.505 -24.901  0.00  0.00    -0.001 C 
ATOM     34  C   UNL     1      35.500 -18.287 -23.235  0.00  0.00    +0.036 C 
ATOM     35  C   UNL     1      34.177 -17.864 -25.212  0.00  0.00    +0.036 C 
ATOM     36  C   UNL     1      34.853 -18.756 -24.379  0.00  0.00    +0.134 C 
BRANCH  36  37
ATOM     37  O   UNL     1      34.882 -20.082 -24.682  0.00  0.00    -0.506 OA
ATOM     38  H   UNL     1      34.119 -20.609 -24.552  0.00  0.00    +0.292 HD
ENDBRANCH  36  37
ENDBRANCH  30  31
ENDBRANCH  22  30
ENDBRANCH   7  22
TORSDOF 13
ENDMDL
MODEL 5
REMARK VINA RESULT:      -7.4      6.712     11.640
REMARK  Name = 5289343
REMARK  13 active torsions:
REMARK  status: ('A' for Active; 'I' for Inactive)
REMARK    1  A    between atoms: C_3  and  C_10
REMARK    2  A    between atoms: C_7  and  C_22
REMARK    3  A    between atoms: N_9  and  C_12
REMARK    4  A    between atoms: C_12  and  C_15
REMARK    5  A    between atoms: C_12  and  C_18
REMARK    6  A    between atoms: C_18  and  C_19
REMARK    7  A    between atoms: C_19  and  S_20
REMARK    8  A    between atoms: C_22  and  N_24
REMARK    9  A    between atoms: C_22  and  C_30
REMARK   10  A    between atoms: C_25  and  C_27
REMARK   11  A    between atoms: C_27  and  S_28
REMARK   12  A    between atoms: C_30  and  C_31
REMARK   13  A    between atoms: C_36  and  O_37
REMARK                            x       y       z     vdW  Elec       q    Type
REMARK                         _______ _______ _______ _____ _____    ______ ____
ROOT
ATOM      1  O   UNL     1      32.107 -10.970 -24.209  0.00  0.00    -0.273 OA
ATOM      2  N   UNL     1      31.927 -11.614 -21.993  0.00  0.00    -0.272 N 
ATOM      3  C   UNL     1      31.048 -10.530 -21.575  0.00  0.00    +0.152 C 
ATOM      4  C   UNL     1      30.503 -10.973 -20.222  0.00  0.00    +0.031 C 
ATOM      5  C   UNL     1      31.619 -11.851 -19.662  0.00  0.00    +0.024 C 
ATOM      6  C   UNL     1      32.170 -12.548 -20.897  0.00  0.00    +0.094 C 
ATOM      7  C   UNL     1      32.329 -11.781 -23.309  0.00  0.00    +0.244 C 
ENDROOT
BRANCH   3  10
ATOM      8  O   UNL     1      32.697  -9.145 -20.547  0.00  0.00    -0.273 OA
ATOM      9  N   UNL     1      31.624  -8.384 -22.467  0.00  0.00    -0.297 N 
ATOM     10  C   UNL     1      31.890  -9.296 -21.461  0.00  0.00    +0.241 C 
ATOM     11  H   UNL     1      30.952  -8.619 -23.148  0.00  0.00    +0.150 HD
BRANCH   9  12
ATOM     12  C   UNL     1      32.286  -7.103 -22.570  0.00  0.00    +0.149 C 
BRANCH  12  15
ATOM     13  O   UNL     1      30.509  -5.551 -21.987  0.00  0.00    -0.274 OA
ATOM     14  N   UNL     1      32.192  -5.911 -20.466  0.00  0.00    -0.327 N 
ATOM     15  C   UNL     1      31.562  -6.105 -21.677  0.00  0.00    +0.237 C 
ATOM     16  H   UNL     1      31.811  -5.285 -19.807  0.00  0.00    +0.145 HD
ATOM     17  H   UNL     1      33.022  -6.399 -20.260  0.00  0.00    +0.145 HD
ENDBRANCH  12  15
BRANCH  12  18
ATOM     18  C   UNL     1      32.401  -6.628 -24.024  0.00  0.00    +0.041 C 
BRANCH  18  19
ATOM     19  C   UNL     1      33.826  -6.687 -24.579  0.00  0.00    +0.060 C 
BRANCH  19  20
ATOM     20  S   UNL     1      34.917  -7.588 -23.439  0.00  0.00    -0.139 S 
ATOM     21  C   UNL     1      34.915  -9.185 -24.284  0.00  0.00    +0.069 C 
ENDBRANCH  19  20
ENDBRANCH  18  19
ENDBRANCH  12  18
ENDBRANCH   9  12
ENDBRANCH   3  10
BRANCH   7  22
ATOM     22  C   UNL     1      33.092 -13.050 -23.599  0.00  0.00    +0.153 C 
BRANCH  22  24
ATOM     23  O   UNL     1      32.415 -14.689 -25.886  0.00  0.00    -0.274 OA
ATOM     24  N   UNL     1      33.533 -12.876 -24.952  0.00  0.00    -0.297 N 
ATOM     25  C   UNL     1      33.156 -13.714 -25.997  0.00  0.00    +0.233 C 
ATOM     26  H   UNL     1      34.132 -12.122 -25.153  0.00  0.00    +0.150 HD
BRANCH  25  27
ATOM     27  C   UNL     1      33.769 -13.329 -27.323  0.00  0.00    +0.138 C 
BRANCH  27  28
ATOM     28  S   UNL     1      34.753 -11.828 -27.102  0.00  0.00    -0.159 S 
ATOM     29  H   UNL     1      35.273 -11.446 -28.299  0.00  0.00    +0.103 HD
ENDBRANCH  27  28
ENDBRANCH  25  27
ENDBRANCH  22  24
BRANCH  22  30
ATOM     30  C   UNL     1      34.237 -13.212 -22.608  0.00  0.00    +0.055 C 
BRANCH  30  31
ATOM     31  C   UNL     1      34.538 -14.662 -22.319  0.00  0.00    -0.020 C 
ATOM     32  C   UNL     1      34.513 -15.130 -21.005  0.00  0.00    -0.001 C 
ATOM     33  C   UNL     1      34.842 -15.534 -23.364  0.00  0.00    -0.001 C 
ATOM     34  C   UNL     1      34.790 -16.470 -20.736  0.00  0.00    +0.036 C 
ATOM     35  C   UNL     1      35.120 -16.875 -23.095  0.00  0.00    +0.036 C 
ATOM     36  C   UNL     1      35.093 -17.343 -21.781  0.00  0.00    +0.134 C 
BRANCH  36  37
ATOM     37  O   UNL     1      35.365 -18.650 -21.519  0.00  0.00    -0.506 OA
ATOM     38  H   UNL     1      35.227 -19.299 -22.180  0.00  0.00    +0.292 HD
ENDBRANCH  36  37
ENDBRANCH  30  31
ENDBRANCH  22  30
ENDBRANCH   7  22
TORSDOF 13
ENDMDL
MODEL 6
REMARK VINA RESULT:      -7.3      2.880      5.290
REMARK  Name = 5289343
REMARK  13 active torsions:
REMARK  status: ('A' for Active; 'I' for Inactive)
REMARK    1  A    between atoms: C_3  and  C_10
REMARK    2  A    between atoms: C_7  and  C_22
REMARK    3  A    between atoms: N_9  and  C_12
REMARK    4  A    between atoms: C_12  and  C_15
REMARK    5  A    between atoms: C_12  and  C_18
REMARK    6  A    between atoms: C_18  and  C_19
REMARK    7  A    between atoms: C_19  and  S_20
REMARK    8  A    between atoms: C_22  and  N_24
REMARK    9  A    between atoms: C_22  and  C_30
REMARK   10  A    between atoms: C_25  and  C_27
REMARK   11  A    between atoms: C_27  and  S_28
REMARK   12  A    between atoms: C_30  and  C_31
REMARK   13  A    between atoms: C_36  and  O_37
REMARK                            x       y       z     vdW  Elec       q    Type
REMARK                         _______ _______ _______ _____ _____    ______ ____
ROOT
ATOM      1  O   UNL     1      31.873 -15.781 -21.295  0.00  0.00    -0.273 OA
ATOM      2  N   UNL     1      33.739 -15.902 -22.658  0.00  0.00    -0.272 N 
ATOM      3  C   UNL     1      33.793 -17.355 -22.738  0.00  0.00    +0.152 C 
ATOM      4  C   UNL     1      34.738 -17.644 -23.898  0.00  0.00    +0.031 C 
ATOM      5  C   UNL     1      35.677 -16.441 -23.899  0.00  0.00    +0.024 C 
ATOM      6  C   UNL     1      34.769 -15.289 -23.493  0.00  0.00    +0.094 C 
ATOM      7  C   UNL     1      32.726 -15.230 -21.991  0.00  0.00    +0.244 C 
ENDROOT
BRANCH   3  10
ATOM      8  O   UNL     1      34.894 -17.095 -20.637  0.00  0.00    -0.273 OA
ATOM      9  N   UNL     1      34.174 -19.214 -21.277  0.00  0.00    -0.297 N 
ATOM     10  C   UNL     1      34.343 -17.849 -21.434  0.00  0.00    +0.241 C 
ATOM     11  H   UNL     1      33.714 -19.715 -21.990  0.00  0.00    +0.150 HD
BRANCH   9  12
ATOM     12  C   UNL     1      34.637 -19.941 -20.117  0.00  0.00    +0.149 C 
BRANCH  12  15
ATOM     13  O   UNL     1      36.370 -21.512 -20.772  0.00  0.00    -0.274 OA
ATOM     14  N   UNL     1      36.997 -19.405 -20.108  0.00  0.00    -0.327 N 
ATOM     15  C   UNL     1      36.069 -20.393 -20.362  0.00  0.00    +0.237 C 
ATOM     16  H   UNL     1      37.956 -19.586 -20.234  0.00  0.00    +0.145 HD
ATOM     17  H   UNL     1      36.698 -18.518 -19.803  0.00  0.00    +0.145 HD
ENDBRANCH  12  15
BRANCH  12  18
ATOM     18  C   UNL     1      33.699 -21.099 -19.750  0.00  0.00    +0.041 C 
BRANCH  18  19
ATOM     19  C   UNL     1      34.297 -22.076 -18.735  0.00  0.00    +0.060 C 
BRANCH  19  20
ATOM     20  S   UNL     1      32.982 -22.874 -17.768  0.00  0.00    -0.139 S 
ATOM     21  C   UNL     1      33.978 -23.398 -16.355  0.00  0.00    +0.069 C 
ENDBRANCH  19  20
ENDBRANCH  18  19
ENDBRANCH  12  18
ENDBRANCH   9  12
ENDBRANCH   3  10
BRANCH   7  22
ATOM     22  C   UNL     1      32.723 -13.731 -22.156  0.00  0.00    +0.153 C 
BRANCH  22  24
ATOM     23  O   UNL     1      34.219 -11.715 -23.598  0.00  0.00    -0.274 OA
ATOM     24  N   UNL     1      32.787 -13.548 -23.577  0.00  0.00    -0.297 N 
ATOM     25  C   UNL     1      33.536 -12.549 -24.191  0.00  0.00    +0.233 C 
ATOM     26  H   UNL     1      32.276 -14.164 -24.149  0.00  0.00    +0.150 HD
BRANCH  25  27
ATOM     27  C   UNL     1      33.422 -12.557 -25.697  0.00  0.00    +0.138 C 
BRANCH  27  28
ATOM     28  S   UNL     1      32.889 -14.197 -26.238  0.00  0.00    -0.159 S 
ATOM     29  H   UNL     1      32.296 -14.102 -27.458  0.00  0.00    +0.103 HD
ENDBRANCH  27  28
ENDBRANCH  25  27
ENDBRANCH  22  24
BRANCH  22  30
ATOM     30  C   UNL     1      31.471 -13.135 -21.528  0.00  0.00    +0.055 C 
BRANCH  30  31
ATOM     31  C   UNL     1      31.704 -11.738 -21.009  0.00  0.00    -0.020 C 
ATOM     32  C   UNL     1      31.843 -11.516 -19.639  0.00  0.00    -0.001 C 
ATOM     33  C   UNL     1      31.779 -10.666 -21.900  0.00  0.00    -0.001 C 
ATOM     34  C   UNL     1      32.059 -10.225 -19.159  0.00  0.00    +0.036 C 
ATOM     35  C   UNL     1      31.994  -9.374 -21.420  0.00  0.00    +0.036 C 
ATOM     36  C   UNL     1      32.134  -9.153 -20.050  0.00  0.00    +0.134 C 
BRANCH  36  37
ATOM     37  O   UNL     1      32.344  -7.893 -19.581  0.00  0.00    -0.506 OA
ATOM     38  H   UNL     1      33.148  -7.451 -19.768  0.00  0.00    +0.292 HD
ENDBRANCH  36  37
ENDBRANCH  30  31
ENDBRANCH  22  30
ENDBRANCH   7  22
TORSDOF 13
ENDMDL
MODEL 7
REMARK VINA RESULT:      -7.3      4.329      8.096
REMARK  Name = 5289343
REMARK  13 active torsions:
REMARK  status: ('A' for Active; 'I' for Inactive)
REMARK    1  A    between atoms: C_3  and  C_10
REMARK    2  A    between atoms: C_7  and  C_22
REMARK    3  A    between atoms: N_9  and  C_12
REMARK    4  A    between atoms: C_12  and  C_15
REMARK    5  A    between atoms: C_12  and  C_18
REMARK    6  A    between atoms: C_18  and  C_19
REMARK    7  A    between atoms: C_19  and  S_20
REMARK    8  A    between atoms: C_22  and  N_24
REMARK    9  A    between atoms: C_22  and  C_30
REMARK   10  A    between atoms: C_25  and  C_27
REMARK   11  A    between atoms: C_27  and  S_28
REMARK   12  A    between atoms: C_30  and  C_31
REMARK   13  A    between atoms: C_36  and  O_37
REMARK                            x       y       z     vdW  Elec       q    Type
REMARK                         _______ _______ _______ _____ _____    ______ ____
ROOT
ATOM      1  O   UNL     1      32.366 -14.053 -22.152  0.00  0.00    -0.273 OA
ATOM      2  N   UNL     1      32.972 -13.779 -24.369  0.00  0.00    -0.272 N 
ATOM      3  C   UNL     1      33.022 -15.195 -24.705  0.00  0.00    +0.152 C 
ATOM      4  C   UNL     1      33.045 -15.231 -26.229  0.00  0.00    +0.031 C 
ATOM      5  C   UNL     1      33.728 -13.919 -26.604  0.00  0.00    +0.024 C 
ATOM      6  C   UNL     1      33.230 -12.949 -25.543  0.00  0.00    +0.094 C 
ATOM      7  C   UNL     1      32.574 -13.323 -23.122  0.00  0.00    +0.244 C 
ENDROOT
BRANCH   3  10
ATOM      8  O   UNL     1      35.388 -15.486 -24.590  0.00  0.00    -0.273 OA
ATOM      9  N   UNL     1      34.042 -16.568 -23.029  0.00  0.00    -0.297 N 
ATOM     10  C   UNL     1      34.285 -15.745 -24.116  0.00  0.00    +0.241 C 
ATOM     11  H   UNL     1      33.111 -16.701 -22.740  0.00  0.00    +0.150 HD
BRANCH   9  12
ATOM     12  C   UNL     1      35.091 -17.242 -22.297  0.00  0.00    +0.149 C 
BRANCH  12  15
ATOM     13  O   UNL     1      35.114 -18.854 -24.114  0.00  0.00    -0.274 OA
ATOM     14  N   UNL     1      37.037 -18.549 -22.896  0.00  0.00    -0.327 N 
ATOM     15  C   UNL     1      35.715 -18.300 -23.196  0.00  0.00    +0.237 C 
ATOM     16  H   UNL     1      37.542 -19.217 -23.415  0.00  0.00    +0.145 HD
ATOM     17  H   UNL     1      37.476 -18.059 -22.163  0.00  0.00    +0.145 HD
ENDBRANCH  12  15
BRANCH  12  18
ATOM     18  C   UNL     1      34.588 -17.813 -20.964  0.00  0.00    +0.041 C 
BRANCH  18  19
ATOM     19  C   UNL     1      33.867 -19.156 -21.104  0.00  0.00    +0.060 C 
BRANCH  19  20
ATOM     20  S   UNL     1      34.844 -20.485 -20.341  0.00  0.00    -0.139 S 
ATOM     21  C   UNL     1      33.489 -21.394 -19.566  0.00  0.00    +0.069 C 
ENDBRANCH  19  20
ENDBRANCH  18  19
ENDBRANCH  12  18
ENDBRANCH   9  12
ENDBRANCH   3  10
BRANCH   7  22
ATOM     22  C   UNL     1      32.410 -11.828 -22.999  0.00  0.00    +0.153 C 
BRANCH  22  24
ATOM     23  O   UNL     1      30.058 -11.329 -21.388  0.00  0.00    -0.274 OA
ATOM     24  N   UNL     1      32.358 -11.612 -21.582  0.00  0.00    -0.297 N 
ATOM     25  C   UNL     1      31.178 -11.379 -20.883  0.00  0.00    +0.233 C 
ATOM     26  H   UNL     1      33.202 -11.631 -21.076  0.00  0.00    +0.150 HD
BRANCH  25  27
ATOM     27  C   UNL     1      31.392 -11.163 -19.403  0.00  0.00    +0.138 C 
BRANCH  27  28
ATOM     28  S   UNL     1      32.050  -9.499 -19.141  0.00  0.00    -0.159 S 
ATOM     29  H   UNL     1      31.180  -8.782 -18.380  0.00  0.00    +0.103 HD
ENDBRANCH  27  28
ENDBRANCH  25  27
ENDBRANCH  22  24
BRANCH  22  30
ATOM     30  C   UNL     1      33.573 -11.115 -23.675  0.00  0.00    +0.055 C 
BRANCH  30  31
ATOM     31  C   UNL     1      33.346  -9.627 -23.775  0.00  0.00    -0.020 C 
ATOM     32  C   UNL     1      32.048  -9.115 -23.731  0.00  0.00    -0.001 C 
ATOM     33  C   UNL     1      34.432  -8.762 -23.913  0.00  0.00    -0.001 C 
ATOM     34  C   UNL     1      31.838  -7.740 -23.824  0.00  0.00    +0.036 C 
ATOM     35  C   UNL     1      34.221  -7.386 -24.006  0.00  0.00    +0.036 C 
ATOM     36  C   UNL     1      32.924  -6.875 -23.961  0.00  0.00    +0.134 C 
BRANCH  36  37
ATOM     37  O   UNL     1      32.718  -5.533 -24.052  0.00  0.00    -0.506 OA
ATOM     38  H   UNL     1      32.049  -5.198 -24.615  0.00  0.00    +0.292 HD
ENDBRANCH  36  37
ENDBRANCH  30  31
ENDBRANCH  22  30
ENDBRANCH   7  22
TORSDOF 13
ENDMDL
MODEL 8
REMARK VINA RESULT:      -7.0      3.916      6.397
REMARK  Name = 5289343
REMARK  13 active torsions:
REMARK  status: ('A' for Active; 'I' for Inactive)
REMARK    1  A    between atoms: C_3  and  C_10
REMARK    2  A    between atoms: C_7  and  C_22
REMARK    3  A    between atoms: N_9  and  C_12
REMARK    4  A    between atoms: C_12  and  C_15
REMARK    5  A    between atoms: C_12  and  C_18
REMARK    6  A    between atoms: C_18  and  C_19
REMARK    7  A    between atoms: C_19  and  S_20
REMARK    8  A    between atoms: C_22  and  N_24
REMARK    9  A    between atoms: C_22  and  C_30
REMARK   10  A    between atoms: C_25  and  C_27
REMARK   11  A    between atoms: C_27  and  S_28
REMARK   12  A    between atoms: C_30  and  C_31
REMARK   13  A    between atoms: C_36  and  O_37
REMARK                            x       y       z     vdW  Elec       q    Type
REMARK                         _______ _______ _______ _____ _____    ______ ____
ROOT
ATOM      1  O   UNL     1      32.930 -23.926 -17.332  0.00  0.00    -0.273 OA
ATOM      2  N   UNL     1      34.076 -23.491 -15.369  0.00  0.00    -0.272 N 
ATOM      3  C   UNL     1      33.367 -24.460 -14.544  0.00  0.00    +0.152 C 
ATOM      4  C   UNL     1      34.222 -24.599 -13.290  0.00  0.00    +0.031 C 
ATOM      5  C   UNL     1      34.897 -23.236 -13.167  0.00  0.00    +0.024 C 
ATOM      6  C   UNL     1      35.141 -22.835 -14.614  0.00  0.00    +0.094 C 
ATOM      7  C   UNL     1      33.840 -23.356 -16.729  0.00  0.00    +0.244 C 
ENDROOT
BRANCH   3  10
ATOM      8  O   UNL     1      31.801 -23.263 -13.199  0.00  0.00    -0.273 OA
ATOM      9  N   UNL     1      31.096 -24.145 -15.235  0.00  0.00    -0.297 N 
ATOM     10  C   UNL     1      32.020 -23.879 -14.239  0.00  0.00    +0.241 C 
ATOM     11  H   UNL     1      31.392 -24.651 -16.026  0.00  0.00    +0.150 HD
BRANCH   9  12
ATOM     12  C   UNL     1      29.718 -23.714 -15.171  0.00  0.00    +0.149 C 
BRANCH  12  15
ATOM     13  O   UNL     1      28.356 -25.203 -16.524  0.00  0.00    -0.274 OA
ATOM     14  N   UNL     1      28.599 -25.670 -14.289  0.00  0.00    -0.327 N 
ATOM     15  C   UNL     1      28.817 -24.916 -15.422  0.00  0.00    +0.237 C 
ATOM     16  H   UNL     1      28.030 -26.473 -14.334  0.00  0.00    +0.145 HD
ATOM     17  H   UNL     1      29.012 -25.406 -13.436  0.00  0.00    +0.145 HD
ENDBRANCH  12  15
BRANCH  12  18
ATOM     18  C   UNL     1      29.434 -22.546 -16.125  0.00  0.00    +0.041 C 
BRANCH  18  19
ATOM     19  C   UNL     1      27.983 -22.060 -16.088  0.00  0.00    +0.060 C 
BRANCH  19  20
ATOM     20  S   UNL     1      27.157 -22.400 -17.670  0.00  0.00    -0.139 S 
ATOM     21  C   UNL     1      25.982 -21.028 -17.651  0.00  0.00    +0.069 C 
ENDBRANCH  19  20
ENDBRANCH  18  19
ENDBRANCH  12  18
ENDBRANCH   9  12
ENDBRANCH   3  10
BRANCH   7  22
ATOM     22  C   UNL     1      34.781 -22.434 -17.463  0.00  0.00    +0.153 C 
BRANCH  22  24
ATOM     23  O   UNL     1      37.138 -20.757 -17.345  0.00  0.00    -0.274 OA
ATOM     24  N   UNL     1      36.070 -22.784 -16.940  0.00  0.00    -0.297 N 
ATOM     25  C   UNL     1      37.154 -21.911 -16.921  0.00  0.00    +0.233 C 
ATOM     26  H   UNL     1      36.194 -23.688 -16.573  0.00  0.00    +0.150 HD
BRANCH  25  27
ATOM     27  C   UNL     1      38.405 -22.525 -16.335  0.00  0.00    +0.138 C 
BRANCH  27  28
ATOM     28  S   UNL     1      37.946 -23.971 -15.353  0.00  0.00    -0.159 S 
ATOM     29  H   UNL     1      37.683 -23.587 -14.075  0.00  0.00    +0.103 HD
ENDBRANCH  27  28
ENDBRANCH  25  27
ENDBRANCH  22  24
BRANCH  22  30
ATOM     30  C   UNL     1      34.662 -22.649 -18.965  0.00  0.00    +0.055 C 
BRANCH  30  31
ATOM     31  C   UNL     1      34.515 -21.349 -19.716  0.00  0.00    -0.020 C 
ATOM     32  C   UNL     1      33.249 -20.794 -19.908  0.00  0.00    -0.001 C 
ATOM     33  C   UNL     1      35.643 -20.701 -20.219  0.00  0.00    -0.001 C 
ATOM     34  C   UNL     1      33.112 -19.592 -20.601  0.00  0.00    +0.036 C 
ATOM     35  C   UNL     1      35.506 -19.498 -20.913  0.00  0.00    +0.036 C 
ATOM     36  C   UNL     1      34.240 -18.944 -21.104  0.00  0.00    +0.134 C 
BRANCH  36  37
ATOM     37  O   UNL     1      34.106 -17.771 -21.781  0.00  0.00    -0.506 OA
ATOM     38  H   UNL     1      34.856 -17.363 -22.165  0.00  0.00    +0.292 HD
ENDBRANCH  36  37
ENDBRANCH  30  31
ENDBRANCH  22  30
ENDBRANCH   7  22
TORSDOF 13
ENDMDL
MODEL 9
REMARK VINA RESULT:      -7.0      6.209     11.590
REMARK  Name = 5289343
REMARK  13 active torsions:
REMARK  status: ('A' for Active; 'I' for Inactive)
REMARK    1  A    between atoms: C_3  and  C_10
REMARK    2  A    between atoms: C_7  and  C_22
REMARK    3  A    between atoms: N_9  and  C_12
REMARK    4  A    between atoms: C_12  and  C_15
REMARK    5  A    between atoms: C_12  and  C_18
REMARK    6  A    between atoms: C_18  and  C_19
REMARK    7  A    between atoms: C_19  and  S_20
REMARK    8  A    between atoms: C_22  and  N_24
REMARK    9  A    between atoms: C_22  and  C_30
REMARK   10  A    between atoms: C_25  and  C_27
REMARK   11  A    between atoms: C_27  and  S_28
REMARK   12  A    between atoms: C_30  and  C_31
REMARK   13  A    between atoms: C_36  and  O_37
REMARK                            x       y       z     vdW  Elec       q    Type
REMARK                         _______ _______ _______ _____ _____    ______ ____
ROOT
ATOM      1  O   UNL     1      31.594 -11.464 -23.587  0.00  0.00    -0.273 OA
ATOM      2  N   UNL     1      31.702 -11.692 -21.287  0.00  0.00    -0.272 N 
ATOM      3  C   UNL     1      30.986 -10.465 -20.964  0.00  0.00    +0.152 C 
ATOM      4  C   UNL     1      30.620 -10.606 -19.491  0.00  0.00    +0.031 C 
ATOM      5  C   UNL     1      31.732 -11.488 -18.932  0.00  0.00    +0.024 C 
ATOM      6  C   UNL     1      32.031 -12.443 -20.078  0.00  0.00    +0.094 C 
ATOM      7  C   UNL     1      31.884 -12.126 -22.590  0.00  0.00    +0.244 C 
ENDROOT
BRANCH   3  10
ATOM      8  O   UNL     1      32.660  -8.897 -20.304  0.00  0.00    -0.273 OA
ATOM      9  N   UNL     1      31.856  -8.835 -22.488  0.00  0.00    -0.297 N 
ATOM     10  C   UNL     1      31.933  -9.326 -21.196  0.00  0.00    +0.241 C 
ATOM     11  H   UNL     1      31.232  -9.265 -23.117  0.00  0.00    +0.150 HD
BRANCH   9  12
ATOM     12  C   UNL     1      32.650  -7.723 -22.960  0.00  0.00    +0.149 C 
BRANCH  12  15
ATOM     13  O   UNL     1      35.073  -7.592 -23.073  0.00  0.00    -0.274 OA
ATOM     14  N   UNL     1      34.042  -9.488 -23.857  0.00  0.00    -0.327 N 
ATOM     15  C   UNL     1      34.046  -8.227 -23.299  0.00  0.00    +0.237 C 
ATOM     16  H   UNL     1      34.891  -9.914 -24.116  0.00  0.00    +0.145 HD
ATOM     17  H   UNL     1      33.190  -9.961 -23.995  0.00  0.00    +0.145 HD
ENDBRANCH  12  15
BRANCH  12  18
ATOM     18  C   UNL     1      32.662  -6.559 -21.961  0.00  0.00    +0.041 C 
BRANCH  18  19
ATOM     19  C   UNL     1      31.512  -5.569 -22.158  0.00  0.00    +0.060 C 
BRANCH  19  20
ATOM     20  S   UNL     1      31.484  -4.956 -23.869  0.00  0.00    -0.139 S 
ATOM     21  C   UNL     1      31.319  -3.192 -23.512  0.00  0.00    +0.069 C 
ENDBRANCH  19  20
ENDBRANCH  18  19
ENDBRANCH  12  18
ENDBRANCH   9  12
ENDBRANCH   3  10
BRANCH   7  22
ATOM     22  C   UNL     1      32.489 -13.500 -22.738  0.00  0.00    +0.153 C 
BRANCH  22  24
ATOM     23  O   UNL     1      34.245 -12.315 -24.710  0.00  0.00    -0.274 OA
ATOM     24  N   UNL     1      32.478 -13.722 -24.155  0.00  0.00    -0.297 N 
ATOM     25  C   UNL     1      33.364 -13.108 -25.036  0.00  0.00    +0.233 C 
ATOM     26  H   UNL     1      31.809 -14.342 -24.524  0.00  0.00    +0.150 HD
BRANCH  25  27
ATOM     27  C   UNL     1      33.134 -13.493 -26.479  0.00  0.00    +0.138 C 
BRANCH  27  28
ATOM     28  S   UNL     1      32.835 -15.273 -26.572  0.00  0.00    -0.159 S 
ATOM     29  H   UNL     1      31.771 -15.513 -27.386  0.00  0.00    +0.103 HD
ENDBRANCH  27  28
ENDBRANCH  25  27
ENDBRANCH  22  24
BRANCH  22  30
ATOM     30  C   UNL     1      33.887 -13.526 -22.135  0.00  0.00    +0.055 C 
BRANCH  30  31
ATOM     31  C   UNL     1      34.422 -14.930 -22.001  0.00  0.00    -0.020 C 
ATOM     32  C   UNL     1      34.475 -15.540 -20.747  0.00  0.00    -0.001 C 
ATOM     33  C   UNL     1      34.866 -15.620 -23.130  0.00  0.00    -0.001 C 
ATOM     34  C   UNL     1      34.970 -16.837 -20.622  0.00  0.00    +0.036 C 
ATOM     35  C   UNL     1      35.361 -16.918 -23.005  0.00  0.00    +0.036 C 
ATOM     36  C   UNL     1      35.412 -17.527 -21.751  0.00  0.00    +0.134 C 
BRANCH  36  37
ATOM     37  O   UNL     1      35.895 -18.793 -21.629  0.00  0.00    -0.506 OA
ATOM     38  H   UNL     1      36.356 -19.190 -22.341  0.00  0.00    +0.292 HD
ENDBRANCH  36  37
ENDBRANCH  30  31
ENDBRANCH  22  30
ENDBRANCH   7  22
TORSDOF 13
ENDMDL
