MODEL 1
REMARK VINA RESULT:     -11.0      0.000      0.000
REMARK  Name = 654376
REMARK  2 active torsions:
REMARK  status: ('A' for Active; 'I' for Inactive)
REMARK    1  A    between atoms: N_4  and  C_16
REMARK    2  A    between atoms: C_16  and  C_18
REMARK                            x       y       z     vdW  Elec       q    Type
REMARK                         _______ _______ _______ _____ _____    ______ ____
ROOT
ATOM      1  S   UNL     1      33.483 -15.691 -26.260  0.00  0.00    -0.090 S 
ATOM      2  O   UNL     1      35.372 -16.759 -20.334  0.00  0.00    -0.267 OA
ATOM      3  N   UNL     1      34.206 -15.160 -22.551  0.00  0.00    -0.321 N 
ATOM      4  N   UNL     1      35.659 -18.496 -21.861  0.00  0.00    -0.171 N 
ATOM      5  N   UNL     1      35.532 -19.008 -23.151  0.00  0.00    -0.173 NA
ATOM      6  C   UNL     1      34.693 -16.436 -22.558  0.00  0.00    +0.118 A 
ATOM      7  C   UNL     1      33.774 -14.870 -23.829  0.00  0.00    +0.066 A 
ATOM      8  C   UNL     1      34.578 -16.956 -23.815  0.00  0.00    +0.048 A 
ATOM      9  C   UNL     1      33.993 -15.961 -24.629  0.00  0.00    +0.048 A 
ATOM     10  C   UNL     1      35.256 -17.198 -21.477  0.00  0.00    +0.284 C 
ATOM     11  C   UNL     1      33.184 -13.773 -24.510  0.00  0.00    +0.020 C 
ATOM     12  C   UNL     1      35.016 -18.277 -24.093  0.00  0.00    +0.120 C 
ATOM     13  C   UNL     1      32.979 -14.100 -25.834  0.00  0.00    +0.009 C 
ATOM     14  C   UNL     1      34.127 -14.237 -21.446  0.00  0.00    +0.131 C 
ATOM     15  C   UNL     1      32.387 -13.246 -26.890  0.00  0.00    +0.038 C 
ENDROOT
BRANCH   4  16
ATOM     16  C   UNL     1      36.251 -19.418 -20.906  0.00  0.00    +0.148 C 
BRANCH  16  18
ATOM     17  F   UNL     1      36.927 -21.646 -19.304  0.00  0.00    -0.204 F 
ATOM     18  C   UNL     1      35.221 -20.311 -20.276  0.00  0.00    +0.027 C 
ATOM     19  C   UNL     1      35.625 -21.390 -19.499  0.00  0.00    +0.138 C 
ATOM     20  C   UNL     1      33.871 -20.047 -20.477  0.00  0.00    -0.000 C 
ATOM     21  C   UNL     1      34.667 -22.217 -18.914  0.00  0.00    +0.029 C 
ATOM     22  C   UNL     1      32.913 -20.874 -19.891  0.00  0.00    -0.000 C 
ATOM     23  C   UNL     1      33.310 -21.959 -19.110  0.00  0.00    +0.002 C 
ENDBRANCH  16  18
ENDBRANCH   4  16
TORSDOF 2
ENDMDL
MODEL 2
REMARK VINA RESULT:     -11.0      2.237      2.932
REMARK  Name = 654376
REMARK  2 active torsions:
REMARK  status: ('A' for Active; 'I' for Inactive)
REMARK    1  A    between atoms: N_4  and  C_16
REMARK    2  A    between atoms: C_16  and  C_18
REMARK                            x       y       z     vdW  Elec       q    Type
REMARK                         _______ _______ _______ _____ _____    ______ ____
ROOT
ATOM      1  S   UNL     1      32.423 -12.577 -20.770  0.00  0.00    -0.090 S 
ATOM      2  O   UNL     1      34.896 -17.389 -24.018  0.00  0.00    -0.267 OA
ATOM      3  N   UNL     1      33.408 -14.839 -23.680  0.00  0.00    -0.321 N 
ATOM      4  N   UNL     1      35.201 -17.410 -21.708  0.00  0.00    -0.171 N 
ATOM      5  N   UNL     1      35.012 -16.828 -20.456  0.00  0.00    -0.173 NA
ATOM      6  C   UNL     1      34.004 -15.632 -22.741  0.00  0.00    +0.118 A 
ATOM      7  C   UNL     1      32.847 -13.763 -23.024  0.00  0.00    +0.066 A 
ATOM      8  C   UNL     1      33.830 -15.078 -21.506  0.00  0.00    +0.048 A 
ATOM      9  C   UNL     1      33.093 -13.887 -21.681  0.00  0.00    +0.048 A 
ATOM     10  C   UNL     1      34.721 -16.866 -22.919  0.00  0.00    +0.284 C 
ATOM     11  C   UNL     1      32.106 -12.600 -23.363  0.00  0.00    +0.020 C 
ATOM     12  C   UNL     1      34.356 -15.712 -20.350  0.00  0.00    +0.120 C 
ATOM     13  C   UNL     1      31.819 -11.880 -22.223  0.00  0.00    +0.009 C 
ATOM     14  C   UNL     1      33.343 -15.033 -25.107  0.00  0.00    +0.131 C 
ATOM     15  C   UNL     1      31.068 -10.606 -22.130  0.00  0.00    +0.038 C 
ENDROOT
BRANCH   4  16
ATOM     16  C   UNL     1      35.950 -18.655 -21.682  0.00  0.00    +0.148 C 
BRANCH  16  18
ATOM     17  F   UNL     1      37.312 -20.592 -20.139  0.00  0.00    -0.204 F 
ATOM     18  C   UNL     1      35.239 -19.723 -20.902  0.00  0.00    +0.027 C 
ATOM     19  C   UNL     1      35.973 -20.643 -20.163  0.00  0.00    +0.138 C 
ATOM     20  C   UNL     1      33.850 -19.777 -20.926  0.00  0.00    -0.000 C 
ATOM     21  C   UNL     1      35.309 -21.632 -19.438  0.00  0.00    +0.029 C 
ATOM     22  C   UNL     1      33.186 -20.766 -20.200  0.00  0.00    -0.000 C 
ATOM     23  C   UNL     1      33.915 -21.694 -19.456  0.00  0.00    +0.002 C 
ENDBRANCH  16  18
ENDBRANCH   4  16
TORSDOF 2
ENDMDL
MODEL 3
REMARK VINA RESULT:     -10.0      4.925      9.322
REMARK  Name = 654376
REMARK  2 active torsions:
REMARK  status: ('A' for Active; 'I' for Inactive)
REMARK    1  A    between atoms: N_4  and  C_16
REMARK    2  A    between atoms: C_16  and  C_18
REMARK                            x       y       z     vdW  Elec       q    Type
REMARK                         _______ _______ _______ _____ _____    ______ ____
ROOT
ATOM      1  S   UNL     1      36.604 -23.158 -13.840  0.00  0.00    -0.090 S 
ATOM      2  O   UNL     1      33.193 -22.585 -19.118  0.00  0.00    -0.267 OA
ATOM      3  N   UNL     1      33.667 -23.295 -16.272  0.00  0.00    -0.321 N 
ATOM      4  N   UNL     1      35.419 -21.903 -19.223  0.00  0.00    -0.171 N 
ATOM      5  N   UNL     1      36.659 -21.720 -18.615  0.00  0.00    -0.173 NA
ATOM      6  C   UNL     1      34.526 -22.768 -17.194  0.00  0.00    +0.118 A 
ATOM      7  C   UNL     1      34.362 -23.443 -15.089  0.00  0.00    +0.066 A 
ATOM      8  C   UNL     1      35.749 -22.582 -16.617  0.00  0.00    +0.048 A 
ATOM      9  C   UNL     1      35.649 -23.010 -15.276  0.00  0.00    +0.048 A 
ATOM     10  C   UNL     1      34.283 -22.430 -18.570  0.00  0.00    +0.284 C 
ATOM     11  C   UNL     1      34.103 -23.911 -13.774  0.00  0.00    +0.020 C 
ATOM     12  C   UNL     1      36.827 -22.043 -17.368  0.00  0.00    +0.120 C 
ATOM     13  C   UNL     1      35.243 -23.806 -13.007  0.00  0.00    +0.009 C 
ATOM     14  C   UNL     1      32.280 -23.651 -16.439  0.00  0.00    +0.131 C 
ATOM     15  C   UNL     1      35.407 -24.181 -11.583  0.00  0.00    +0.038 C 
ENDROOT
BRANCH   4  16
ATOM     16  C   UNL     1      35.371 -21.502 -20.619  0.00  0.00    +0.148 C 
BRANCH  16  18
ATOM     17  F   UNL     1      37.242 -19.398 -20.870  0.00  0.00    -0.204 F 
ATOM     18  C   UNL     1      34.966 -20.064 -20.775  0.00  0.00    +0.027 C 
ATOM     19  C   UNL     1      35.940 -19.080 -20.895  0.00  0.00    +0.138 C 
ATOM     20  C   UNL     1      33.615 -19.733 -20.802  0.00  0.00    -0.000 C 
ATOM     21  C   UNL     1      35.560 -17.746 -21.042  0.00  0.00    +0.029 C 
ATOM     22  C   UNL     1      33.236 -18.399 -20.950  0.00  0.00    -0.000 C 
ATOM     23  C   UNL     1      34.207 -17.405 -21.070  0.00  0.00    +0.002 C 
ENDBRANCH  16  18
ENDBRANCH   4  16
TORSDOF 2
ENDMDL
MODEL 4
REMARK VINA RESULT:      -9.9      1.669      2.304
REMARK  Name = 654376
REMARK  2 active torsions:
REMARK  status: ('A' for Active; 'I' for Inactive)
REMARK    1  A    between atoms: N_4  and  C_16
REMARK    2  A    between atoms: C_16  and  C_18
REMARK                            x       y       z     vdW  Elec       q    Type
REMARK                         _______ _______ _______ _____ _____    ______ ____
ROOT
ATOM      1  S   UNL     1      33.788 -13.416 -22.295  0.00  0.00    -0.090 S 
ATOM      2  O   UNL     1      35.342 -19.346 -23.791  0.00  0.00    -0.267 OA
ATOM      3  N   UNL     1      34.375 -16.589 -24.331  0.00  0.00    -0.321 N 
ATOM      4  N   UNL     1      35.586 -18.724 -21.559  0.00  0.00    -0.171 N 
ATOM      5  N   UNL     1      35.488 -17.767 -20.550  0.00  0.00    -0.173 NA
ATOM      6  C   UNL     1      34.783 -17.156 -23.157  0.00  0.00    +0.118 A 
ATOM      7  C   UNL     1      34.021 -15.282 -24.064  0.00  0.00    +0.066 A 
ATOM      8  C   UNL     1      34.694 -16.233 -22.155  0.00  0.00    +0.048 A 
ATOM      9  C   UNL     1      34.208 -15.037 -22.728  0.00  0.00    +0.048 A 
ATOM     10  C   UNL     1      35.248 -18.493 -22.910  0.00  0.00    +0.284 C 
ATOM     11  C   UNL     1      33.529 -14.162 -24.786  0.00  0.00    +0.020 C 
ATOM     12  C   UNL     1      35.061 -16.572 -20.827  0.00  0.00    +0.120 C 
ATOM     13  C   UNL     1      33.364 -13.092 -23.932  0.00  0.00    +0.009 C 
ATOM     14  C   UNL     1      34.304 -17.190 -25.640  0.00  0.00    +0.131 C 
ATOM     15  C   UNL     1      32.875 -11.737 -24.275  0.00  0.00    +0.038 C 
ENDROOT
BRANCH   4  16
ATOM     16  C   UNL     1      36.077 -20.017 -21.111  0.00  0.00    +0.148 C 
BRANCH  16  18
ATOM     17  F   UNL     1      36.824 -21.854 -19.098  0.00  0.00    -0.204 F 
ATOM     18  C   UNL     1      35.078 -20.728 -20.245  0.00  0.00    +0.027 C 
ATOM     19  C   UNL     1      35.516 -21.619 -19.272  0.00  0.00    +0.138 C 
ATOM     20  C   UNL     1      33.720 -20.484 -20.425  0.00  0.00    -0.000 C 
ATOM     21  C   UNL     1      34.585 -22.276 -18.469  0.00  0.00    +0.029 C 
ATOM     22  C   UNL     1      32.790 -21.140 -19.620  0.00  0.00    -0.000 C 
ATOM     23  C   UNL     1      33.221 -22.037 -18.642  0.00  0.00    +0.002 C 
ENDBRANCH  16  18
ENDBRANCH   4  16
TORSDOF 2
ENDMDL
MODEL 5
REMARK VINA RESULT:      -9.8      4.045      8.472
REMARK  Name = 654376
REMARK  2 active torsions:
REMARK  status: ('A' for Active; 'I' for Inactive)
REMARK    1  A    between atoms: N_4  and  C_16
REMARK    2  A    between atoms: C_16  and  C_18
REMARK                            x       y       z     vdW  Elec       q    Type
REMARK                         _______ _______ _______ _____ _____    ______ ____
ROOT
ATOM      1  S   UNL     1      37.576 -22.480 -16.150  0.00  0.00    -0.090 S 
ATOM      2  O   UNL     1      32.739 -21.575 -20.101  0.00  0.00    -0.267 OA
ATOM      3  N   UNL     1      34.083 -22.647 -17.676  0.00  0.00    -0.321 N 
ATOM      4  N   UNL     1      34.767 -20.582 -20.673  0.00  0.00    -0.171 N 
ATOM      5  N   UNL     1      36.109 -20.324 -20.400  0.00  0.00    -0.173 NA
ATOM      6  C   UNL     1      34.585 -21.868 -18.680  0.00  0.00    +0.118 A 
ATOM      7  C   UNL     1      35.103 -22.878 -16.776  0.00  0.00    +0.066 A 
ATOM      8  C   UNL     1      35.901 -21.604 -18.431  0.00  0.00    +0.048 A 
ATOM      9  C   UNL     1      36.235 -22.246 -17.219  0.00  0.00    +0.048 A 
ATOM     10  C   UNL     1      33.922 -21.357 -19.849  0.00  0.00    +0.284 C 
ATOM     11  C   UNL     1      35.280 -23.576 -15.553  0.00  0.00    +0.020 C 
ATOM     12  C   UNL     1      36.661 -20.810 -19.330  0.00  0.00    +0.120 C 
ATOM     13  C   UNL     1      36.581 -23.434 -15.118  0.00  0.00    +0.009 C 
ATOM     14  C   UNL     1      32.745 -23.163 -17.526  0.00  0.00    +0.131 C 
ATOM     15  C   UNL     1      37.185 -23.999 -13.889  0.00  0.00    +0.038 C 
ENDROOT
BRANCH   4  16
ATOM     16  C   UNL     1      34.279 -19.978 -21.902  0.00  0.00    +0.148 C 
BRANCH  16  18
ATOM     17  F   UNL     1      35.740 -18.586 -23.880  0.00  0.00    -0.204 F 
ATOM     18  C   UNL     1      34.440 -18.485 -21.897  0.00  0.00    +0.027 C 
ATOM     19  C   UNL     1      35.172 -17.866 -22.902  0.00  0.00    +0.138 C 
ATOM     20  C   UNL     1      33.852 -17.737 -20.883  0.00  0.00    -0.000 C 
ATOM     21  C   UNL     1      35.319 -16.479 -22.896  0.00  0.00    +0.029 C 
ATOM     22  C   UNL     1      33.997 -16.350 -20.877  0.00  0.00    -0.000 C 
ATOM     23  C   UNL     1      34.731 -15.720 -21.883  0.00  0.00    +0.002 C 
ENDBRANCH  16  18
ENDBRANCH   4  16
TORSDOF 2
ENDMDL
MODEL 6
REMARK VINA RESULT:      -9.5      3.987      8.252
REMARK  Name = 654376
REMARK  2 active torsions:
REMARK  status: ('A' for Active; 'I' for Inactive)
REMARK    1  A    between atoms: N_4  and  C_16
REMARK    2  A    between atoms: C_16  and  C_18
REMARK                            x       y       z     vdW  Elec       q    Type
REMARK                         _______ _______ _______ _____ _____    ______ ____
ROOT
ATOM      1  S   UNL     1      35.334 -17.528 -20.778  0.00  0.00    -0.090 S 
ATOM      2  O   UNL     1      33.522 -15.547 -26.488  0.00  0.00    -0.267 OA
ATOM      3  N   UNL     1      34.378 -17.554 -24.471  0.00  0.00    -0.321 N 
ATOM      4  N   UNL     1      33.693 -13.931 -24.818  0.00  0.00    -0.171 N 
ATOM      5  N   UNL     1      33.977 -13.577 -23.500  0.00  0.00    -0.173 NA
ATOM      6  C   UNL     1      34.191 -16.207 -24.337  0.00  0.00    +0.118 A 
ATOM      7  C   UNL     1      34.777 -18.045 -23.245  0.00  0.00    +0.066 A 
ATOM      8  C   UNL     1      34.465 -15.840 -23.052  0.00  0.00    +0.048 A 
ATOM      9  C   UNL     1      34.839 -17.007 -22.352  0.00  0.00    +0.048 A 
ATOM     10  C   UNL     1      33.777 -15.247 -25.324  0.00  0.00    +0.284 C 
ATOM     11  C   UNL     1      35.129 -19.302 -22.685  0.00  0.00    +0.020 C 
ATOM     12  C   UNL     1      34.348 -14.484 -22.648  0.00  0.00    +0.120 C 
ATOM     13  C   UNL     1      35.451 -19.146 -21.354  0.00  0.00    +0.009 C 
ATOM     14  C   UNL     1      34.206 -18.370 -25.647  0.00  0.00    +0.131 C 
ATOM     15  C   UNL     1      35.870 -20.201 -20.401  0.00  0.00    +0.038 C 
ENDROOT
BRANCH   4  16
ATOM     16  C   UNL     1      33.291 -12.820 -25.664  0.00  0.00    +0.148 C 
BRANCH  16  18
ATOM     17  F   UNL     1      35.410 -11.476 -26.964  0.00  0.00    -0.204 F 
ATOM     18  C   UNL     1      33.849 -11.513 -25.177  0.00  0.00    +0.027 C 
ATOM     19  C   UNL     1      34.892 -10.907 -25.867  0.00  0.00    +0.138 C 
ATOM     20  C   UNL     1      33.312 -10.922 -24.039  0.00  0.00    -0.000 C 
ATOM     21  C   UNL     1      35.407  -9.693 -25.413  0.00  0.00    +0.029 C 
ATOM     22  C   UNL     1      33.826  -9.707 -23.586  0.00  0.00    -0.000 C 
ATOM     23  C   UNL     1      34.874  -9.092 -24.272  0.00  0.00    +0.002 C 
ENDBRANCH  16  18
ENDBRANCH   4  16
TORSDOF 2
ENDMDL
MODEL 7
REMARK VINA RESULT:      -9.3      4.819      9.167
REMARK  Name = 654376
REMARK  2 active torsions:
REMARK  status: ('A' for Active; 'I' for Inactive)
REMARK    1  A    between atoms: N_4  and  C_16
REMARK    2  A    between atoms: C_16  and  C_18
REMARK                            x       y       z     vdW  Elec       q    Type
REMARK                         _______ _______ _______ _____ _____    ______ ____
ROOT
ATOM      1  S   UNL     1      31.096 -24.038 -15.680  0.00  0.00    -0.090 S 
ATOM      2  O   UNL     1      36.890 -22.043 -17.189  0.00  0.00    -0.267 OA
ATOM      3  N   UNL     1      34.791 -23.135 -15.389  0.00  0.00    -0.321 N 
ATOM      4  N   UNL     1      35.280 -21.976 -18.872  0.00  0.00    -0.171 N 
ATOM      5  N   UNL     1      33.976 -22.197 -19.311  0.00  0.00    -0.173 NA
ATOM      6  C   UNL     1      34.711 -22.769 -16.703  0.00  0.00    +0.118 A 
ATOM      7  C   UNL     1      33.545 -23.583 -15.002  0.00  0.00    +0.066 A 
ATOM      8  C   UNL     1      33.438 -22.978 -17.152  0.00  0.00    +0.048 A 
ATOM      9  C   UNL     1      32.692 -23.496 -16.071  0.00  0.00    +0.048 A 
ATOM     10  C   UNL     1      35.735 -22.241 -17.562  0.00  0.00    +0.284 C 
ATOM     11  C   UNL     1      32.936 -24.093 -13.825  0.00  0.00    +0.020 C 
ATOM     12  C   UNL     1      33.087 -22.676 -18.494  0.00  0.00    +0.120 C 
ATOM     13  C   UNL     1      31.609 -24.375 -14.071  0.00  0.00    +0.009 C 
ATOM     14  C   UNL     1      35.937 -23.086 -14.514  0.00  0.00    +0.131 C 
ATOM     15  C   UNL     1      30.615 -24.923 -13.119  0.00  0.00    +0.038 C 
ENDROOT
BRANCH   4  16
ATOM     16  C   UNL     1      36.170 -21.438 -19.888  0.00  0.00    +0.148 C 
BRANCH  16  18
ATOM     17  F   UNL     1      37.795 -19.359 -20.901  0.00  0.00    -0.204 F 
ATOM     18  C   UNL     1      35.607 -20.203 -20.531  0.00  0.00    +0.027 C 
ATOM     19  C   UNL     1      36.466 -19.220 -21.008  0.00  0.00    +0.138 C 
ATOM     20  C   UNL     1      34.229 -20.058 -20.643  0.00  0.00    -0.000 C 
ATOM     21  C   UNL     1      35.940 -18.075 -21.606  0.00  0.00    +0.029 C 
ATOM     22  C   UNL     1      33.703 -18.914 -21.242  0.00  0.00    -0.000 C 
ATOM     23  C   UNL     1      34.558 -17.922 -21.723  0.00  0.00    +0.002 C 
ENDBRANCH  16  18
ENDBRANCH   4  16
TORSDOF 2
ENDMDL
MODEL 8
REMARK VINA RESULT:      -9.3      3.593      7.983
REMARK  Name = 654376
REMARK  2 active torsions:
REMARK  status: ('A' for Active; 'I' for Inactive)
REMARK    1  A    between atoms: N_4  and  C_16
REMARK    2  A    between atoms: C_16  and  C_18
REMARK                            x       y       z     vdW  Elec       q    Type
REMARK                         _______ _______ _______ _____ _____    ______ ____
ROOT
ATOM      1  S   UNL     1      32.073 -22.884 -17.289  0.00  0.00    -0.090 S 
ATOM      2  O   UNL     1      36.901 -20.306 -20.430  0.00  0.00    -0.267 OA
ATOM      3  N   UNL     1      35.624 -21.872 -18.251  0.00  0.00    -0.321 N 
ATOM      4  N   UNL     1      34.770 -19.959 -21.305  0.00  0.00    -0.171 N 
ATOM      5  N   UNL     1      33.390 -20.147 -21.244  0.00  0.00    -0.173 NA
ATOM      6  C   UNL     1      35.055 -21.234 -19.317  0.00  0.00    +0.118 A 
ATOM      7  C   UNL     1      34.609 -22.459 -17.524  0.00  0.00    +0.066 A 
ATOM      8  C   UNL     1      33.701 -21.407 -19.275  0.00  0.00    +0.048 A 
ATOM      9  C   UNL     1      33.413 -22.186 -18.134  0.00  0.00    +0.048 A 
ATOM     10  C   UNL     1      35.686 -20.478 -20.364  0.00  0.00    +0.284 C 
ATOM     11  C   UNL     1      34.484 -23.244 -16.347  0.00  0.00    +0.020 C 
ATOM     12  C   UNL     1      32.870 -20.839 -20.276  0.00  0.00    +0.120 C 
ATOM     13  C   UNL     1      33.156 -23.535 -16.119  0.00  0.00    +0.009 C 
ATOM     14  C   UNL     1      37.019 -21.954 -17.897  0.00  0.00    +0.131 C 
ATOM     15  C   UNL     1      32.588 -24.329 -15.004  0.00  0.00    +0.038 C 
ENDROOT
BRANCH   4  16
ATOM     16  C   UNL     1      35.217 -19.167 -22.438  0.00  0.00    +0.148 C 
BRANCH  16  18
ATOM     17  F   UNL     1      34.716 -17.400 -24.587  0.00  0.00    -0.204 F 
ATOM     18  C   UNL     1      34.942 -17.703 -22.244  0.00  0.00    +0.027 C 
ATOM     19  C   UNL     1      34.703 -16.892 -23.346  0.00  0.00    +0.138 C 
ATOM     20  C   UNL     1      34.929 -17.174 -20.958  0.00  0.00    -0.000 C 
ATOM     21  C   UNL     1      34.448 -15.533 -23.162  0.00  0.00    +0.029 C 
ATOM     22  C   UNL     1      34.671 -15.816 -20.773  0.00  0.00    -0.000 C 
ATOM     23  C   UNL     1      34.432 -14.995 -21.875  0.00  0.00    +0.002 C 
ENDBRANCH  16  18
ENDBRANCH   4  16
TORSDOF 2
ENDMDL
MODEL 9
REMARK VINA RESULT:      -9.2      5.154      9.212
REMARK  Name = 654376
REMARK  2 active torsions:
REMARK  status: ('A' for Active; 'I' for Inactive)
REMARK    1  A    between atoms: N_4  and  C_16
REMARK    2  A    between atoms: C_16  and  C_18
REMARK                            x       y       z     vdW  Elec       q    Type
REMARK                         _______ _______ _______ _____ _____    ______ ____
ROOT
ATOM      1  S   UNL     1      34.993 -15.950 -24.295  0.00  0.00    -0.090 S 
ATOM      2  O   UNL     1      31.573 -12.055 -20.696  0.00  0.00    -0.267 OA
ATOM      3  N   UNL     1      32.946 -14.603 -21.371  0.00  0.00    -0.321 N 
ATOM      4  N   UNL     1      32.295 -11.229 -22.751  0.00  0.00    -0.171 N 
ATOM      5  N   UNL     1      32.982 -11.400 -23.952  0.00  0.00    -0.173 NA
ATOM      6  C   UNL     1      32.850 -13.446 -22.091  0.00  0.00    +0.118 A 
ATOM      7  C   UNL     1      33.688 -15.498 -22.113  0.00  0.00    +0.066 A 
ATOM      8  C   UNL     1      33.517 -13.594 -23.272  0.00  0.00    +0.048 A 
ATOM      9  C   UNL     1      34.053 -14.900 -23.291  0.00  0.00    +0.048 A 
ATOM     10  C   UNL     1      32.181 -12.220 -21.752  0.00  0.00    +0.284 C 
ATOM     11  C   UNL     1      34.157 -16.832 -21.981  0.00  0.00    +0.020 C 
ATOM     12  C   UNL     1      33.570 -12.529 -24.210  0.00  0.00    +0.120 C 
ATOM     13  C   UNL     1      34.876 -17.187 -23.103  0.00  0.00    +0.009 C 
ATOM     14  C   UNL     1      32.396 -14.898 -20.071  0.00  0.00    +0.131 C 
ATOM     15  C   UNL     1      35.539 -18.485 -23.372  0.00  0.00    +0.038 C 
ENDROOT
BRANCH   4  16
ATOM     16  C   UNL     1      31.686  -9.919 -22.592  0.00  0.00    +0.148 C 
BRANCH  16  18
ATOM     17  F   UNL     1      30.596  -7.697 -23.957  0.00  0.00    -0.204 F 
ATOM     18  C   UNL     1      32.533  -8.830 -23.183  0.00  0.00    +0.027 C 
ATOM     19  C   UNL     1      31.930  -7.765 -23.841  0.00  0.00    +0.138 C 
ATOM     20  C   UNL     1      33.917  -8.898 -23.063  0.00  0.00    -0.000 C 
ATOM     21  C   UNL     1      32.719  -6.754 -24.387  0.00  0.00    +0.029 C 
ATOM     22  C   UNL     1      34.707  -7.886 -23.609  0.00  0.00    -0.000 C 
ATOM     23  C   UNL     1      34.109  -6.814 -24.272  0.00  0.00    +0.002 C 
ENDBRANCH  16  18
ENDBRANCH   4  16
TORSDOF 2
ENDMDL
