MODEL 1
REMARK VINA RESULT:     -10.6      0.000      0.000
REMARK  Name = 10247560
REMARK  5 active torsions:
REMARK  status: ('A' for Active; 'I' for Inactive)
REMARK    1  A    between atoms: C_2  and  C_11
REMARK    2  A    between atoms: C_7  and  C_18
REMARK    3  A    between atoms: C_8  and  O_14
REMARK    4  A    between atoms: C_10  and  O_16
REMARK    5  A    between atoms: C_18  and  C_23
REMARK                            x       y       z     vdW  Elec       q    Type
REMARK                         _______ _______ _______ _____ _____    ______ ____
ROOT
ATOM      1  O   UNL     1      35.145 -16.918 -22.790  0.00  0.00    -0.471 OA
ATOM      2  C   UNL     1      35.140 -17.040 -21.353  0.00  0.00    +0.117 C 
ATOM      3  C   UNL     1      34.554 -15.875 -20.597  0.00  0.00    +0.032 C 
ATOM      4  C   UNL     1      34.359 -15.958 -23.365  0.00  0.00    +0.246 C 
ATOM      5  C   UNL     1      33.886 -14.887 -21.196  0.00  0.00    +0.002 C 
ATOM      6  C   UNL     1      33.723 -14.947 -22.640  0.00  0.00    +0.021 C 
ATOM      7  C   UNL     1      32.953 -13.993 -23.315  0.00  0.00    -0.015 C 
ATOM      8  C   UNL     1      34.230 -16.012 -24.756  0.00  0.00    +0.194 C 
ATOM      9  C   UNL     1      32.819 -14.053 -24.703  0.00  0.00    +0.036 C 
ATOM     10  C   UNL     1      33.459 -15.061 -25.422  0.00  0.00    +0.172 C 
ENDROOT
BRANCH   2  11
ATOM     11  C   UNL     1      34.506 -18.360 -21.002  0.00  0.00    +0.057 C 
ATOM     12  C   UNL     1      34.412 -19.406 -22.059  0.00  0.00    +0.008 C 
ATOM     13  C   UNL     1      35.378 -19.566 -20.920  0.00  0.00    +0.008 C 
ENDBRANCH   2  11
BRANCH   8  14
ATOM     14  O   UNL     1      34.857 -16.993 -25.466  0.00  0.00    -0.469 OA
ATOM     15  C   UNL     1      34.282 -18.296 -25.413  0.00  0.00    +0.252 C 
ENDBRANCH   8  14
BRANCH  10  16
ATOM     16  O   UNL     1      33.322 -15.105 -26.777  0.00  0.00    -0.469 OA
ATOM     17  C   UNL     1      33.307 -13.856 -27.468  0.00  0.00    +0.253 C 
ENDBRANCH  10  16
BRANCH   7  18
ATOM     18  C   UNL     1      32.246 -12.886 -22.598  0.00  0.00    +0.058 C 
BRANCH  18  23
ATOM     19  N   UNL     1      32.681  -9.134 -22.733  0.00  0.00    -0.323 NA
ATOM     20  N   UNL     1      34.314 -10.172 -24.169  0.00  0.00    -0.170 NA
ATOM     21  N   UNL     1      31.139 -10.466 -21.519  0.00  0.00    -0.332 N 
ATOM     22  N   UNL     1      34.217  -7.839 -23.945  0.00  0.00    -0.293 N 
ATOM     23  C   UNL     1      32.762 -11.506 -22.947  0.00  0.00    +0.047 C 
ATOM     24  C   UNL     1      32.224 -10.366 -22.425  0.00  0.00    +0.188 C 
ATOM     25  C   UNL     1      33.807 -11.371 -23.816  0.00  0.00    +0.112 C 
ATOM     26  C   UNL     1      33.712  -9.111 -23.599  0.00  0.00    +0.143 C 
ATOM     27  H   UNL     1      30.741  -9.651 -21.135  0.00  0.00    +0.145 HD
ATOM     28  H   UNL     1      30.783 -11.350 -21.274  0.00  0.00    +0.145 HD
ATOM     29  H   UNL     1      33.815  -7.028 -23.556  0.00  0.00    +0.155 HD
ATOM     30  H   UNL     1      34.970  -7.762 -24.573  0.00  0.00    +0.155 HD
ENDBRANCH  18  23
ENDBRANCH   7  18
TORSDOF 5
ENDMDL
MODEL 2
REMARK VINA RESULT:     -10.3     10.782     13.763
REMARK  Name = 10247560
REMARK  5 active torsions:
REMARK  status: ('A' for Active; 'I' for Inactive)
REMARK    1  A    between atoms: C_2  and  C_11
REMARK    2  A    between atoms: C_7  and  C_18
REMARK    3  A    between atoms: C_8  and  O_14
REMARK    4  A    between atoms: C_10  and  O_16
REMARK    5  A    between atoms: C_18  and  C_23
REMARK                            x       y       z     vdW  Elec       q    Type
REMARK                         _______ _______ _______ _____ _____    ______ ____
ROOT
ATOM      1  O   UNL     1      31.467 -23.689 -16.782  0.00  0.00    -0.471 OA
ATOM      2  C   UNL     1      30.577 -24.002 -15.690  0.00  0.00    +0.117 C 
ATOM      3  C   UNL     1      31.237 -24.458 -14.415  0.00  0.00    +0.032 C 
ATOM      4  C   UNL     1      32.794 -23.511 -16.509  0.00  0.00    +0.246 C 
ATOM      5  C   UNL     1      32.554 -24.381 -14.215  0.00  0.00    +0.002 C 
ATOM      6  C   UNL     1      33.377 -23.830 -15.280  0.00  0.00    +0.021 C 
ATOM      7  C   UNL     1      34.751 -23.634 -15.096  0.00  0.00    -0.015 C 
ATOM      8  C   UNL     1      33.580 -23.005 -17.549  0.00  0.00    +0.194 C 
ATOM      9  C   UNL     1      35.532 -23.121 -16.132  0.00  0.00    +0.036 C 
ATOM     10  C   UNL     1      34.946 -22.808 -17.358  0.00  0.00    +0.172 C 
ENDROOT
BRANCH   2  11
ATOM     11  C   UNL     1      29.649 -22.831 -15.498  0.00  0.00    +0.057 C 
ATOM     12  C   UNL     1      28.753 -22.442 -16.623  0.00  0.00    +0.008 C 
ATOM     13  C   UNL     1      28.186 -23.094 -15.396  0.00  0.00    +0.008 C 
ENDBRANCH   2  11
BRANCH   8  14
ATOM     14  O   UNL     1      33.014 -22.701 -18.751  0.00  0.00    -0.469 OA
ATOM     15  C   UNL     1      33.039 -21.332 -19.150  0.00  0.00    +0.252 C 
ENDBRANCH   8  14
BRANCH  10  16
ATOM     16  O   UNL     1      35.722 -22.311 -18.362  0.00  0.00    -0.469 OA
ATOM     17  C   UNL     1      36.806 -21.463 -17.985  0.00  0.00    +0.253 C 
ENDBRANCH  10  16
BRANCH   7  18
ATOM     18  C   UNL     1      35.436 -23.954 -13.805  0.00  0.00    +0.058 C 
BRANCH  18  23
ATOM     19  N   UNL     1      38.104 -26.478 -14.702  0.00  0.00    -0.323 NA
ATOM     20  N   UNL     1      39.142 -24.556 -13.683  0.00  0.00    -0.170 NA
ATOM     21  N   UNL     1      35.751 -26.550 -14.993  0.00  0.00    -0.332 N 
ATOM     22  N   UNL     1      40.429 -26.381 -14.402  0.00  0.00    -0.293 N 
ATOM     23  C   UNL     1      36.778 -24.634 -13.979  0.00  0.00    +0.047 C 
ATOM     24  C   UNL     1      36.910 -25.868 -14.545  0.00  0.00    +0.188 C 
ATOM     25  C   UNL     1      37.916 -24.006 -13.559  0.00  0.00    +0.112 C 
ATOM     26  C   UNL     1      39.163 -25.775 -14.255  0.00  0.00    +0.143 C 
ATOM     27  H   UNL     1      35.832 -27.441 -15.404  0.00  0.00    +0.145 HD
ATOM     28  H   UNL     1      34.865 -26.133 -14.894  0.00  0.00    +0.145 HD
ATOM     29  H   UNL     1      40.503 -27.272 -14.815  0.00  0.00    +0.155 HD
ATOM     30  H   UNL     1      41.238 -25.913 -14.093  0.00  0.00    +0.155 HD
ENDBRANCH  18  23
ENDBRANCH   7  18
TORSDOF 5
ENDMDL
MODEL 3
REMARK VINA RESULT:     -10.1     10.438     13.214
REMARK  Name = 10247560
REMARK  5 active torsions:
REMARK  status: ('A' for Active; 'I' for Inactive)
REMARK    1  A    between atoms: C_2  and  C_11
REMARK    2  A    between atoms: C_7  and  C_18
REMARK    3  A    between atoms: C_8  and  O_14
REMARK    4  A    between atoms: C_10  and  O_16
REMARK    5  A    between atoms: C_18  and  C_23
REMARK                            x       y       z     vdW  Elec       q    Type
REMARK                         _______ _______ _______ _____ _____    ______ ____
ROOT
ATOM      1  O   UNL     1      36.886 -23.316 -13.946  0.00  0.00    -0.471 OA
ATOM      2  C   UNL     1      36.926 -23.796 -12.586  0.00  0.00    +0.117 C 
ATOM      3  C   UNL     1      35.588 -24.023 -11.931  0.00  0.00    +0.032 C 
ATOM      4  C   UNL     1      35.708 -23.410 -14.635  0.00  0.00    +0.246 C 
ATOM      5  C   UNL     1      34.438 -23.996 -12.606  0.00  0.00    +0.002 C 
ATOM      6  C   UNL     1      34.489 -23.735 -14.036  0.00  0.00    +0.021 C 
ATOM      7  C   UNL     1      33.328 -23.788 -14.816  0.00  0.00    -0.015 C 
ATOM      8  C   UNL     1      35.766 -23.132 -16.004  0.00  0.00    +0.194 C 
ATOM      9  C   UNL     1      33.390 -23.519 -16.184  0.00  0.00    +0.036 C 
ATOM     10  C   UNL     1      34.608 -23.190 -16.777  0.00  0.00    +0.172 C 
ENDROOT
BRANCH   2  11
ATOM     11  C   UNL     1      37.824 -25.005 -12.547  0.00  0.00    +0.057 C 
ATOM     12  C   UNL     1      37.332 -26.275 -13.150  0.00  0.00    +0.008 C 
ATOM     13  C   UNL     1      38.418 -25.489 -13.825  0.00  0.00    +0.008 C 
ENDBRANCH   2  11
BRANCH   8  14
ATOM     14  O   UNL     1      36.954 -22.806 -16.589  0.00  0.00    -0.469 OA
ATOM     15  C   UNL     1      37.234 -21.418 -16.753  0.00  0.00    +0.252 C 
ENDBRANCH   8  14
BRANCH  10  16
ATOM     16  O   UNL     1      34.652 -22.926 -18.112  0.00  0.00    -0.469 OA
ATOM     17  C   UNL     1      33.507 -22.298 -18.687  0.00  0.00    +0.253 C 
ENDBRANCH  10  16
BRANCH   7  18
ATOM     18  C   UNL     1      31.993 -24.131 -14.237  0.00  0.00    +0.058 C 
BRANCH  18  23
ATOM     19  N   UNL     1      28.673 -24.323 -16.035  0.00  0.00    -0.323 NA
ATOM     20  N   UNL     1      29.879 -22.384 -16.804  0.00  0.00    -0.170 NA
ATOM     21  N   UNL     1      29.624 -25.748 -14.394  0.00  0.00    -0.332 N 
ATOM     22  N   UNL     1      27.755 -22.898 -17.657  0.00  0.00    -0.293 N 
ATOM     23  C   UNL     1      30.830 -23.819 -15.155  0.00  0.00    +0.047 C 
ATOM     24  C   UNL     1      29.712 -24.598 -15.218  0.00  0.00    +0.188 C 
ATOM     25  C   UNL     1      30.880 -22.718 -15.963  0.00  0.00    +0.112 C 
ATOM     26  C   UNL     1      28.822 -23.217 -16.789  0.00  0.00    +0.143 C 
ATOM     27  H   UNL     1      28.823 -26.320 -14.430  0.00  0.00    +0.145 HD
ATOM     28  H   UNL     1      30.365 -25.976 -13.787  0.00  0.00    +0.145 HD
ATOM     29  H   UNL     1      26.956 -23.473 -17.686  0.00  0.00    +0.155 HD
ATOM     30  H   UNL     1      27.809 -22.101 -18.231  0.00  0.00    +0.155 HD
ENDBRANCH  18  23
ENDBRANCH   7  18
TORSDOF 5
ENDMDL
MODEL 4
REMARK VINA RESULT:      -9.3      4.572      7.372
REMARK  Name = 10247560
REMARK  5 active torsions:
REMARK  status: ('A' for Active; 'I' for Inactive)
REMARK    1  A    between atoms: C_2  and  C_11
REMARK    2  A    between atoms: C_7  and  C_18
REMARK    3  A    between atoms: C_8  and  O_14
REMARK    4  A    between atoms: C_10  and  O_16
REMARK    5  A    between atoms: C_18  and  C_23
REMARK                            x       y       z     vdW  Elec       q    Type
REMARK                         _______ _______ _______ _____ _____    ______ ____
ROOT
ATOM      1  O   UNL     1      33.201 -14.220 -24.390  0.00  0.00    -0.471 OA
ATOM      2  C   UNL     1      33.152 -13.174 -23.398  0.00  0.00    +0.117 C 
ATOM      3  C   UNL     1      33.423 -13.602 -21.979  0.00  0.00    +0.032 C 
ATOM      4  C   UNL     1      33.787 -15.409 -24.055  0.00  0.00    +0.246 C 
ATOM      5  C   UNL     1      33.889 -14.813 -21.665  0.00  0.00    +0.002 C 
ATOM      6  C   UNL     1      34.142 -15.750 -22.748  0.00  0.00    +0.021 C 
ATOM      7  C   UNL     1      34.720 -17.000 -22.493  0.00  0.00    -0.015 C 
ATOM      8  C   UNL     1      34.002 -16.312 -25.100  0.00  0.00    +0.194 C 
ATOM      9  C   UNL     1      34.941 -17.897 -23.539  0.00  0.00    +0.036 C 
ATOM     10  C   UNL     1      34.582 -17.553 -24.841  0.00  0.00    +0.172 C 
ENDROOT
BRANCH   2  11
ATOM     11  C   UNL     1      34.040 -12.051 -23.864  0.00  0.00    +0.057 C 
ATOM     12  C   UNL     1      33.906 -11.576 -25.270  0.00  0.00    +0.008 C 
ATOM     13  C   UNL     1      33.422 -10.722 -24.134  0.00  0.00    +0.008 C 
ENDBRANCH   2  11
BRANCH   8  14
ATOM     14  O   UNL     1      33.649 -15.984 -26.375  0.00  0.00    -0.469 OA
ATOM     15  C   UNL     1      32.283 -16.175 -26.737  0.00  0.00    +0.252 C 
ENDBRANCH   8  14
BRANCH  10  16
ATOM     16  O   UNL     1      34.800 -18.440 -25.852  0.00  0.00    -0.469 OA
ATOM     17  C   UNL     1      34.600 -19.822 -25.556  0.00  0.00    +0.253 C 
ENDBRANCH  10  16
BRANCH   7  18
ATOM     18  C   UNL     1      35.124 -17.427 -21.117  0.00  0.00    +0.058 C 
BRANCH  18  23
ATOM     19  N   UNL     1      34.941 -21.026 -19.979  0.00  0.00    -0.323 NA
ATOM     20  N   UNL     1      32.711 -20.215 -20.400  0.00  0.00    -0.170 NA
ATOM     21  N   UNL     1      36.810 -19.602 -20.299  0.00  0.00    -0.332 N 
ATOM     22  N   UNL     1      33.075 -22.415 -19.670  0.00  0.00    -0.293 N 
ATOM     23  C   UNL     1      34.594 -18.788 -20.720  0.00  0.00    +0.047 C 
ATOM     24  C   UNL     1      35.409 -19.811 -20.334  0.00  0.00    +0.188 C 
ATOM     25  C   UNL     1      33.249 -19.026 -20.742  0.00  0.00    +0.112 C 
ATOM     26  C   UNL     1      33.601 -21.157 -20.035  0.00  0.00    +0.143 C 
ATOM     27  H   UNL     1      37.411 -20.332 -20.023  0.00  0.00    +0.145 HD
ATOM     28  H   UNL     1      37.184 -18.727 -20.552  0.00  0.00    +0.145 HD
ATOM     29  H   UNL     1      33.681 -23.140 -19.394  0.00  0.00    +0.155 HD
ATOM     30  H   UNL     1      32.103 -22.567 -19.692  0.00  0.00    +0.155 HD
ENDBRANCH  18  23
ENDBRANCH   7  18
TORSDOF 5
ENDMDL
MODEL 5
REMARK VINA RESULT:      -9.3      8.349     11.795
REMARK  Name = 10247560
REMARK  5 active torsions:
REMARK  status: ('A' for Active; 'I' for Inactive)
REMARK    1  A    between atoms: C_2  and  C_11
REMARK    2  A    between atoms: C_7  and  C_18
REMARK    3  A    between atoms: C_8  and  O_14
REMARK    4  A    between atoms: C_10  and  O_16
REMARK    5  A    between atoms: C_18  and  C_23
REMARK                            x       y       z     vdW  Elec       q    Type
REMARK                         _______ _______ _______ _____ _____    ______ ____
ROOT
ATOM      1  O   UNL     1      33.975 -24.105 -13.606  0.00  0.00    -0.471 OA
ATOM      2  C   UNL     1      35.395 -24.350 -13.545  0.00  0.00    +0.117 C 
ATOM      3  C   UNL     1      36.091 -24.513 -14.872  0.00  0.00    +0.032 C 
ATOM      4  C   UNL     1      33.431 -23.723 -14.801  0.00  0.00    +0.246 C 
ATOM      5  C   UNL     1      35.499 -24.242 -16.037  0.00  0.00    +0.002 C 
ATOM      6  C   UNL     1      34.124 -23.769 -16.012  0.00  0.00    +0.021 C 
ATOM      7  C   UNL     1      33.480 -23.376 -17.192  0.00  0.00    -0.015 C 
ATOM      8  C   UNL     1      32.101 -23.294 -14.768  0.00  0.00    +0.194 C 
ATOM      9  C   UNL     1      32.155 -22.941 -17.157  0.00  0.00    +0.036 C 
ATOM     10  C   UNL     1      31.466 -22.901 -15.946  0.00  0.00    +0.172 C 
ENDROOT
BRANCH   2  11
ATOM     11  C   UNL     1      36.012 -23.288 -12.673  0.00  0.00    +0.057 C 
ATOM     12  C   UNL     1      36.381 -23.644 -11.274  0.00  0.00    +0.008 C 
ATOM     13  C   UNL     1      37.450 -23.419 -12.304  0.00  0.00    +0.008 C 
ENDBRANCH   2  11
BRANCH   8  14
ATOM     14  O   UNL     1      31.419 -23.257 -13.588  0.00  0.00    -0.469 OA
ATOM     15  C   UNL     1      30.650 -24.408 -13.249  0.00  0.00    +0.252 C 
ENDBRANCH   8  14
BRANCH  10  16
ATOM     16  O   UNL     1      30.171 -22.477 -15.927  0.00  0.00    -0.469 OA
ATOM     17  C   UNL     1      29.196 -23.348 -16.497  0.00  0.00    +0.253 C 
ENDBRANCH  10  16
BRANCH   7  18
ATOM     18  C   UNL     1      34.166 -23.401 -18.521  0.00  0.00    +0.058 C 
BRANCH  18  23
ATOM     19  N   UNL     1      35.233 -20.106 -20.035  0.00  0.00    -0.323 NA
ATOM     20  N   UNL     1      32.882 -20.441 -20.445  0.00  0.00    -0.170 NA
ATOM     21  N   UNL     1      36.481 -21.731 -18.842  0.00  0.00    -0.332 N 
ATOM     22  N   UNL     1      33.975 -18.513 -21.213  0.00  0.00    -0.293 N 
ATOM     23  C   UNL     1      34.141 -22.072 -19.246  0.00  0.00    +0.047 C 
ATOM     24  C   UNL     1      35.251 -21.291 -19.390  0.00  0.00    +0.188 C 
ATOM     25  C   UNL     1      32.973 -21.615 -19.787  0.00  0.00    +0.112 C 
ATOM     26  C   UNL     1      34.032 -19.747 -20.530  0.00  0.00    +0.143 C 
ATOM     27  H   UNL     1      37.290 -21.178 -18.938  0.00  0.00    +0.145 HD
ATOM     28  H   UNL     1      36.528 -22.591 -18.366  0.00  0.00    +0.145 HD
ATOM     29  H   UNL     1      34.788 -17.964 -21.306  0.00  0.00    +0.155 HD
ATOM     30  H   UNL     1      33.123 -18.200 -21.595  0.00  0.00    +0.155 HD
ENDBRANCH  18  23
ENDBRANCH   7  18
TORSDOF 5
ENDMDL
MODEL 6
REMARK VINA RESULT:      -9.0      4.066      7.976
REMARK  Name = 10247560
REMARK  5 active torsions:
REMARK  status: ('A' for Active; 'I' for Inactive)
REMARK    1  A    between atoms: C_2  and  C_11
REMARK    2  A    between atoms: C_7  and  C_18
REMARK    3  A    between atoms: C_8  and  O_14
REMARK    4  A    between atoms: C_10  and  O_16
REMARK    5  A    between atoms: C_18  and  C_23
REMARK                            x       y       z     vdW  Elec       q    Type
REMARK                         _______ _______ _______ _____ _____    ______ ____
ROOT
ATOM      1  O   UNL     1      33.757  -8.480 -23.218  0.00  0.00    -0.471 OA
ATOM      2  C   UNL     1      34.649  -8.276 -24.334  0.00  0.00    +0.117 C 
ATOM      3  C   UNL     1      35.178  -9.526 -24.987  0.00  0.00    +0.032 C 
ATOM      4  C   UNL     1      33.208  -9.720 -23.041  0.00  0.00    +0.246 C 
ATOM      5  C   UNL     1      34.703 -10.743 -24.713  0.00  0.00    +0.002 C 
ATOM      6  C   UNL     1      33.629 -10.854 -23.739  0.00  0.00    +0.021 C 
ATOM      7  C   UNL     1      33.023 -12.089 -23.478  0.00  0.00    -0.015 C 
ATOM      8  C   UNL     1      32.194  -9.819 -22.084  0.00  0.00    +0.194 C 
ATOM      9  C   UNL     1      32.005 -12.185 -22.528  0.00  0.00    +0.036 C 
ATOM     10  C   UNL     1      31.593 -11.051 -21.832  0.00  0.00    +0.172 C 
ENDROOT
BRANCH   2  11
ATOM     11  C   UNL     1      33.978  -7.334 -25.298  0.00  0.00    +0.057 C 
ATOM     12  C   UNL     1      33.335  -6.103 -24.758  0.00  0.00    +0.008 C 
ATOM     13  C   UNL     1      34.608  -6.007 -25.548  0.00  0.00    +0.008 C 
ENDBRANCH   2  11
BRANCH   8  14
ATOM     14  O   UNL     1      31.788  -8.714 -21.396  0.00  0.00    -0.469 OA
ATOM     15  C   UNL     1      32.632  -8.265 -20.339  0.00  0.00    +0.252 C 
ENDBRANCH   8  14
BRANCH  10  16
ATOM     16  O   UNL     1      30.600 -11.160 -20.904  0.00  0.00    -0.469 OA
ATOM     17  C   UNL     1      30.993 -11.176 -19.533  0.00  0.00    +0.253 C 
ENDBRANCH  10  16
BRANCH   7  18
ATOM     18  C   UNL     1      33.426 -13.341 -24.190  0.00  0.00    +0.058 C 
BRANCH  18  23
ATOM     19  N   UNL     1      34.599 -16.687 -22.880  0.00  0.00    -0.323 NA
ATOM     20  N   UNL     1      34.606 -15.085 -21.079  0.00  0.00    -0.170 NA
ATOM     21  N   UNL     1      33.920 -16.035 -25.056  0.00  0.00    -0.332 N 
ATOM     22  N   UNL     1      35.265 -17.307 -20.717  0.00  0.00    -0.293 N 
ATOM     23  C   UNL     1      33.925 -14.435 -23.269  0.00  0.00    +0.047 C 
ATOM     24  C   UNL     1      34.154 -15.710 -23.697  0.00  0.00    +0.188 C 
ATOM     25  C   UNL     1      34.162 -14.158 -21.953  0.00  0.00    +0.112 C 
ATOM     26  C   UNL     1      34.800 -16.311 -21.602  0.00  0.00    +0.143 C 
ATOM     27  H   UNL     1      34.081 -16.951 -25.379  0.00  0.00    +0.145 HD
ATOM     28  H   UNL     1      33.596 -15.344 -25.679  0.00  0.00    +0.145 HD
ATOM     29  H   UNL     1      35.425 -18.222 -21.046  0.00  0.00    +0.155 HD
ATOM     30  H   UNL     1      35.430 -17.088 -19.771  0.00  0.00    +0.155 HD
ENDBRANCH  18  23
ENDBRANCH   7  18
TORSDOF 5
ENDMDL
MODEL 7
REMARK VINA RESULT:      -8.9      3.766      6.970
REMARK  Name = 10247560
REMARK  5 active torsions:
REMARK  status: ('A' for Active; 'I' for Inactive)
REMARK    1  A    between atoms: C_2  and  C_11
REMARK    2  A    between atoms: C_7  and  C_18
REMARK    3  A    between atoms: C_8  and  O_14
REMARK    4  A    between atoms: C_10  and  O_16
REMARK    5  A    between atoms: C_18  and  C_23
REMARK                            x       y       z     vdW  Elec       q    Type
REMARK                         _______ _______ _______ _____ _____    ______ ____
ROOT
ATOM      1  O   UNL     1      32.106  -9.438 -22.340  0.00  0.00    -0.471 OA
ATOM      2  C   UNL     1      31.506  -9.382 -21.029  0.00  0.00    +0.117 C 
ATOM      3  C   UNL     1      31.093 -10.706 -20.439  0.00  0.00    +0.032 C 
ATOM      4  C   UNL     1      32.549 -10.646 -22.802  0.00  0.00    +0.246 C 
ATOM      5  C   UNL     1      31.442 -11.877 -20.976  0.00  0.00    +0.002 C 
ATOM      6  C   UNL     1      32.256 -11.862 -22.180  0.00  0.00    +0.021 C 
ATOM      7  C   UNL     1      32.735 -13.055 -22.737  0.00  0.00    -0.015 C 
ATOM      8  C   UNL     1      33.309 -10.621 -23.975  0.00  0.00    +0.194 C 
ATOM      9  C   UNL     1      33.500 -13.027 -23.903  0.00  0.00    +0.036 C 
ATOM     10  C   UNL     1      33.785 -11.812 -24.522  0.00  0.00    +0.172 C 
ENDROOT
BRANCH   2  11
ATOM     11  C   UNL     1      32.419  -8.587 -20.134  0.00  0.00    +0.057 C 
ATOM     12  C   UNL     1      33.308  -7.565 -20.754  0.00  0.00    +0.008 C 
ATOM     13  C   UNL     1      32.128  -7.140 -19.929  0.00  0.00    +0.008 C 
ENDBRANCH   2  11
BRANCH   8  14
ATOM     14  O   UNL     1      33.588  -9.436 -24.588  0.00  0.00    -0.469 OA
ATOM     15  C   UNL     1      34.759  -8.746 -24.158  0.00  0.00    +0.252 C 
ENDBRANCH   8  14
BRANCH  10  16
ATOM     16  O   UNL     1      34.531 -11.800 -25.662  0.00  0.00    -0.469 OA
ATOM     17  C   UNL     1      33.919 -12.321 -26.842  0.00  0.00    +0.253 C 
ENDBRANCH  10  16
BRANCH   7  18
ATOM     18  C   UNL     1      32.459 -14.389 -22.121  0.00  0.00    +0.058 C 
BRANCH  18  23
ATOM     19  N   UNL     1      35.349 -16.770 -21.607  0.00  0.00    -0.323 NA
ATOM     20  N   UNL     1      34.660 -16.848 -23.915  0.00  0.00    -0.170 NA
ATOM     21  N   UNL     1      34.236 -15.342 -20.075  0.00  0.00    -0.332 N 
ATOM     22  N   UNL     1      36.434 -18.174 -23.142  0.00  0.00    -0.293 N 
ATOM     23  C   UNL     1      33.544 -15.414 -22.371  0.00  0.00    +0.047 C 
ATOM     24  C   UNL     1      34.380 -15.856 -21.388  0.00  0.00    +0.188 C 
ATOM     25  C   UNL     1      33.713 -15.933 -23.624  0.00  0.00    +0.112 C 
ATOM     26  C   UNL     1      35.432 -17.217 -22.875  0.00  0.00    +0.143 C 
ATOM     27  H   UNL     1      34.833 -15.652 -19.356  0.00  0.00    +0.145 HD
ATOM     28  H   UNL     1      33.539 -14.674 -19.883  0.00  0.00    +0.145 HD
ATOM     29  H   UNL     1      37.027 -18.481 -22.418  0.00  0.00    +0.155 HD
ATOM     30  H   UNL     1      36.540 -18.536 -24.052  0.00  0.00    +0.155 HD
ENDBRANCH  18  23
ENDBRANCH   7  18
TORSDOF 5
ENDMDL
MODEL 8
REMARK VINA RESULT:      -8.8      3.973      7.129
REMARK  Name = 10247560
REMARK  5 active torsions:
REMARK  status: ('A' for Active; 'I' for Inactive)
REMARK    1  A    between atoms: C_2  and  C_11
REMARK    2  A    between atoms: C_7  and  C_18
REMARK    3  A    between atoms: C_8  and  O_14
REMARK    4  A    between atoms: C_10  and  O_16
REMARK    5  A    between atoms: C_18  and  C_23
REMARK                            x       y       z     vdW  Elec       q    Type
REMARK                         _______ _______ _______ _____ _____    ______ ____
ROOT
ATOM      1  O   UNL     1      31.927  -9.885 -22.026  0.00  0.00    -0.471 OA
ATOM      2  C   UNL     1      31.555  -9.415 -20.713  0.00  0.00    +0.117 C 
ATOM      3  C   UNL     1      31.267 -10.483 -19.690  0.00  0.00    +0.032 C 
ATOM      4  C   UNL     1      32.303 -11.192 -22.167  0.00  0.00    +0.246 C 
ATOM      5  C   UNL     1      31.539 -11.774 -19.896  0.00  0.00    +0.002 C 
ATOM      6  C   UNL     1      32.137 -12.153 -21.166  0.00  0.00    +0.021 C 
ATOM      7  C   UNL     1      32.533 -13.475 -21.406  0.00  0.00    -0.015 C 
ATOM      8  C   UNL     1      32.853 -11.550 -23.401  0.00  0.00    +0.194 C 
ATOM      9  C   UNL     1      33.090 -13.828 -22.635  0.00  0.00    +0.036 C 
ATOM     10  C   UNL     1      33.249 -12.867 -23.632  0.00  0.00    +0.172 C 
ENDROOT
BRANCH   2  11
ATOM     11  C   UNL     1      32.594  -8.421 -20.265  0.00  0.00    +0.057 C 
ATOM     12  C   UNL     1      33.226  -7.543 -21.290  0.00  0.00    +0.008 C 
ATOM     13  C   UNL     1      32.252  -6.971 -20.301  0.00  0.00    +0.008 C 
ENDBRANCH   2  11
BRANCH   8  14
ATOM     14  O   UNL     1      33.007 -10.616 -24.381  0.00  0.00    -0.469 OA
ATOM     15  C   UNL     1      34.232  -9.886 -24.392  0.00  0.00    +0.252 C 
ENDBRANCH   8  14
BRANCH  10  16
ATOM     16  O   UNL     1      33.791 -13.227 -24.829  0.00  0.00    -0.469 OA
ATOM     17  C   UNL     1      33.058 -14.166 -25.615  0.00  0.00    +0.253 C 
ENDBRANCH  10  16
BRANCH   7  18
ATOM     18  C   UNL     1      32.384 -14.550 -20.377  0.00  0.00    +0.058 C 
BRANCH  18  23
ATOM     19  N   UNL     1      33.481 -18.108 -21.030  0.00  0.00    -0.323 NA
ATOM     20  N   UNL     1      35.422 -16.682 -20.960  0.00  0.00    -0.170 NA
ATOM     21  N   UNL     1      31.315 -17.195 -20.711  0.00  0.00    -0.332 N 
ATOM     22  N   UNL     1      35.634 -18.986 -21.343  0.00  0.00    -0.293 N 
ATOM     23  C   UNL     1      33.243 -15.769 -20.640  0.00  0.00    +0.047 C 
ATOM     24  C   UNL     1      32.719 -17.019 -20.796  0.00  0.00    +0.188 C 
ATOM     25  C   UNL     1      34.600 -15.637 -20.728  0.00  0.00    +0.112 C 
ATOM     26  C   UNL     1      34.805 -17.870 -21.098  0.00  0.00    +0.143 C 
ATOM     27  H   UNL     1      30.924 -18.092 -20.821  0.00  0.00    +0.145 HD
ATOM     28  H   UNL     1      30.732 -16.421 -20.541  0.00  0.00    +0.145 HD
ATOM     29  H   UNL     1      35.236 -19.880 -21.453  0.00  0.00    +0.155 HD
ATOM     30  H   UNL     1      36.610 -18.871 -21.403  0.00  0.00    +0.155 HD
ENDBRANCH  18  23
ENDBRANCH   7  18
TORSDOF 5
ENDMDL
MODEL 9
REMARK VINA RESULT:      -8.7      3.998      8.003
REMARK  Name = 10247560
REMARK  5 active torsions:
REMARK  status: ('A' for Active; 'I' for Inactive)
REMARK    1  A    between atoms: C_2  and  C_11
REMARK    2  A    between atoms: C_7  and  C_18
REMARK    3  A    between atoms: C_8  and  O_14
REMARK    4  A    between atoms: C_10  and  O_16
REMARK    5  A    between atoms: C_18  and  C_23
REMARK                            x       y       z     vdW  Elec       q    Type
REMARK                         _______ _______ _______ _____ _____    ______ ____
ROOT
ATOM      1  O   UNL     1      32.750  -8.001 -21.928  0.00  0.00    -0.471 OA
ATOM      2  C   UNL     1      33.263  -7.008 -22.840  0.00  0.00    +0.117 C 
ATOM      3  C   UNL     1      34.033  -7.538 -24.022  0.00  0.00    +0.032 C 
ATOM      4  C   UNL     1      32.704  -9.303 -22.342  0.00  0.00    +0.246 C 
ATOM      5  C   UNL     1      34.067  -8.833 -24.341  0.00  0.00    +0.002 C 
ATOM      6  C   UNL     1      33.325  -9.763 -23.505  0.00  0.00    +0.021 C 
ATOM      7  C   UNL     1      33.243 -11.120 -23.842  0.00  0.00    -0.015 C 
ATOM      8  C   UNL     1      32.010 -10.193 -21.517  0.00  0.00    +0.194 C 
ATOM      9  C   UNL     1      32.543 -12.006 -23.021  0.00  0.00    +0.036 C 
ATOM     10  C   UNL     1      31.928 -11.542 -21.859  0.00  0.00    +0.172 C 
ENDROOT
BRANCH   2  11
ATOM     11  C   UNL     1      32.125  -6.100 -23.224  0.00  0.00    +0.057 C 
ATOM     12  C   UNL     1      32.160  -5.444 -24.562  0.00  0.00    +0.008 C 
ATOM     13  C   UNL     1      31.185  -6.551 -24.288  0.00  0.00    +0.008 C 
ENDBRANCH   2  11
BRANCH   8  14
ATOM     14  O   UNL     1      31.410  -9.747 -20.377  0.00  0.00    -0.469 OA
ATOM     15  C   UNL     1      32.072 -10.027 -19.146  0.00  0.00    +0.252 C 
ENDBRANCH   8  14
BRANCH  10  16
ATOM     16  O   UNL     1      31.251 -12.418 -21.066  0.00  0.00    -0.469 OA
ATOM     17  C   UNL     1      31.954 -13.586 -20.644  0.00  0.00    +0.253 C 
ENDBRANCH  10  16
BRANCH   7  18
ATOM     18  C   UNL     1      33.885 -11.677 -25.073  0.00  0.00    +0.058 C 
BRANCH  18  23
ATOM     19  N   UNL     1      33.488 -15.218 -26.332  0.00  0.00    -0.323 NA
ATOM     20  N   UNL     1      34.224 -15.272 -24.038  0.00  0.00    -0.170 NA
ATOM     21  N   UNL     1      33.134 -13.144 -27.425  0.00  0.00    -0.332 N 
ATOM     22  N   UNL     1      33.846 -17.258 -25.228  0.00  0.00    -0.293 N 
ATOM     23  C   UNL     1      33.866 -13.189 -25.141  0.00  0.00    +0.047 C 
ATOM     24  C   UNL     1      33.506 -13.870 -26.267  0.00  0.00    +0.188 C 
ATOM     25  C   UNL     1      34.220 -13.923 -24.044  0.00  0.00    +0.112 C 
ATOM     26  C   UNL     1      33.853 -15.846 -25.198  0.00  0.00    +0.143 C 
ATOM     27  H   UNL     1      32.871 -13.622 -28.244  0.00  0.00    +0.145 HD
ATOM     28  H   UNL     1      33.137 -12.159 -27.410  0.00  0.00    +0.145 HD
ATOM     29  H   UNL     1      33.584 -17.731 -26.051  0.00  0.00    +0.155 HD
ATOM     30  H   UNL     1      34.104 -17.769 -24.427  0.00  0.00    +0.155 HD
ENDBRANCH  18  23
ENDBRANCH   7  18
TORSDOF 5
ENDMDL
