MODEL 1
REMARK VINA RESULT:      -8.7      0.000      0.000
REMARK  Name = 11993740
REMARK  6 active torsions:
REMARK  status: ('A' for Active; 'I' for Inactive)
REMARK    1  A    between atoms: N_2  and  C_23
REMARK    2  A    between atoms: C_4  and  N_12
REMARK    3  A    between atoms: C_5  and  O_26
REMARK    4  A    between atoms: C_9  and  C_29
REMARK    5  A    between atoms: C_14  and  N_19
REMARK    6  A    between atoms: C_29  and  O_30
REMARK                            x       y       z     vdW  Elec       q    Type
REMARK                         _______ _______ _______ _____ _____    ______ ____
ROOT
ATOM      1  O   UNL     1      36.160 -20.375 -19.888  0.00  0.00    -0.286 OA
ATOM      2  N   UNL     1      33.703 -22.708 -17.622  0.00  0.00    -0.285 N 
ATOM      3  C   UNL     1      35.071 -22.597 -17.240  0.00  0.00    +0.090 C 
ATOM      4  C   UNL     1      36.948 -23.124 -15.777  0.00  0.00    +0.083 C 
ATOM      5  C   UNL     1      35.600 -23.258 -16.120  0.00  0.00    +0.165 C 
ATOM      6  C   UNL     1      33.249 -22.031 -18.736  0.00  0.00    +0.075 C 
ATOM      7  C   UNL     1      35.944 -21.796 -18.007  0.00  0.00    +0.056 C 
ATOM      8  C   UNL     1      37.792 -22.329 -16.545  0.00  0.00    +0.018 C 
ATOM      9  C   UNL     1      33.990 -21.248 -19.530  0.00  0.00    +0.129 C 
ATOM     10  C   UNL     1      37.295 -21.662 -17.661  0.00  0.00    +0.006 C 
ATOM     11  C   UNL     1      35.429 -21.077 -19.202  0.00  0.00    +0.204 C 
ENDROOT
BRANCH   4  12
ATOM     12  N   UNL     1      37.471 -23.783 -14.658  0.00  0.00    -0.307 N 
ATOM     13  C   UNL     1      38.841 -25.610 -13.716  0.00  0.00    +0.018 C 
ATOM     14  C   UNL     1      37.212 -24.321 -12.253  0.00  0.00    -0.046 C 
ATOM     15  C   UNL     1      38.554 -25.060 -12.312  0.00  0.00    -0.019 C 
ATOM     16  C   UNL     1      38.750 -24.495 -14.769  0.00  0.00    +0.091 C 
ATOM     17  C   UNL     1      37.141 -23.235 -13.333  0.00  0.00    +0.069 C 
ATOM     18  C   UNL     1      40.214 -26.279 -13.759  0.00  0.00    +0.002 C 
BRANCH  14  19
ATOM     19  N   UNL     1      36.096 -25.258 -12.407  0.00  0.00    +0.383 N 
ATOM     20  H   UNL     1      35.583 -25.322 -11.528  0.00  0.00    -0.089 HD
ATOM     21  H   UNL     1      36.457 -26.178 -12.660  0.00  0.00    -0.089 HD
ATOM     22  H   UNL     1      35.472 -24.924 -13.141  0.00  0.00    -0.089 HD
ENDBRANCH  14  19
ENDBRANCH   4  12
BRANCH   2  23
ATOM     23  C   UNL     1      32.707 -23.521 -16.885  0.00  0.00    +0.077 C 
ATOM     24  C   UNL     1      31.267 -23.134 -16.873  0.00  0.00    +0.022 C 
ATOM     25  C   UNL     1      32.090 -23.014 -15.625  0.00  0.00    +0.022 C 
ENDBRANCH   2  23
BRANCH   5  26
ATOM     26  O   UNL     1      34.839 -24.056 -15.312  0.00  0.00    -0.469 OA
ATOM     27  C   UNL     1      35.052 -25.461 -15.410  0.00  0.00    +0.253 C 
ENDBRANCH   5  26
BRANCH   9  29
ATOM     28  O   UNL     1      32.137 -20.507 -20.821  0.00  0.00    -0.245 OA
ATOM     29  C   UNL     1      33.342 -20.602 -20.673  0.00  0.00    +0.342 C 
BRANCH  29  30
ATOM     30  O   UNL     1      34.282 -20.138 -21.525  0.00  0.00    -0.477 OA
ATOM     31  H   UNL     1      34.963 -19.578 -21.210  0.00  0.00    +0.295 HD
ENDBRANCH  29  30
ENDBRANCH   9  29
TORSDOF 6
ENDMDL
MODEL 2
REMARK VINA RESULT:      -8.6      2.417      6.845
REMARK  Name = 11993740
REMARK  6 active torsions:
REMARK  status: ('A' for Active; 'I' for Inactive)
REMARK    1  A    between atoms: N_2  and  C_23
REMARK    2  A    between atoms: C_4  and  N_12
REMARK    3  A    between atoms: C_5  and  O_26
REMARK    4  A    between atoms: C_9  and  C_29
REMARK    5  A    between atoms: C_14  and  N_19
REMARK    6  A    between atoms: C_29  and  O_30
REMARK                            x       y       z     vdW  Elec       q    Type
REMARK                         _______ _______ _______ _____ _____    ______ ____
ROOT
ATOM      1  O   UNL     1      38.123 -23.891 -13.305  0.00  0.00    -0.286 OA
ATOM      2  N   UNL     1      34.209 -23.784 -14.440  0.00  0.00    -0.285 N 
ATOM      3  C   UNL     1      35.185 -23.249 -15.329  0.00  0.00    +0.090 C 
ATOM      4  C   UNL     1      35.838 -22.174 -17.418  0.00  0.00    +0.083 C 
ATOM      5  C   UNL     1      34.851 -22.690 -16.572  0.00  0.00    +0.165 C 
ATOM      6  C   UNL     1      34.608 -24.319 -13.231  0.00  0.00    +0.075 C 
ATOM      7  C   UNL     1      36.548 -23.273 -14.961  0.00  0.00    +0.056 C 
ATOM      8  C   UNL     1      37.176 -22.208 -17.037  0.00  0.00    +0.018 C 
ATOM      9  C   UNL     1      35.869 -24.391 -12.787  0.00  0.00    +0.129 C 
ATOM     10  C   UNL     1      37.536 -22.757 -15.809  0.00  0.00    +0.006 C 
ATOM     11  C   UNL     1      36.950 -23.855 -13.654  0.00  0.00    +0.204 C 
ENDROOT
BRANCH   4  12
ATOM     12  N   UNL     1      35.500 -21.619 -18.658  0.00  0.00    -0.307 N 
ATOM     13  C   UNL     1      35.768 -19.811 -20.320  0.00  0.00    +0.018 C 
ATOM     14  C   UNL     1      33.804 -21.418 -20.453  0.00  0.00    -0.046 C 
ATOM     15  C   UNL     1      34.797 -20.560 -21.244  0.00  0.00    -0.019 C 
ATOM     16  C   UNL     1      36.479 -20.785 -19.368  0.00  0.00    +0.091 C 
ATOM     17  C   UNL     1      34.542 -22.359 -19.493  0.00  0.00    +0.069 C 
ATOM     18  C   UNL     1      36.787 -19.020 -21.138  0.00  0.00    +0.002 C 
BRANCH  14  19
ATOM     19  N   UNL     1      32.867 -20.574 -19.708  0.00  0.00    +0.383 N 
ATOM     20  H   UNL     1      33.354 -19.745 -19.367  0.00  0.00    -0.089 HD
ATOM     21  H   UNL     1      32.492 -21.097 -18.917  0.00  0.00    -0.089 HD
ATOM     22  H   UNL     1      32.103 -20.290 -20.322  0.00  0.00    -0.089 HD
ENDBRANCH  14  19
ENDBRANCH   4  12
BRANCH   2  23
ATOM     23  C   UNL     1      32.756 -23.808 -14.732  0.00  0.00    +0.077 C 
ATOM     24  C   UNL     1      31.792 -23.074 -13.863  0.00  0.00    +0.022 C 
ATOM     25  C   UNL     1      31.817 -24.574 -13.864  0.00  0.00    +0.022 C 
ENDBRANCH   2  23
BRANCH   5  26
ATOM     26  O   UNL     1      33.562 -22.619 -17.022  0.00  0.00    -0.469 OA
ATOM     27  C   UNL     1      33.023 -23.795 -17.620  0.00  0.00    +0.253 C 
ENDBRANCH   5  26
BRANCH   9  29
ATOM     28  O   UNL     1      35.688 -24.553 -10.422  0.00  0.00    -0.245 OA
ATOM     29  C   UNL     1      36.112 -24.995 -11.476  0.00  0.00    +0.342 C 
BRANCH  29  30
ATOM     30  O   UNL     1      36.871 -26.102 -11.619  0.00  0.00    -0.477 OA
ATOM     31  H   UNL     1      37.803 -26.028 -11.674  0.00  0.00    +0.295 HD
ENDBRANCH  29  30
ENDBRANCH   9  29
TORSDOF 6
ENDMDL
MODEL 3
REMARK VINA RESULT:      -8.4      7.819     11.527
REMARK  Name = 11993740
REMARK  6 active torsions:
REMARK  status: ('A' for Active; 'I' for Inactive)
REMARK    1  A    between atoms: N_2  and  C_23
REMARK    2  A    between atoms: C_4  and  N_12
REMARK    3  A    between atoms: C_5  and  O_26
REMARK    4  A    between atoms: C_9  and  C_29
REMARK    5  A    between atoms: C_14  and  N_19
REMARK    6  A    between atoms: C_29  and  O_30
REMARK                            x       y       z     vdW  Elec       q    Type
REMARK                         _______ _______ _______ _____ _____    ______ ____
ROOT
ATOM      1  O   UNL     1      31.335 -11.757 -20.060  0.00  0.00    -0.286 OA
ATOM      2  N   UNL     1      33.354 -12.518 -23.519  0.00  0.00    -0.285 N 
ATOM      3  C   UNL     1      33.272 -13.552 -22.544  0.00  0.00    +0.090 C 
ATOM      4  C   UNL     1      33.754 -15.806 -21.747  0.00  0.00    +0.083 C 
ATOM      5  C   UNL     1      33.856 -14.815 -22.729  0.00  0.00    +0.165 C 
ATOM      6  C   UNL     1      32.756 -11.298 -23.272  0.00  0.00    +0.075 C 
ATOM      7  C   UNL     1      32.579 -13.316 -21.337  0.00  0.00    +0.056 C 
ATOM      8  C   UNL     1      33.066 -15.553 -20.565  0.00  0.00    +0.018 C 
ATOM      9  C   UNL     1      32.077 -10.971 -22.166  0.00  0.00    +0.129 C 
ATOM     10  C   UNL     1      32.475 -14.310 -20.355  0.00  0.00    +0.006 C 
ATOM     11  C   UNL     1      31.943 -11.994 -21.097  0.00  0.00    +0.204 C 
ENDROOT
BRANCH   4  12
ATOM     12  N   UNL     1      34.336 -17.064 -21.937  0.00  0.00    -0.307 N 
ATOM     13  C   UNL     1      36.234 -18.604 -21.572  0.00  0.00    +0.018 C 
ATOM     14  C   UNL     1      34.486 -19.095 -23.349  0.00  0.00    -0.046 C 
ATOM     15  C   UNL     1      35.454 -19.693 -22.322  0.00  0.00    -0.019 C 
ATOM     16  C   UNL     1      35.276 -17.585 -20.935  0.00  0.00    +0.091 C 
ATOM     17  C   UNL     1      33.562 -18.063 -22.689  0.00  0.00    +0.069 C 
ATOM     18  C   UNL     1      37.139 -19.226 -20.510  0.00  0.00    +0.002 C 
BRANCH  14  19
ATOM     19  N   UNL     1      35.219 -18.479 -24.457  0.00  0.00    +0.383 N 
ATOM     20  H   UNL     1      34.791 -18.753 -25.342  0.00  0.00    -0.089 HD
ATOM     21  H   UNL     1      36.190 -18.789 -24.437  0.00  0.00    -0.089 HD
ATOM     22  H   UNL     1      35.184 -17.464 -24.364  0.00  0.00    -0.089 HD
ENDBRANCH  14  19
ENDBRANCH   4  12
BRANCH   2  23
ATOM     23  C   UNL     1      34.055 -12.665 -24.817  0.00  0.00    +0.077 C 
ATOM     24  C   UNL     1      34.503 -11.465 -25.581  0.00  0.00    +0.022 C 
ATOM     25  C   UNL     1      33.375 -12.310 -26.096  0.00  0.00    +0.022 C 
ENDBRANCH   2  23
BRANCH   5  26
ATOM     26  O   UNL     1      34.547 -15.145 -23.861  0.00  0.00    -0.469 OA
ATOM     27  C   UNL     1      33.786 -15.644 -24.958  0.00  0.00    +0.253 C 
ENDBRANCH   5  26
BRANCH   9  29
ATOM     28  O   UNL     1      30.824  -9.104 -22.935  0.00  0.00    -0.245 OA
ATOM     29  C   UNL     1      31.504  -9.627 -22.071  0.00  0.00    +0.342 C 
BRANCH  29  30
ATOM     30  O   UNL     1      31.848  -9.070 -20.890  0.00  0.00    -0.477 OA
ATOM     31  H   UNL     1      32.129  -9.612 -20.180  0.00  0.00    +0.295 HD
ENDBRANCH  29  30
ENDBRANCH   9  29
TORSDOF 6
ENDMDL
MODEL 4
REMARK VINA RESULT:      -8.4      7.977     11.808
REMARK  Name = 11993740
REMARK  6 active torsions:
REMARK  status: ('A' for Active; 'I' for Inactive)
REMARK    1  A    between atoms: N_2  and  C_23
REMARK    2  A    between atoms: C_4  and  N_12
REMARK    3  A    between atoms: C_5  and  O_26
REMARK    4  A    between atoms: C_9  and  C_29
REMARK    5  A    between atoms: C_14  and  N_19
REMARK    6  A    between atoms: C_29  and  O_30
REMARK                            x       y       z     vdW  Elec       q    Type
REMARK                         _______ _______ _______ _____ _____    ______ ____
ROOT
ATOM      1  O   UNL     1      31.172 -11.487 -20.282  0.00  0.00    -0.286 OA
ATOM      2  N   UNL     1      33.355 -12.252 -23.639  0.00  0.00    -0.285 N 
ATOM      3  C   UNL     1      33.180 -13.302 -22.693  0.00  0.00    +0.090 C 
ATOM      4  C   UNL     1      33.536 -15.587 -21.920  0.00  0.00    +0.083 C 
ATOM      5  C   UNL     1      33.729 -14.582 -22.872  0.00  0.00    +0.165 C 
ATOM      6  C   UNL     1      32.786 -11.016 -23.399  0.00  0.00    +0.075 C 
ATOM      7  C   UNL     1      32.429 -13.064 -21.521  0.00  0.00    +0.056 C 
ATOM      8  C   UNL     1      32.792 -15.333 -20.772  0.00  0.00    +0.018 C 
ATOM      9  C   UNL     1      32.058 -10.686 -22.326  0.00  0.00    +0.129 C 
ATOM     10  C   UNL     1      32.235 -14.073 -20.569  0.00  0.00    +0.006 C 
ATOM     11  C   UNL     1      31.828 -11.725 -21.288  0.00  0.00    +0.204 C 
ENDROOT
BRANCH   4  12
ATOM     12  N   UNL     1      34.084 -16.862 -22.104  0.00  0.00    -0.307 N 
ATOM     13  C   UNL     1      34.400 -18.852 -23.533  0.00  0.00    +0.018 C 
ATOM     14  C   UNL     1      34.896 -18.949 -21.042  0.00  0.00    -0.046 C 
ATOM     15  C   UNL     1      35.282 -19.462 -22.434  0.00  0.00    -0.019 C 
ATOM     16  C   UNL     1      34.418 -17.318 -23.459  0.00  0.00    +0.091 C 
ATOM     17  C   UNL     1      34.895 -17.415 -21.009  0.00  0.00    +0.069 C 
ATOM     18  C   UNL     1      34.854 -19.329 -24.911  0.00  0.00    +0.002 C 
BRANCH  14  19
ATOM     19  N   UNL     1      33.582 -19.461 -20.647  0.00  0.00    +0.383 N 
ATOM     20  H   UNL     1      33.470 -20.414 -20.993  0.00  0.00    -0.089 HD
ATOM     21  H   UNL     1      32.852 -18.867 -21.041  0.00  0.00    -0.089 HD
ATOM     22  H   UNL     1      33.509 -19.459 -19.630  0.00  0.00    -0.089 HD
ENDBRANCH  14  19
ENDBRANCH   4  12
BRANCH   2  23
ATOM     23  C   UNL     1      34.122 -12.399 -24.898  0.00  0.00    +0.077 C 
ATOM     24  C   UNL     1      34.627 -11.200 -25.627  0.00  0.00    +0.022 C 
ATOM     25  C   UNL     1      33.517 -12.024 -26.209  0.00  0.00    +0.022 C 
ENDBRANCH   2  23
BRANCH   5  26
ATOM     26  O   UNL     1      34.471 -14.914 -23.971  0.00  0.00    -0.469 OA
ATOM     27  C   UNL     1      33.758 -15.385 -25.111  0.00  0.00    +0.253 C 
ENDBRANCH   5  26
BRANCH   9  29
ATOM     28  O   UNL     1      30.943  -8.749 -23.133  0.00  0.00    -0.245 OA
ATOM     29  C   UNL     1      31.529  -9.325 -22.234  0.00  0.00    +0.342 C 
BRANCH  29  30
ATOM     30  O   UNL     1      31.793  -8.817 -21.011  0.00  0.00    -0.477 OA
ATOM     31  H   UNL     1      31.101  -8.710 -20.389  0.00  0.00    +0.295 HD
ENDBRANCH  29  30
ENDBRANCH   9  29
TORSDOF 6
ENDMDL
MODEL 5
REMARK VINA RESULT:      -8.3     12.014     15.330
REMARK  Name = 11993740
REMARK  6 active torsions:
REMARK  status: ('A' for Active; 'I' for Inactive)
REMARK    1  A    between atoms: N_2  and  C_23
REMARK    2  A    between atoms: C_4  and  N_12
REMARK    3  A    between atoms: C_5  and  O_26
REMARK    4  A    between atoms: C_9  and  C_29
REMARK    5  A    between atoms: C_14  and  N_19
REMARK    6  A    between atoms: C_29  and  O_30
REMARK                            x       y       z     vdW  Elec       q    Type
REMARK                         _______ _______ _______ _____ _____    ______ ____
ROOT
ATOM      1  O   UNL     1      32.507 -15.162 -22.408  0.00  0.00    -0.286 OA
ATOM      2  N   UNL     1      33.685 -12.137 -24.874  0.00  0.00    -0.285 N 
ATOM      3  C   UNL     1      33.047 -11.798 -23.646  0.00  0.00    +0.090 C 
ATOM      4  C   UNL     1      32.182 -10.177 -22.044  0.00  0.00    +0.083 C 
ATOM      5  C   UNL     1      32.811 -10.470 -23.257  0.00  0.00    +0.165 C 
ATOM      6  C   UNL     1      33.886 -13.465 -25.194  0.00  0.00    +0.075 C 
ATOM      7  C   UNL     1      32.629 -12.826 -22.774  0.00  0.00    +0.056 C 
ATOM      8  C   UNL     1      31.777 -11.205 -21.197  0.00  0.00    +0.018 C 
ATOM      9  C   UNL     1      33.530 -14.513 -24.441  0.00  0.00    +0.129 C 
ATOM     10  C   UNL     1      32.000 -12.531 -21.557  0.00  0.00    +0.006 C 
ATOM     11  C   UNL     1      32.858 -14.247 -23.143  0.00  0.00    +0.204 C 
ENDROOT
BRANCH   4  12
ATOM     12  N   UNL     1      31.950  -8.852 -21.659  0.00  0.00    -0.307 N 
ATOM     13  C   UNL     1      31.669  -6.477 -22.280  0.00  0.00    +0.018 C 
ATOM     14  C   UNL     1      32.127  -7.144 -19.871  0.00  0.00    -0.046 C 
ATOM     15  C   UNL     1      31.419  -6.152 -20.801  0.00  0.00    -0.019 C 
ATOM     16  C   UNL     1      31.287  -7.932 -22.593  0.00  0.00    +0.091 C 
ATOM     17  C   UNL     1      31.747  -8.588 -20.226  0.00  0.00    +0.069 C 
ATOM     18  C   UNL     1      30.897  -5.514 -23.180  0.00  0.00    +0.002 C 
BRANCH  14  19
ATOM     19  N   UNL     1      33.580  -6.975 -19.941  0.00  0.00    +0.383 N 
ATOM     20  H   UNL     1      33.937  -6.720 -19.020  0.00  0.00    -0.089 HD
ATOM     21  H   UNL     1      33.806  -6.239 -20.610  0.00  0.00    -0.089 HD
ATOM     22  H   UNL     1      34.010  -7.850 -20.240  0.00  0.00    -0.089 HD
ENDBRANCH  14  19
ENDBRANCH   4  12
BRANCH   2  23
ATOM     23  C   UNL     1      34.162 -11.135 -25.856  0.00  0.00    +0.077 C 
ATOM     24  C   UNL     1      34.978 -11.551 -27.033  0.00  0.00    +0.022 C 
ATOM     25  C   UNL     1      35.604 -10.759 -25.923  0.00  0.00    +0.022 C 
ENDBRANCH   2  23
BRANCH   5  26
ATOM     26  O   UNL     1      33.178  -9.404 -24.029  0.00  0.00    -0.469 OA
ATOM     27  C   UNL     1      34.366  -8.714 -23.652  0.00  0.00    +0.253 C 
ENDBRANCH   5  26
BRANCH   9  29
ATOM     28  O   UNL     1      33.508 -16.274 -26.038  0.00  0.00    -0.245 OA
ATOM     29  C   UNL     1      33.822 -15.859 -24.937  0.00  0.00    +0.342 C 
BRANCH  29  30
ATOM     30  O   UNL     1      34.487 -16.556 -23.990  0.00  0.00    -0.477 OA
ATOM     31  H   UNL     1      34.651 -17.471 -24.111  0.00  0.00    +0.295 HD
ENDBRANCH  29  30
ENDBRANCH   9  29
TORSDOF 6
ENDMDL
MODEL 6
REMARK VINA RESULT:      -8.0     11.135     14.447
REMARK  Name = 11993740
REMARK  6 active torsions:
REMARK  status: ('A' for Active; 'I' for Inactive)
REMARK    1  A    between atoms: N_2  and  C_23
REMARK    2  A    between atoms: C_4  and  N_12
REMARK    3  A    between atoms: C_5  and  O_26
REMARK    4  A    between atoms: C_9  and  C_29
REMARK    5  A    between atoms: C_14  and  N_19
REMARK    6  A    between atoms: C_29  and  O_30
REMARK                            x       y       z     vdW  Elec       q    Type
REMARK                         _______ _______ _______ _____ _____    ______ ____
ROOT
ATOM      1  O   UNL     1      34.082  -7.170 -23.116  0.00  0.00    -0.286 OA
ATOM      2  N   UNL     1      31.917 -10.077 -21.250  0.00  0.00    -0.285 N 
ATOM      3  C   UNL     1      32.671 -10.433 -22.404  0.00  0.00    +0.090 C 
ATOM      4  C   UNL     1      33.450 -12.049 -24.055  0.00  0.00    +0.083 C 
ATOM      5  C   UNL     1      32.696 -11.739 -22.919  0.00  0.00    +0.165 C 
ATOM      6  C   UNL     1      31.937  -8.773 -20.797  0.00  0.00    +0.075 C 
ATOM      7  C   UNL     1      33.430  -9.446 -23.070  0.00  0.00    +0.056 C 
ATOM      8  C   UNL     1      34.192 -11.062 -24.697  0.00  0.00    +0.018 C 
ATOM      9  C   UNL     1      32.620  -7.764 -21.352  0.00  0.00    +0.129 C 
ATOM     10  C   UNL     1      34.186  -9.759 -24.207  0.00  0.00    +0.006 C 
ATOM     11  C   UNL     1      33.434  -8.050 -22.561  0.00  0.00    +0.204 C 
ENDROOT
BRANCH   4  12
ATOM     12  N   UNL     1      33.473 -13.353 -24.564  0.00  0.00    -0.307 N 
ATOM     13  C   UNL     1      34.585 -15.554 -24.718  0.00  0.00    +0.018 C 
ATOM     14  C   UNL     1      32.790 -14.886 -26.388  0.00  0.00    -0.046 C 
ATOM     15  C   UNL     1      33.433 -16.039 -25.609  0.00  0.00    -0.019 C 
ATOM     16  C   UNL     1      34.120 -14.421 -23.791  0.00  0.00    +0.091 C 
ATOM     17  C   UNL     1      32.363 -13.759 -25.438  0.00  0.00    +0.069 C 
ATOM     18  C   UNL     1      35.159 -16.712 -23.905  0.00  0.00    +0.002 C 
BRANCH  14  19
ATOM     19  N   UNL     1      33.711 -14.366 -27.401  0.00  0.00    +0.383 N 
ATOM     20  H   UNL     1      34.432 -13.804 -26.948  0.00  0.00    -0.089 HD
ATOM     21  H   UNL     1      33.197 -13.789 -28.065  0.00  0.00    -0.089 HD
ATOM     22  H   UNL     1      34.148 -15.145 -27.894  0.00  0.00    -0.089 HD
ENDBRANCH  14  19
ENDBRANCH   4  12
BRANCH   2  23
ATOM     23  C   UNL     1      31.091 -11.037 -20.480  0.00  0.00    +0.077 C 
ATOM     24  C   UNL     1      30.388 -10.609 -19.236  0.00  0.00    +0.022 C 
ATOM     25  C   UNL     1      31.553 -11.552 -19.158  0.00  0.00    +0.022 C 
ENDBRANCH   2  23
BRANCH   5  26
ATOM     26  O   UNL     1      31.998 -12.766 -22.349  0.00  0.00    -0.469 OA
ATOM     27  C   UNL     1      32.720 -13.626 -21.471  0.00  0.00    +0.253 C 
ENDBRANCH   5  26
BRANCH   9  29
ATOM     28  O   UNL     1      32.797  -6.197 -19.574  0.00  0.00    -0.245 OA
ATOM     29  C   UNL     1      32.528  -6.439 -20.737  0.00  0.00    +0.342 C 
BRANCH  29  30
ATOM     30  O   UNL     1      32.103  -5.542 -21.652  0.00  0.00    -0.477 OA
ATOM     31  H   UNL     1      32.576  -5.431 -22.454  0.00  0.00    +0.295 HD
ENDBRANCH  29  30
ENDBRANCH   9  29
TORSDOF 6
ENDMDL
MODEL 7
REMARK VINA RESULT:      -7.8      9.400     13.792
REMARK  Name = 11993740
REMARK  6 active torsions:
REMARK  status: ('A' for Active; 'I' for Inactive)
REMARK    1  A    between atoms: N_2  and  C_23
REMARK    2  A    between atoms: C_4  and  N_12
REMARK    3  A    between atoms: C_5  and  O_26
REMARK    4  A    between atoms: C_9  and  C_29
REMARK    5  A    between atoms: C_14  and  N_19
REMARK    6  A    between atoms: C_29  and  O_30
REMARK                            x       y       z     vdW  Elec       q    Type
REMARK                         _______ _______ _______ _____ _____    ______ ____
ROOT
ATOM      1  O   UNL     1      34.041 -15.714 -26.571  0.00  0.00    -0.286 OA
ATOM      2  N   UNL     1      33.738 -14.858 -22.597  0.00  0.00    -0.285 N 
ATOM      3  C   UNL     1      33.616 -13.789 -23.530  0.00  0.00    +0.090 C 
ATOM      4  C   UNL     1      33.284 -11.436 -24.078  0.00  0.00    +0.083 C 
ATOM      5  C   UNL     1      33.398 -12.460 -23.133  0.00  0.00    +0.165 C 
ATOM      6  C   UNL     1      33.952 -16.142 -23.056  0.00  0.00    +0.075 C 
ATOM      7  C   UNL     1      33.717 -14.057 -24.912  0.00  0.00    +0.056 C 
ATOM      8  C   UNL     1      33.386 -11.721 -25.437  0.00  0.00    +0.018 C 
ATOM      9  C   UNL     1      34.063 -16.505 -24.341  0.00  0.00    +0.129 C 
ATOM     10  C   UNL     1      33.601 -13.030 -25.859  0.00  0.00    +0.006 C 
ATOM     11  C   UNL     1      33.948 -15.448 -25.379  0.00  0.00    +0.204 C 
ENDROOT
BRANCH   4  12
ATOM     12  N   UNL     1      33.064 -10.113 -23.679  0.00  0.00    -0.307 N 
ATOM     13  C   UNL     1      33.937  -7.831 -23.314  0.00  0.00    +0.018 C 
ATOM     14  C   UNL     1      31.727  -8.555 -22.290  0.00  0.00    -0.046 C 
ATOM     15  C   UNL     1      32.528  -7.394 -22.889  0.00  0.00    -0.019 C 
ATOM     16  C   UNL     1      33.872  -9.036 -24.265  0.00  0.00    +0.091 C 
ATOM     17  C   UNL     1      31.704  -9.752 -23.250  0.00  0.00    +0.069 C 
ATOM     18  C   UNL     1      34.684  -6.670 -23.968  0.00  0.00    +0.002 C 
BRANCH  14  19
ATOM     19  N   UNL     1      32.284  -8.959 -20.997  0.00  0.00    +0.383 N 
ATOM     20  H   UNL     1      32.315  -8.151 -20.374  0.00  0.00    -0.089 HD
ATOM     21  H   UNL     1      33.228  -9.321 -21.131  0.00  0.00    -0.089 HD
ATOM     22  H   UNL     1      31.697  -9.683 -20.585  0.00  0.00    -0.089 HD
ENDBRANCH  14  19
ENDBRANCH   4  12
BRANCH   2  23
ATOM     23  C   UNL     1      33.645 -14.683 -21.128  0.00  0.00    +0.077 C 
ATOM     24  C   UNL     1      34.341 -15.624 -20.204  0.00  0.00    +0.022 C 
ATOM     25  C   UNL     1      32.843 -15.627 -20.297  0.00  0.00    +0.022 C 
ENDBRANCH   2  23
BRANCH   5  26
ATOM     26  O   UNL     1      33.284 -12.095 -21.821  0.00  0.00    -0.469 OA
ATOM     27  C   UNL     1      32.001 -12.245 -21.219  0.00  0.00    +0.253 C 
ENDBRANCH   5  26
BRANCH   9  29
ATOM     28  O   UNL     1      35.058 -18.643 -24.044  0.00  0.00    -0.245 OA
ATOM     29  C   UNL     1      34.289 -17.917 -24.649  0.00  0.00    +0.342 C 
BRANCH  29  30
ATOM     30  O   UNL     1      33.521 -18.281 -25.699  0.00  0.00    -0.477 OA
ATOM     31  H   UNL     1      33.852 -18.883 -26.335  0.00  0.00    +0.295 HD
ENDBRANCH  29  30
ENDBRANCH   9  29
TORSDOF 6
ENDMDL
MODEL 8
REMARK VINA RESULT:      -7.8     11.629     15.282
REMARK  Name = 11993740
REMARK  6 active torsions:
REMARK  status: ('A' for Active; 'I' for Inactive)
REMARK    1  A    between atoms: N_2  and  C_23
REMARK    2  A    between atoms: C_4  and  N_12
REMARK    3  A    between atoms: C_5  and  O_26
REMARK    4  A    between atoms: C_9  and  C_29
REMARK    5  A    between atoms: C_14  and  N_19
REMARK    6  A    between atoms: C_29  and  O_30
REMARK                            x       y       z     vdW  Elec       q    Type
REMARK                         _______ _______ _______ _____ _____    ______ ____
ROOT
ATOM      1  O   UNL     1      31.430  -9.332 -19.411  0.00  0.00    -0.286 OA
ATOM      2  N   UNL     1      33.145  -8.571 -23.030  0.00  0.00    -0.285 N 
ATOM      3  C   UNL     1      32.814  -9.918 -22.709  0.00  0.00    +0.090 C 
ATOM      4  C   UNL     1      32.718 -12.297 -23.237  0.00  0.00    +0.083 C 
ATOM      5  C   UNL     1      33.056 -10.986 -23.588  0.00  0.00    +0.165 C 
ATOM      6  C   UNL     1      32.879  -7.568 -22.119  0.00  0.00    +0.075 C 
ATOM      7  C   UNL     1      32.220 -10.210 -21.463  0.00  0.00    +0.056 C 
ATOM      8  C   UNL     1      32.132 -12.564 -22.003  0.00  0.00    +0.018 C 
ATOM      9  C   UNL     1      32.320  -7.735 -20.914  0.00  0.00    +0.129 C 
ATOM     10  C   UNL     1      31.880 -11.524 -21.113  0.00  0.00    +0.006 C 
ATOM     11  C   UNL     1      31.945  -9.112 -20.500  0.00  0.00    +0.204 C 
ENDROOT
BRANCH   4  12
ATOM     12  N   UNL     1      32.959 -13.358 -24.116  0.00  0.00    -0.307 N 
ATOM     13  C   UNL     1      34.310 -15.328 -24.750  0.00  0.00    +0.018 C 
ATOM     14  C   UNL     1      32.734 -14.241 -26.421  0.00  0.00    -0.046 C 
ATOM     15  C   UNL     1      33.367 -15.552 -25.941  0.00  0.00    -0.019 C 
ATOM     16  C   UNL     1      33.589 -14.586 -23.614  0.00  0.00    +0.091 C 
ATOM     17  C   UNL     1      32.047 -13.512 -25.260  0.00  0.00    +0.069 C 
ATOM     18  C   UNL     1      34.871 -16.658 -24.251  0.00  0.00    +0.002 C 
BRANCH  14  19
ATOM     19  N   UNL     1      33.741 -13.372 -27.035  0.00  0.00    +0.383 N 
ATOM     20  H   UNL     1      34.242 -12.865 -26.305  0.00  0.00    -0.089 HD
ATOM     21  H   UNL     1      33.283 -12.709 -27.659  0.00  0.00    -0.089 HD
ATOM     22  H   UNL     1      34.400 -13.940 -27.567  0.00  0.00    -0.089 HD
ENDBRANCH  14  19
ENDBRANCH   4  12
BRANCH   2  23
ATOM     23  C   UNL     1      33.768  -8.159 -24.310  0.00  0.00    +0.077 C 
ATOM     24  C   UNL     1      34.921  -7.213 -24.326  0.00  0.00    +0.022 C 
ATOM     25  C   UNL     1      33.581  -6.777 -24.840  0.00  0.00    +0.022 C 
ENDBRANCH   2  23
BRANCH   5  26
ATOM     26  O   UNL     1      33.626 -10.810 -24.817  0.00  0.00    -0.469 OA
ATOM     27  C   UNL     1      35.049 -10.860 -24.881  0.00  0.00    +0.253 C 
ENDBRANCH   5  26
BRANCH   9  29
ATOM     28  O   UNL     1      32.658  -6.362 -19.004  0.00  0.00    -0.245 OA
ATOM     29  C   UNL     1      32.109  -6.556 -20.073  0.00  0.00    +0.342 C 
BRANCH  29  30
ATOM     30  O   UNL     1      31.219  -5.730 -20.665  0.00  0.00    -0.477 OA
ATOM     31  H   UNL     1      30.301  -5.900 -20.593  0.00  0.00    +0.295 HD
ENDBRANCH  29  30
ENDBRANCH   9  29
TORSDOF 6
ENDMDL
MODEL 9
REMARK VINA RESULT:      -7.4     10.436     14.569
REMARK  Name = 11993740
REMARK  6 active torsions:
REMARK  status: ('A' for Active; 'I' for Inactive)
REMARK    1  A    between atoms: N_2  and  C_23
REMARK    2  A    between atoms: C_4  and  N_12
REMARK    3  A    between atoms: C_5  and  O_26
REMARK    4  A    between atoms: C_9  and  C_29
REMARK    5  A    between atoms: C_14  and  N_19
REMARK    6  A    between atoms: C_29  and  O_30
REMARK                            x       y       z     vdW  Elec       q    Type
REMARK                         _______ _______ _______ _____ _____    ______ ____
ROOT
ATOM      1  O   UNL     1      34.372 -14.106 -26.624  0.00  0.00    -0.286 OA
ATOM      2  N   UNL     1      32.942 -13.907 -22.811  0.00  0.00    -0.285 N 
ATOM      3  C   UNL     1      33.115 -12.691 -23.532  0.00  0.00    +0.090 C 
ATOM      4  C   UNL     1      32.998 -10.263 -23.719  0.00  0.00    +0.083 C 
ATOM      5  C   UNL     1      32.814 -11.436 -22.980  0.00  0.00    +0.165 C 
ATOM      6  C   UNL     1      33.258 -15.109 -23.414  0.00  0.00    +0.075 C 
ATOM      7  C   UNL     1      33.609 -12.731 -24.854  0.00  0.00    +0.056 C 
ATOM      8  C   UNL     1      33.485 -10.324 -25.022  0.00  0.00    +0.018 C 
ATOM      9  C   UNL     1      33.731 -15.258 -24.658  0.00  0.00    +0.129 C 
ATOM     10  C   UNL     1      33.791 -11.555 -25.594  0.00  0.00    +0.006 C 
ATOM     11  C   UNL     1      33.941 -14.037 -25.479  0.00  0.00    +0.204 C 
ENDROOT
BRANCH   4  12
ATOM     12  N   UNL     1      32.695  -9.014 -23.167  0.00  0.00    -0.307 N 
ATOM     13  C   UNL     1      32.161  -7.640 -21.184  0.00  0.00    +0.018 C 
ATOM     14  C   UNL     1      31.731  -6.759 -23.528  0.00  0.00    -0.046 C 
ATOM     15  C   UNL     1      32.124  -6.402 -22.090  0.00  0.00    -0.019 C 
ATOM     16  C   UNL     1      33.073  -8.725 -21.777  0.00  0.00    +0.091 C 
ATOM     17  C   UNL     1      32.640  -7.863 -24.082  0.00  0.00    +0.069 C 
ATOM     18  C   UNL     1      32.622  -7.263 -19.777  0.00  0.00    +0.002 C 
BRANCH  14  19
ATOM     19  N   UNL     1      30.330  -7.182 -23.593  0.00  0.00    +0.383 N 
ATOM     20  H   UNL     1      30.251  -8.005 -24.191  0.00  0.00    -0.089 HD
ATOM     21  H   UNL     1      29.764  -6.426 -23.978  0.00  0.00    -0.089 HD
ATOM     22  H   UNL     1      30.000  -7.411 -22.656  0.00  0.00    -0.089 HD
ENDBRANCH  14  19
ENDBRANCH   4  12
BRANCH   2  23
ATOM     23  C   UNL     1      32.430 -13.975 -21.422  0.00  0.00    +0.077 C 
ATOM     24  C   UNL     1      33.312 -14.420 -20.305  0.00  0.00    +0.022 C 
ATOM     25  C   UNL     1      32.179 -15.290 -20.764  0.00  0.00    +0.022 C 
ENDBRANCH   2  23
BRANCH   5  26
ATOM     26  O   UNL     1      32.331 -11.289 -21.711  0.00  0.00    -0.469 OA
ATOM     27  C   UNL     1      30.914 -11.274 -21.559  0.00  0.00    +0.253 C 
ENDBRANCH   5  26
BRANCH   9  29
ATOM     28  O   UNL     1      34.886 -17.334 -24.697  0.00  0.00    -0.245 OA
ATOM     29  C   UNL     1      34.012 -16.611 -25.139  0.00  0.00    +0.342 C 
BRANCH  29  30
ATOM     30  O   UNL     1      33.159 -16.924 -26.139  0.00  0.00    -0.477 OA
ATOM     31  H   UNL     1      32.500 -16.312 -26.400  0.00  0.00    +0.295 HD
ENDBRANCH  29  30
ENDBRANCH   9  29
TORSDOF 6
ENDMDL
