MODEL 1
REMARK VINA RESULT:      -7.1      0.000      0.000
REMARK  Name = 449186
REMARK  13 active torsions:
REMARK  status: ('A' for Active; 'I' for Inactive)
REMARK    1  A    between atoms: C_1  and  O_2
REMARK    2  A    between atoms: C_1  and  C_12
REMARK    3  A    between atoms: C_1  and  C_17
REMARK    4  A    between atoms: O_2  and  C_4
REMARK    5  A    between atoms: C_4  and  C_5
REMARK    6  A    between atoms: C_5  and  C_6
REMARK    7  A    between atoms: C_6  and  C_7
REMARK    8  A    between atoms: C_7  and  C_8
REMARK    9  A    between atoms: C_8  and  C_9
REMARK   10  A    between atoms: C_9  and  C_10
REMARK   11  A    between atoms: C_12  and  N_13
REMARK   12  A    between atoms: C_17  and  C_19
REMARK   13  A    between atoms: C_19  and  O_20
REMARK                            x       y       z     vdW  Elec       q    Type
REMARK                         _______ _______ _______ _____ _____    ______ ____
ROOT
ATOM      1  C   UNL     1      36.513 -24.743 -14.458  0.00  0.00    +0.160 C 
ENDROOT
BRANCH   1   2
ATOM      2  O   UNL     1      36.425 -23.750 -15.484  0.00  0.00    -0.454 OA
BRANCH   2   4
ATOM      3  O   UNL     1      38.720 -23.503 -15.500  0.00  0.00    -0.250 OA
ATOM      4  C   UNL     1      37.596 -23.114 -15.789  0.00  0.00    +0.317 C 
BRANCH   4   5
ATOM      5  C   UNL     1      37.280 -21.827 -16.518  0.00  0.00    +0.110 C 
BRANCH   5   6
ATOM      6  C   UNL     1      36.220 -21.996 -17.607  0.00  0.00    +0.012 C 
BRANCH   6   7
ATOM      7  C   UNL     1      36.674 -21.428 -18.956  0.00  0.00    +0.001 C 
BRANCH   7   8
ATOM      8  C   UNL     1      35.487 -21.233 -19.902  0.00  0.00    +0.000 C 
BRANCH   8   9
ATOM      9  C   UNL     1      34.158 -21.468 -19.183  0.00  0.00    +0.000 C 
BRANCH   9  10
ATOM     10  C   UNL     1      32.972 -21.232 -20.117  0.00  0.00    +0.000 C 
ATOM     11  C   UNL     1      32.895 -19.780 -20.564  0.00  0.00    +0.000 C 
ENDBRANCH   9  10
ENDBRANCH   8   9
ENDBRANCH   7   8
ENDBRANCH   6   7
ENDBRANCH   5   6
ENDBRANCH   4   5
ENDBRANCH   2   4
ENDBRANCH   1   2
BRANCH   1  12
ATOM     12  C   UNL     1      35.714 -24.286 -13.241  0.00  0.00    -0.028 C 
BRANCH  12  13
ATOM     13  N   UNL     1      36.613 -24.185 -12.062  0.00  0.00    +0.388 N 
ATOM     14  C   UNL     1      35.822 -24.358 -10.759  0.00  0.00    -0.096 C 
ATOM     15  C   UNL     1      37.307 -22.817 -12.024  0.00  0.00    -0.096 C 
ATOM     16  C   UNL     1      37.697 -25.271 -12.112  0.00  0.00    -0.096 C 
ENDBRANCH  12  13
ENDBRANCH   1  12
BRANCH   1  17
ATOM     17  C   UNL     1      35.928 -26.039 -15.020  0.00  0.00    +0.151 C 
BRANCH  17  19
ATOM     18  O   UNL     1      38.058 -27.174 -14.879  0.00  0.00    -0.250 OA
ATOM     19  C   UNL     1      37.018 -26.970 -15.492  0.00  0.00    +0.317 C 
BRANCH  19  20
ATOM     20  O   UNL     1      36.717 -27.570 -16.671  0.00  0.00    -0.480 OA
ATOM     21  H   UNL     1      35.855 -27.494 -17.028  0.00  0.00    +0.295 HD
ENDBRANCH  19  20
ENDBRANCH  17  19
ENDBRANCH   1  17
TORSDOF 13
ENDMDL
MODEL 2
REMARK VINA RESULT:      -7.0      7.889     11.980
REMARK  Name = 449186
REMARK  13 active torsions:
REMARK  status: ('A' for Active; 'I' for Inactive)
REMARK    1  A    between atoms: C_1  and  O_2
REMARK    2  A    between atoms: C_1  and  C_12
REMARK    3  A    between atoms: C_1  and  C_17
REMARK    4  A    between atoms: O_2  and  C_4
REMARK    5  A    between atoms: C_4  and  C_5
REMARK    6  A    between atoms: C_5  and  C_6
REMARK    7  A    between atoms: C_6  and  C_7
REMARK    8  A    between atoms: C_7  and  C_8
REMARK    9  A    between atoms: C_8  and  C_9
REMARK   10  A    between atoms: C_9  and  C_10
REMARK   11  A    between atoms: C_12  and  N_13
REMARK   12  A    between atoms: C_17  and  C_19
REMARK   13  A    between atoms: C_19  and  O_20
REMARK                            x       y       z     vdW  Elec       q    Type
REMARK                         _______ _______ _______ _____ _____    ______ ____
ROOT
ATOM      1  C   UNL     1      33.686 -15.296 -24.089  0.00  0.00    +0.160 C 
ENDROOT
BRANCH   1   2
ATOM      2  O   UNL     1      34.646 -16.038 -24.847  0.00  0.00    -0.454 OA
BRANCH   2   4
ATOM      3  O   UNL     1      33.824 -18.082 -25.533  0.00  0.00    -0.250 OA
ATOM      4  C   UNL     1      34.517 -17.397 -24.792  0.00  0.00    +0.317 C 
BRANCH   4   5
ATOM      5  C   UNL     1      35.346 -17.923 -23.642  0.00  0.00    +0.110 C 
BRANCH   5   6
ATOM      6  C   UNL     1      34.728 -19.145 -22.963  0.00  0.00    +0.012 C 
BRANCH   6   7
ATOM      7  C   UNL     1      34.799 -19.063 -21.435  0.00  0.00    +0.001 C 
BRANCH   7   8
ATOM      8  C   UNL     1      33.709 -19.915 -20.782  0.00  0.00    +0.000 C 
BRANCH   8   9
ATOM      9  C   UNL     1      34.311 -20.997 -19.883  0.00  0.00    +0.000 C 
BRANCH   9  10
ATOM     10  C   UNL     1      35.838 -20.962 -19.918  0.00  0.00    +0.000 C 
ATOM     11  C   UNL     1      36.438 -21.543 -18.648  0.00  0.00    +0.000 C 
ENDBRANCH   9  10
ENDBRANCH   8   9
ENDBRANCH   7   8
ENDBRANCH   6   7
ENDBRANCH   5   6
ENDBRANCH   4   5
ENDBRANCH   2   4
ENDBRANCH   1   2
BRANCH   1  12
ATOM     12  C   UNL     1      34.390 -14.578 -22.941  0.00  0.00    -0.028 C 
BRANCH  12  13
ATOM     13  N   UNL     1      33.620 -14.768 -21.685  0.00  0.00    +0.388 N 
ATOM     14  C   UNL     1      32.663 -13.592 -21.451  0.00  0.00    -0.096 C 
ATOM     15  C   UNL     1      34.564 -14.865 -20.479  0.00  0.00    -0.096 C 
ATOM     16  C   UNL     1      32.789 -16.056 -21.747  0.00  0.00    -0.096 C 
ENDBRANCH  12  13
ENDBRANCH   1  12
BRANCH   1  17
ATOM     17  C   UNL     1      33.038 -14.282 -25.031  0.00  0.00    +0.151 C 
BRANCH  17  19
ATOM     18  O   UNL     1      33.768 -14.201 -27.335  0.00  0.00    -0.250 OA
ATOM     19  C   UNL     1      33.105 -14.750 -26.465  0.00  0.00    +0.317 C 
BRANCH  19  20
ATOM     20  O   UNL     1      32.354 -15.859 -26.686  0.00  0.00    -0.480 OA
ATOM     21  H   UNL     1      32.024 -16.037 -27.544  0.00  0.00    +0.295 HD
ENDBRANCH  19  20
ENDBRANCH  17  19
ENDBRANCH   1  17
TORSDOF 13
ENDMDL
MODEL 3
REMARK VINA RESULT:      -6.9      2.244      3.394
REMARK  Name = 449186
REMARK  13 active torsions:
REMARK  status: ('A' for Active; 'I' for Inactive)
REMARK    1  A    between atoms: C_1  and  O_2
REMARK    2  A    between atoms: C_1  and  C_12
REMARK    3  A    between atoms: C_1  and  C_17
REMARK    4  A    between atoms: O_2  and  C_4
REMARK    5  A    between atoms: C_4  and  C_5
REMARK    6  A    between atoms: C_5  and  C_6
REMARK    7  A    between atoms: C_6  and  C_7
REMARK    8  A    between atoms: C_7  and  C_8
REMARK    9  A    between atoms: C_8  and  C_9
REMARK   10  A    between atoms: C_9  and  C_10
REMARK   11  A    between atoms: C_12  and  N_13
REMARK   12  A    between atoms: C_17  and  C_19
REMARK   13  A    between atoms: C_19  and  O_20
REMARK                            x       y       z     vdW  Elec       q    Type
REMARK                         _______ _______ _______ _____ _____    ______ ____
ROOT
ATOM      1  C   UNL     1      36.223 -23.816 -13.975  0.00  0.00    +0.160 C 
ENDROOT
BRANCH   1   2
ATOM      2  O   UNL     1      35.618 -22.819 -14.804  0.00  0.00    -0.454 OA
BRANCH   2   4
ATOM      3  O   UNL     1      33.631 -23.916 -15.222  0.00  0.00    -0.250 OA
ATOM      4  C   UNL     1      34.591 -23.255 -15.594  0.00  0.00    +0.317 C 
BRANCH   4   5
ATOM      5  C   UNL     1      34.848 -22.816 -17.018  0.00  0.00    +0.110 C 
BRANCH   5   6
ATOM      6  C   UNL     1      33.598 -22.860 -17.897  0.00  0.00    +0.012 C 
BRANCH   6   7
ATOM      7  C   UNL     1      33.761 -22.049 -19.186  0.00  0.00    +0.001 C 
BRANCH   7   8
ATOM      8  C   UNL     1      35.204 -21.569 -19.360  0.00  0.00    +0.000 C 
BRANCH   8   9
ATOM      9  C   UNL     1      35.317 -20.544 -20.490  0.00  0.00    +0.000 C 
BRANCH   9  10
ATOM     10  C   UNL     1      33.972 -19.875 -20.770  0.00  0.00    +0.000 C 
ATOM     11  C   UNL     1      34.153 -18.450 -21.271  0.00  0.00    +0.000 C 
ENDBRANCH   9  10
ENDBRANCH   8   9
ENDBRANCH   7   8
ENDBRANCH   6   7
ENDBRANCH   5   6
ENDBRANCH   4   5
ENDBRANCH   2   4
ENDBRANCH   1   2
BRANCH   1  12
ATOM     12  C   UNL     1      37.724 -23.858 -14.246  0.00  0.00    -0.028 C 
BRANCH  12  13
ATOM     13  N   UNL     1      38.189 -25.269 -14.269  0.00  0.00    +0.388 N 
ATOM     14  C   UNL     1      37.159 -26.170 -14.962  0.00  0.00    -0.096 C 
ATOM     15  C   UNL     1      38.403 -25.793 -12.843  0.00  0.00    -0.096 C 
ATOM     16  C   UNL     1      39.518 -25.390 -15.028  0.00  0.00    -0.096 C 
ENDBRANCH  12  13
ENDBRANCH   1  12
BRANCH   1  17
ATOM     17  C   UNL     1      35.957 -23.429 -12.520  0.00  0.00    +0.151 C 
BRANCH  17  19
ATOM     18  O   UNL     1      35.463 -25.018 -10.767  0.00  0.00    -0.250 OA
ATOM     19  C   UNL     1      35.135 -24.481 -11.817  0.00  0.00    +0.317 C 
BRANCH  19  20
ATOM     20  O   UNL     1      33.980 -24.763 -12.471  0.00  0.00    -0.480 OA
ATOM     21  H   UNL     1      33.182 -24.349 -12.210  0.00  0.00    +0.295 HD
ENDBRANCH  19  20
ENDBRANCH  17  19
ENDBRANCH   1  17
TORSDOF 13
ENDMDL
MODEL 4
REMARK VINA RESULT:      -6.7     13.237     17.312
REMARK  Name = 449186
REMARK  13 active torsions:
REMARK  status: ('A' for Active; 'I' for Inactive)
REMARK    1  A    between atoms: C_1  and  O_2
REMARK    2  A    between atoms: C_1  and  C_12
REMARK    3  A    between atoms: C_1  and  C_17
REMARK    4  A    between atoms: O_2  and  C_4
REMARK    5  A    between atoms: C_4  and  C_5
REMARK    6  A    between atoms: C_5  and  C_6
REMARK    7  A    between atoms: C_6  and  C_7
REMARK    8  A    between atoms: C_7  and  C_8
REMARK    9  A    between atoms: C_8  and  C_9
REMARK   10  A    between atoms: C_9  and  C_10
REMARK   11  A    between atoms: C_12  and  N_13
REMARK   12  A    between atoms: C_17  and  C_19
REMARK   13  A    between atoms: C_19  and  O_20
REMARK                            x       y       z     vdW  Elec       q    Type
REMARK                         _______ _______ _______ _____ _____    ______ ____
ROOT
ATOM      1  C   UNL     1      33.212  -7.685 -22.709  0.00  0.00    +0.160 C 
ENDROOT
BRANCH   1   2
ATOM      2  O   UNL     1      33.701  -7.804 -21.370  0.00  0.00    -0.454 OA
BRANCH   2   4
ATOM      3  O   UNL     1      32.558  -7.071 -19.504  0.00  0.00    -0.250 OA
ATOM      4  C   UNL     1      32.743  -7.885 -20.399  0.00  0.00    +0.317 C 
BRANCH   4   5
ATOM      5  C   UNL     1      31.963  -9.168 -20.585  0.00  0.00    +0.110 C 
BRANCH   5   6
ATOM      6  C   UNL     1      31.973 -10.064 -19.346  0.00  0.00    +0.012 C 
BRANCH   6   7
ATOM      7  C   UNL     1      31.567 -11.506 -19.666  0.00  0.00    +0.001 C 
BRANCH   7   8
ATOM      8  C   UNL     1      31.223 -11.669 -21.148  0.00  0.00    +0.000 C 
BRANCH   8   9
ATOM      9  C   UNL     1      32.051 -12.783 -21.792  0.00  0.00    +0.000 C 
BRANCH   9  10
ATOM     10  C   UNL     1      32.589 -13.754 -20.742  0.00  0.00    +0.000 C 
ATOM     11  C   UNL     1      32.511 -15.194 -21.222  0.00  0.00    +0.000 C 
ENDBRANCH   9  10
ENDBRANCH   8   9
ENDBRANCH   7   8
ENDBRANCH   6   7
ENDBRANCH   5   6
ENDBRANCH   4   5
ENDBRANCH   2   4
ENDBRANCH   1   2
BRANCH   1  12
ATOM     12  C   UNL     1      32.798  -6.240 -22.972  0.00  0.00    -0.028 C 
BRANCH  12  13
ATOM     13  N   UNL     1      31.360  -6.190 -23.341  0.00  0.00    +0.388 N 
ATOM     14  C   UNL     1      31.147  -5.322 -24.587  0.00  0.00    -0.096 C 
ATOM     15  C   UNL     1      30.526  -5.599 -22.196  0.00  0.00    -0.096 C 
ATOM     16  C   UNL     1      30.828  -7.598 -23.642  0.00  0.00    -0.096 C 
ENDBRANCH  12  13
ENDBRANCH   1  12
BRANCH   1  17
ATOM     17  C   UNL     1      34.344  -8.092 -23.652  0.00  0.00    +0.151 C 
BRANCH  17  19
ATOM     18  O   UNL     1      33.286 -10.248 -23.924  0.00  0.00    -0.250 OA
ATOM     19  C   UNL     1      34.306  -9.573 -23.943  0.00  0.00    +0.317 C 
BRANCH  19  20
ATOM     20  O   UNL     1      35.530 -10.077 -24.240  0.00  0.00    -0.480 OA
ATOM     21  H   UNL     1      35.829 -10.089 -25.128  0.00  0.00    +0.295 HD
ENDBRANCH  19  20
ENDBRANCH  17  19
ENDBRANCH   1  17
TORSDOF 13
ENDMDL
MODEL 5
REMARK VINA RESULT:      -6.7      7.371     11.624
REMARK  Name = 449186
REMARK  13 active torsions:
REMARK  status: ('A' for Active; 'I' for Inactive)
REMARK    1  A    between atoms: C_1  and  O_2
REMARK    2  A    between atoms: C_1  and  C_12
REMARK    3  A    between atoms: C_1  and  C_17
REMARK    4  A    between atoms: O_2  and  C_4
REMARK    5  A    between atoms: C_4  and  C_5
REMARK    6  A    between atoms: C_5  and  C_6
REMARK    7  A    between atoms: C_6  and  C_7
REMARK    8  A    between atoms: C_7  and  C_8
REMARK    9  A    between atoms: C_8  and  C_9
REMARK   10  A    between atoms: C_9  and  C_10
REMARK   11  A    between atoms: C_12  and  N_13
REMARK   12  A    between atoms: C_17  and  C_19
REMARK   13  A    between atoms: C_19  and  O_20
REMARK                            x       y       z     vdW  Elec       q    Type
REMARK                         _______ _______ _______ _____ _____    ______ ____
ROOT
ATOM      1  C   UNL     1      33.931 -15.470 -23.159  0.00  0.00    +0.160 C 
ENDROOT
BRANCH   1   2
ATOM      2  O   UNL     1      33.509 -16.008 -21.902  0.00  0.00    -0.454 OA
BRANCH   2   4
ATOM      3  O   UNL     1      34.956 -15.364 -20.223  0.00  0.00    -0.250 OA
ATOM      4  C   UNL     1      34.503 -16.207 -20.984  0.00  0.00    +0.317 C 
BRANCH   4   5
ATOM      5  C   UNL     1      34.981 -17.639 -21.083  0.00  0.00    +0.110 C 
BRANCH   5   6
ATOM      6  C   UNL     1      33.847 -18.661 -20.995  0.00  0.00    +0.012 C 
BRANCH   6   7
ATOM      7  C   UNL     1      34.363 -20.097 -20.868  0.00  0.00    +0.001 C 
BRANCH   7   8
ATOM      8  C   UNL     1      33.471 -20.927 -19.942  0.00  0.00    +0.000 C 
BRANCH   8   9
ATOM      9  C   UNL     1      34.289 -21.947 -19.148  0.00  0.00    +0.000 C 
BRANCH   9  10
ATOM     10  C   UNL     1      35.789 -21.734 -19.349  0.00  0.00    +0.000 C 
ATOM     11  C   UNL     1      36.528 -21.689 -18.021  0.00  0.00    +0.000 C 
ENDBRANCH   9  10
ENDBRANCH   8   9
ENDBRANCH   7   8
ENDBRANCH   6   7
ENDBRANCH   5   6
ENDBRANCH   4   5
ENDBRANCH   2   4
ENDBRANCH   1   2
BRANCH   1  12
ATOM     12  C   UNL     1      34.306 -14.002 -22.983  0.00  0.00    -0.028 C 
BRANCH  12  13
ATOM     13  N   UNL     1      33.296 -13.143 -23.654  0.00  0.00    +0.388 N 
ATOM     14  C   UNL     1      32.121 -12.849 -22.713  0.00  0.00    -0.096 C 
ATOM     15  C   UNL     1      32.745 -13.834 -24.909  0.00  0.00    -0.096 C 
ATOM     16  C   UNL     1      33.917 -11.805 -24.078  0.00  0.00    -0.096 C 
ENDBRANCH  12  13
ENDBRANCH   1  12
BRANCH   1  17
ATOM     17  C   UNL     1      35.144 -16.277 -23.621  0.00  0.00    +0.151 C 
BRANCH  17  19
ATOM     18  O   UNL     1      34.622 -16.666 -25.949  0.00  0.00    -0.250 OA
ATOM     19  C   UNL     1      34.812 -17.119 -24.828  0.00  0.00    +0.317 C 
BRANCH  19  20
ATOM     20  O   UNL     1      34.756 -18.444 -24.540  0.00  0.00    -0.480 OA
ATOM     21  H   UNL     1      35.402 -19.026 -24.888  0.00  0.00    +0.295 HD
ENDBRANCH  19  20
ENDBRANCH  17  19
ENDBRANCH   1  17
TORSDOF 13
ENDMDL
MODEL 6
REMARK VINA RESULT:      -6.7      3.838      5.143
REMARK  Name = 449186
REMARK  13 active torsions:
REMARK  status: ('A' for Active; 'I' for Inactive)
REMARK    1  A    between atoms: C_1  and  O_2
REMARK    2  A    between atoms: C_1  and  C_12
REMARK    3  A    between atoms: C_1  and  C_17
REMARK    4  A    between atoms: O_2  and  C_4
REMARK    5  A    between atoms: C_4  and  C_5
REMARK    6  A    between atoms: C_5  and  C_6
REMARK    7  A    between atoms: C_6  and  C_7
REMARK    8  A    between atoms: C_7  and  C_8
REMARK    9  A    between atoms: C_8  and  C_9
REMARK   10  A    between atoms: C_9  and  C_10
REMARK   11  A    between atoms: C_12  and  N_13
REMARK   12  A    between atoms: C_17  and  C_19
REMARK   13  A    between atoms: C_19  and  O_20
REMARK                            x       y       z     vdW  Elec       q    Type
REMARK                         _______ _______ _______ _____ _____    ______ ____
ROOT
ATOM      1  C   UNL     1      36.323 -23.895 -13.534  0.00  0.00    +0.160 C 
ENDROOT
BRANCH   1   2
ATOM      2  O   UNL     1      35.398 -23.091 -14.273  0.00  0.00    -0.454 OA
BRANCH   2   4
ATOM      3  O   UNL     1      34.944 -24.071 -16.312  0.00  0.00    -0.250 OA
ATOM      4  C   UNL     1      34.621 -23.765 -15.172  0.00  0.00    +0.317 C 
BRANCH   4   5
ATOM      5  C   UNL     1      33.274 -24.048 -14.543  0.00  0.00    +0.110 C 
BRANCH   5   6
ATOM      6  C   UNL     1      32.145 -23.203 -15.132  0.00  0.00    +0.012 C 
BRANCH   6   7
ATOM      7  C   UNL     1      30.905 -23.176 -14.232  0.00  0.00    +0.001 C 
BRANCH   7   8
ATOM      8  C   UNL     1      30.269 -24.563 -14.124  0.00  0.00    +0.000 C 
BRANCH   8   9
ATOM      9  C   UNL     1      29.200 -24.770 -15.199  0.00  0.00    +0.000 C 
BRANCH   9  10
ATOM     10  C   UNL     1      28.566 -23.443 -15.615  0.00  0.00    +0.000 C 
ATOM     11  C   UNL     1      28.171 -23.452 -17.084  0.00  0.00    +0.000 C 
ENDBRANCH   9  10
ENDBRANCH   8   9
ENDBRANCH   7   8
ENDBRANCH   6   7
ENDBRANCH   5   6
ENDBRANCH   4   5
ENDBRANCH   2   4
ENDBRANCH   1   2
BRANCH   1  12
ATOM     12  C   UNL     1      37.684 -23.863 -14.222  0.00  0.00    -0.028 C 
BRANCH  12  13
ATOM     13  N   UNL     1      38.269 -25.229 -14.236  0.00  0.00    +0.388 N 
ATOM     14  C   UNL     1      37.333 -26.214 -14.947  0.00  0.00    -0.096 C 
ATOM     15  C   UNL     1      38.502 -25.735 -12.806  0.00  0.00    -0.096 C 
ATOM     16  C   UNL     1      39.617 -25.234 -14.970  0.00  0.00    -0.096 C 
ENDBRANCH  12  13
ENDBRANCH   1  12
BRANCH   1  17
ATOM     17  C   UNL     1      36.425 -23.304 -12.128  0.00  0.00    +0.151 C 
BRANCH  17  19
ATOM     18  O   UNL     1      36.044 -24.192  -9.911  0.00  0.00    -0.250 OA
ATOM     19  C   UNL     1      35.782 -24.211 -11.107  0.00  0.00    +0.317 C 
BRANCH  19  20
ATOM     20  O   UNL     1      34.866 -25.048 -11.657  0.00  0.00    -0.480 OA
ATOM     21  H   UNL     1      34.056 -25.210 -11.217  0.00  0.00    +0.295 HD
ENDBRANCH  19  20
ENDBRANCH  17  19
ENDBRANCH   1  17
TORSDOF 13
ENDMDL
MODEL 7
REMARK VINA RESULT:      -6.7      3.179      4.462
REMARK  Name = 449186
REMARK  13 active torsions:
REMARK  status: ('A' for Active; 'I' for Inactive)
REMARK    1  A    between atoms: C_1  and  O_2
REMARK    2  A    between atoms: C_1  and  C_12
REMARK    3  A    between atoms: C_1  and  C_17
REMARK    4  A    between atoms: O_2  and  C_4
REMARK    5  A    between atoms: C_4  and  C_5
REMARK    6  A    between atoms: C_5  and  C_6
REMARK    7  A    between atoms: C_6  and  C_7
REMARK    8  A    between atoms: C_7  and  C_8
REMARK    9  A    between atoms: C_8  and  C_9
REMARK   10  A    between atoms: C_9  and  C_10
REMARK   11  A    between atoms: C_12  and  N_13
REMARK   12  A    between atoms: C_17  and  C_19
REMARK   13  A    between atoms: C_19  and  O_20
REMARK                            x       y       z     vdW  Elec       q    Type
REMARK                         _______ _______ _______ _____ _____    ______ ____
ROOT
ATOM      1  C   UNL     1      33.762 -23.219 -15.737  0.00  0.00    +0.160 C 
ENDROOT
BRANCH   1   2
ATOM      2  O   UNL     1      34.124 -23.565 -17.078  0.00  0.00    -0.454 OA
BRANCH   2   4
ATOM      3  O   UNL     1      32.285 -22.507 -17.985  0.00  0.00    -0.250 OA
ATOM      4  C   UNL     1      33.439 -22.907 -18.060  0.00  0.00    +0.317 C 
BRANCH   4   5
ATOM      5  C   UNL     1      34.328 -22.780 -19.277  0.00  0.00    +0.110 C 
BRANCH   5   6
ATOM      6  C   UNL     1      35.402 -21.703 -19.129  0.00  0.00    +0.012 C 
BRANCH   6   7
ATOM      7  C   UNL     1      35.383 -20.695 -20.283  0.00  0.00    +0.001 C 
BRANCH   7   8
ATOM      8  C   UNL     1      33.970 -20.164 -20.532  0.00  0.00    +0.000 C 
BRANCH   8   9
ATOM      9  C   UNL     1      33.983 -18.972 -21.490  0.00  0.00    +0.000 C 
BRANCH   9  10
ATOM     10  C   UNL     1      35.190 -19.025 -22.426  0.00  0.00    +0.000 C 
ATOM     11  C   UNL     1      34.776 -18.855 -23.879  0.00  0.00    +0.000 C 
ENDBRANCH   9  10
ENDBRANCH   8   9
ENDBRANCH   7   8
ENDBRANCH   6   7
ENDBRANCH   5   6
ENDBRANCH   4   5
ENDBRANCH   2   4
ENDBRANCH   1   2
BRANCH   1  12
ATOM     12  C   UNL     1      33.121 -24.425 -15.058  0.00  0.00    -0.028 C 
BRANCH  12  13
ATOM     13  N   UNL     1      31.724 -24.098 -14.672  0.00  0.00    +0.388 N 
ATOM     14  C   UNL     1      31.289 -24.924 -13.454  0.00  0.00    -0.096 C 
ATOM     15  C   UNL     1      30.757 -24.397 -15.825  0.00  0.00    -0.096 C 
ATOM     16  C   UNL     1      31.595 -22.611 -14.312  0.00  0.00    -0.096 C 
ENDBRANCH  12  13
ENDBRANCH   1  12
BRANCH   1  17
ATOM     17  C   UNL     1      35.042 -22.815 -15.005  0.00  0.00    +0.151 C 
BRANCH  17  19
ATOM     18  O   UNL     1      37.073 -22.520 -16.282  0.00  0.00    -0.250 OA
ATOM     19  C   UNL     1      36.268 -23.276 -15.754  0.00  0.00    +0.317 C 
BRANCH  19  20
ATOM     20  O   UNL     1      36.390 -24.628 -15.773  0.00  0.00    -0.480 OA
ATOM     21  H   UNL     1      36.722 -25.078 -15.021  0.00  0.00    +0.295 HD
ENDBRANCH  19  20
ENDBRANCH  17  19
ENDBRANCH   1  17
TORSDOF 13
ENDMDL
MODEL 8
REMARK VINA RESULT:      -6.4      9.098     12.487
REMARK  Name = 449186
REMARK  13 active torsions:
REMARK  status: ('A' for Active; 'I' for Inactive)
REMARK    1  A    between atoms: C_1  and  O_2
REMARK    2  A    between atoms: C_1  and  C_12
REMARK    3  A    between atoms: C_1  and  C_17
REMARK    4  A    between atoms: O_2  and  C_4
REMARK    5  A    between atoms: C_4  and  C_5
REMARK    6  A    between atoms: C_5  and  C_6
REMARK    7  A    between atoms: C_6  and  C_7
REMARK    8  A    between atoms: C_7  and  C_8
REMARK    9  A    between atoms: C_8  and  C_9
REMARK   10  A    between atoms: C_9  and  C_10
REMARK   11  A    between atoms: C_12  and  N_13
REMARK   12  A    between atoms: C_17  and  C_19
REMARK   13  A    between atoms: C_19  and  O_20
REMARK                            x       y       z     vdW  Elec       q    Type
REMARK                         _______ _______ _______ _____ _____    ______ ____
ROOT
ATOM      1  C   UNL     1      33.441 -14.555 -23.737  0.00  0.00    +0.160 C 
ENDROOT
BRANCH   1   2
ATOM      2  O   UNL     1      34.292 -14.951 -24.817  0.00  0.00    -0.454 OA
BRANCH   2   4
ATOM      3  O   UNL     1      33.134 -16.400 -26.189  0.00  0.00    -0.250 OA
ATOM      4  C   UNL     1      34.013 -16.169 -25.370  0.00  0.00    +0.317 C 
BRANCH   4   5
ATOM      5  C   UNL     1      34.948 -17.201 -24.780  0.00  0.00    +0.110 C 
BRANCH   5   6
ATOM      6  C   UNL     1      34.392 -18.624 -24.842  0.00  0.00    +0.012 C 
BRANCH   6   7
ATOM      7  C   UNL     1      34.820 -19.471 -23.640  0.00  0.00    +0.001 C 
BRANCH   7   8
ATOM      8  C   UNL     1      35.029 -18.604 -22.396  0.00  0.00    +0.000 C 
BRANCH   8   9
ATOM      9  C   UNL     1      34.860 -19.420 -21.114  0.00  0.00    +0.000 C 
BRANCH   9  10
ATOM     10  C   UNL     1      33.385 -19.674 -20.806  0.00  0.00    +0.000 C 
ATOM     11  C   UNL     1      33.207 -20.853 -19.862  0.00  0.00    +0.000 C 
ENDBRANCH   9  10
ENDBRANCH   8   9
ENDBRANCH   7   8
ENDBRANCH   6   7
ENDBRANCH   5   6
ENDBRANCH   4   5
ENDBRANCH   2   4
ENDBRANCH   1   2
BRANCH   1  12
ATOM     12  C   UNL     1      34.289 -14.263 -22.503  0.00  0.00    -0.028 C 
BRANCH  12  13
ATOM     13  N   UNL     1      33.630 -14.830 -21.298  0.00  0.00    +0.388 N 
ATOM     14  C   UNL     1      34.672 -15.369 -20.310  0.00  0.00    -0.096 C 
ATOM     15  C   UNL     1      32.693 -15.982 -21.683  0.00  0.00    -0.096 C 
ATOM     16  C   UNL     1      32.799 -13.757 -20.579  0.00  0.00    -0.096 C 
ENDBRANCH  12  13
ENDBRANCH   1  12
BRANCH   1  17
ATOM     17  C   UNL     1      32.695 -13.295 -24.177  0.00  0.00    +0.151 C 
BRANCH  17  19
ATOM     18  O   UNL     1      34.278 -11.546 -24.707  0.00  0.00    -0.250 OA
ATOM     19  C   UNL     1      33.546 -12.449 -25.092  0.00  0.00    +0.317 C 
BRANCH  19  20
ATOM     20  O   UNL     1      33.422 -12.804 -26.396  0.00  0.00    -0.480 OA
ATOM     21  H   UNL     1      32.601 -12.699 -26.834  0.00  0.00    +0.295 HD
ENDBRANCH  19  20
ENDBRANCH  17  19
ENDBRANCH   1  17
TORSDOF 13
ENDMDL
MODEL 9
REMARK VINA RESULT:      -6.4      2.454      3.630
REMARK  Name = 449186
REMARK  13 active torsions:
REMARK  status: ('A' for Active; 'I' for Inactive)
REMARK    1  A    between atoms: C_1  and  O_2
REMARK    2  A    between atoms: C_1  and  C_12
REMARK    3  A    between atoms: C_1  and  C_17
REMARK    4  A    between atoms: O_2  and  C_4
REMARK    5  A    between atoms: C_4  and  C_5
REMARK    6  A    between atoms: C_5  and  C_6
REMARK    7  A    between atoms: C_6  and  C_7
REMARK    8  A    between atoms: C_7  and  C_8
REMARK    9  A    between atoms: C_8  and  C_9
REMARK   10  A    between atoms: C_9  and  C_10
REMARK   11  A    between atoms: C_12  and  N_13
REMARK   12  A    between atoms: C_17  and  C_19
REMARK   13  A    between atoms: C_19  and  O_20
REMARK                            x       y       z     vdW  Elec       q    Type
REMARK                         _______ _______ _______ _____ _____    ______ ____
ROOT
ATOM      1  C   UNL     1      34.954 -23.239 -16.124  0.00  0.00    +0.160 C 
ENDROOT
BRANCH   1   2
ATOM      2  O   UNL     1      35.372 -22.182 -16.993  0.00  0.00    -0.454 OA
BRANCH   2   4
ATOM      3  O   UNL     1      37.585 -22.609 -16.501  0.00  0.00    -0.250 OA
ATOM      4  C   UNL     1      36.721 -22.073 -17.182  0.00  0.00    +0.317 C 
BRANCH   4   5
ATOM      5  C   UNL     1      36.980 -21.152 -18.353  0.00  0.00    +0.110 C 
BRANCH   5   6
ATOM      6  C   UNL     1      36.191 -21.534 -19.606  0.00  0.00    +0.012 C 
BRANCH   6   7
ATOM      7  C   UNL     1      35.845 -20.317 -20.471  0.00  0.00    +0.001 C 
BRANCH   7   8
ATOM      8  C   UNL     1      34.331 -20.139 -20.596  0.00  0.00    +0.000 C 
BRANCH   8   9
ATOM      9  C   UNL     1      33.981 -19.025 -21.585  0.00  0.00    +0.000 C 
BRANCH   9  10
ATOM     10  C   UNL     1      35.143 -18.743 -22.537  0.00  0.00    +0.000 C 
ATOM     11  C   UNL     1      34.814 -19.171 -23.959  0.00  0.00    +0.000 C 
ENDBRANCH   9  10
ENDBRANCH   8   9
ENDBRANCH   7   8
ENDBRANCH   6   7
ENDBRANCH   5   6
ENDBRANCH   4   5
ENDBRANCH   2   4
ENDBRANCH   1   2
BRANCH   1  12
ATOM     12  C   UNL     1      35.117 -22.797 -14.673  0.00  0.00    -0.028 C 
BRANCH  12  13
ATOM     13  N   UNL     1      35.718 -23.900 -13.879  0.00  0.00    +0.388 N 
ATOM     14  C   UNL     1      37.016 -23.439 -13.204  0.00  0.00    -0.096 C 
ATOM     15  C   UNL     1      36.045 -25.100 -14.777  0.00  0.00    -0.096 C 
ATOM     16  C   UNL     1      34.750 -24.370 -12.785  0.00  0.00    -0.096 C 
ENDBRANCH  12  13
ENDBRANCH   1  12
BRANCH   1  17
ATOM     17  C   UNL     1      33.485 -23.531 -16.428  0.00  0.00    +0.151 C 
BRANCH  17  19
ATOM     18  O   UNL     1      32.326 -22.322 -18.172  0.00  0.00    -0.250 OA
ATOM     19  C   UNL     1      33.142 -23.178 -17.855  0.00  0.00    +0.317 C 
BRANCH  19  20
ATOM     20  O   UNL     1      33.848 -23.907 -18.756  0.00  0.00    -0.480 OA
ATOM     21  H   UNL     1      33.727 -24.834 -18.805  0.00  0.00    +0.295 HD
ENDBRANCH  19  20
ENDBRANCH  17  19
ENDBRANCH   1  17
TORSDOF 13
ENDMDL
