MODEL 1
REMARK VINA RESULT:      -8.4      0.000      0.000
REMARK  Name = 5289386
REMARK  6 active torsions:
REMARK  status: ('A' for Active; 'I' for Inactive)
REMARK    1  A    between atoms: S_1  and  O_23
REMARK    2  A    between atoms: CA_6  and  C_26
REMARK    3  A    between atoms: CA_7  and  N_13
REMARK    4  A    between atoms: C_14  and  C_16
REMARK    5  A    between atoms: C_16  and  C_17
REMARK    6  A    between atoms: C_26  and  O_27
REMARK                            x       y       z     vdW  Elec       q    Type
REMARK                         _______ _______ _______ _____ _____    ______ ____
ROOT
ATOM      1  S   UNL     1      36.390 -25.852 -15.292  0.00  0.00    -0.113 S 
ATOM      2  O   UNL     1      35.494 -21.765 -14.477  0.00  0.00    -0.273 OA
ATOM      3  N   UNL     1      35.801 -23.998 -13.785  0.00  0.00    -0.259 N 
ATOM      4  C   UNL     1      35.045 -25.037 -14.504  0.00  0.00    +0.154 C 
ATOM      5  C   UNL     1      37.813 -24.987 -14.599  0.00  0.00    +0.071 C 
ATOM      6  CA  UNL     1      37.201 -24.169 -13.442  0.00  0.00    +0.185 C 
ATOM      7  CA  UNL     1      34.316 -23.899 -15.231  0.00  0.00    +0.178 C 
ATOM      8  C   UNL     1      35.245 -22.948 -14.452  0.00  0.00    +0.247 C 
ATOM      9  C   UNL     1      38.937 -25.939 -14.187  0.00  0.00    +0.013 C 
ATOM     10  C   UNL     1      38.353 -24.043 -15.688  0.00  0.00    +0.013 C 
ATOM     11  H   UNL     1      36.363 -25.938 -16.649  0.00  0.00    +0.112 HD
ENDROOT
BRANCH   7  13
ATOM     12  O   UNL     1      32.460 -22.823 -17.169  0.00  0.00    -0.275 OA
ATOM     13  N   UNL     1      34.483 -23.852 -16.685  0.00  0.00    -0.296 N 
ATOM     14  C   UNL     1      33.524 -23.309 -17.544  0.00  0.00    +0.227 C 
ATOM     15  H   UNL     1      35.309 -24.220 -17.076  0.00  0.00    +0.150 HD
BRANCH  14  16
ATOM     16  C   UNL     1      33.946 -23.389 -18.998  0.00  0.00    +0.111 C 
BRANCH  16  17
ATOM     17  C   UNL     1      34.269 -22.046 -19.599  0.00  0.00    -0.013 C 
ATOM     18  C   UNL     1      35.594 -21.649 -19.715  0.00  0.00    -0.004 C 
ATOM     19  C   UNL     1      33.237 -21.224 -20.031  0.00  0.00    -0.004 C 
ATOM     20  C   UNL     1      35.892 -20.405 -20.272  0.00  0.00    -0.000 C 
ATOM     21  C   UNL     1      33.535 -19.981 -20.589  0.00  0.00    -0.000 C 
ATOM     22  C   UNL     1      34.863 -19.573 -20.709  0.00  0.00    -0.000 C 
ENDBRANCH  16  17
ENDBRANCH  14  16
ENDBRANCH   7  13
BRANCH   1  23
ATOM     23  O   UNL     1      36.394 -27.242 -14.459  0.00  0.00    -0.350 OA
ATOM     24  H   UNL     1      35.925 -27.118 -13.619  0.00  0.00    +0.225 HD
ENDBRANCH   1  23
BRANCH   6  26
ATOM     25  OXT UNL     1      36.467 -25.826 -11.844  0.00  0.00    -0.248 OA
ATOM     26  C   UNL     1      37.164 -24.858 -12.113  0.00  0.00    +0.333 C 
BRANCH  26  27
ATOM     27  O   UNL     1      38.010 -24.260 -11.239  0.00  0.00    -0.479 OA
ATOM     28  H   UNL     1      37.794 -24.225 -10.328  0.00  0.00    +0.295 HD
ENDBRANCH  26  27
ENDBRANCH   6  26
TORSDOF 6
ENDMDL
MODEL 2
REMARK VINA RESULT:      -8.1      3.671      5.065
REMARK  Name = 5289386
REMARK  6 active torsions:
REMARK  status: ('A' for Active; 'I' for Inactive)
REMARK    1  A    between atoms: S_1  and  O_23
REMARK    2  A    between atoms: CA_6  and  C_26
REMARK    3  A    between atoms: CA_7  and  N_13
REMARK    4  A    between atoms: C_14  and  C_16
REMARK    5  A    between atoms: C_16  and  C_17
REMARK    6  A    between atoms: C_26  and  O_27
REMARK                            x       y       z     vdW  Elec       q    Type
REMARK                         _______ _______ _______ _____ _____    ______ ____
ROOT
ATOM      1  S   UNL     1      36.820 -23.600 -13.635  0.00  0.00    -0.113 S 
ATOM      2  O   UNL     1      36.271 -27.537 -15.175  0.00  0.00    -0.273 OA
ATOM      3  N   UNL     1      37.459 -25.503 -15.057  0.00  0.00    -0.259 N 
ATOM      4  C   UNL     1      36.693 -24.262 -15.260  0.00  0.00    +0.154 C 
ATOM      5  C   UNL     1      37.914 -24.785 -12.829  0.00  0.00    +0.071 C 
ATOM      6  CA  UNL     1      38.452 -25.627 -14.005  0.00  0.00    +0.185 C 
ATOM      7  CA  UNL     1      35.496 -25.148 -15.628  0.00  0.00    +0.178 C 
ATOM      8  C   UNL     1      36.413 -26.341 -15.298  0.00  0.00    +0.247 C 
ATOM      9  C   UNL     1      38.992 -24.109 -11.980  0.00  0.00    +0.013 C 
ATOM     10  C   UNL     1      37.047 -25.659 -11.904  0.00  0.00    +0.013 C 
ATOM     11  H   UNL     1      35.661 -23.333 -12.975  0.00  0.00    +0.112 HD
ENDROOT
BRANCH   7  13
ATOM     12  O   UNL     1      33.471 -23.086 -15.702  0.00  0.00    -0.275 OA
ATOM     13  N   UNL     1      34.319 -25.032 -14.764  0.00  0.00    -0.296 N 
ATOM     14  C   UNL     1      33.391 -23.993 -14.877  0.00  0.00    +0.227 C 
ATOM     15  H   UNL     1      34.174 -25.717 -14.071  0.00  0.00    +0.150 HD
BRANCH  14  16
ATOM     16  C   UNL     1      32.273 -24.111 -13.861  0.00  0.00    +0.111 C 
BRANCH  16  17
ATOM     17  C   UNL     1      30.900 -23.983 -14.469  0.00  0.00    -0.013 C 
ATOM     18  C   UNL     1      30.141 -25.124 -14.688  0.00  0.00    -0.004 C 
ATOM     19  C   UNL     1      30.413 -22.726 -14.799  0.00  0.00    -0.004 C 
ATOM     20  C   UNL     1      28.870 -25.005 -15.251  0.00  0.00    -0.000 C 
ATOM     21  C   UNL     1      29.142 -22.607 -15.361  0.00  0.00    -0.000 C 
ATOM     22  C   UNL     1      28.371 -23.747 -15.587  0.00  0.00    -0.000 C 
ENDBRANCH  16  17
ENDBRANCH  14  16
ENDBRANCH   7  13
BRANCH   1  23
ATOM     23  O   UNL     1      37.815 -22.354 -13.923  0.00  0.00    -0.350 OA
ATOM     24  H   UNL     1      37.520 -21.581 -13.417  0.00  0.00    +0.225 HD
ENDBRANCH   1  23
BRANCH   6  26
ATOM     25  OXT UNL     1      39.797 -24.117 -15.325  0.00  0.00    -0.248 OA
ATOM     26  C   UNL     1      39.712 -25.124 -14.638  0.00  0.00    +0.333 C 
BRANCH  26  27
ATOM     27  O   UNL     1      40.754 -25.941 -14.347  0.00  0.00    -0.479 OA
ATOM     28  H   UNL     1      41.553 -25.869 -14.831  0.00  0.00    +0.295 HD
ENDBRANCH  26  27
ENDBRANCH   6  26
TORSDOF 6
ENDMDL
MODEL 3
REMARK VINA RESULT:      -7.7      3.616      4.640
REMARK  Name = 5289386
REMARK  6 active torsions:
REMARK  status: ('A' for Active; 'I' for Inactive)
REMARK    1  A    between atoms: S_1  and  O_23
REMARK    2  A    between atoms: CA_6  and  C_26
REMARK    3  A    between atoms: CA_7  and  N_13
REMARK    4  A    between atoms: C_14  and  C_16
REMARK    5  A    between atoms: C_16  and  C_17
REMARK    6  A    between atoms: C_26  and  O_27
REMARK                            x       y       z     vdW  Elec       q    Type
REMARK                         _______ _______ _______ _____ _____    ______ ____
ROOT
ATOM      1  S   UNL     1      36.199 -24.667 -15.078  0.00  0.00    -0.113 S 
ATOM      2  O   UNL     1      36.607 -22.664 -11.337  0.00  0.00    -0.273 OA
ATOM      3  N   UNL     1      37.129 -24.428 -12.812  0.00  0.00    -0.259 N 
ATOM      4  C   UNL     1      36.002 -25.169 -13.403  0.00  0.00    +0.154 C 
ATOM      5  C   UNL     1      37.720 -23.701 -15.005  0.00  0.00    +0.071 C 
ATOM      6  CA  UNL     1      38.278 -24.022 -13.603  0.00  0.00    +0.185 C 
ATOM      7  CA  UNL     1      35.083 -24.366 -12.473  0.00  0.00    +0.178 C 
ATOM      8  C   UNL     1      36.358 -23.631 -12.020  0.00  0.00    +0.247 C 
ATOM      9  C   UNL     1      38.673 -24.015 -16.160  0.00  0.00    +0.013 C 
ATOM     10  C   UNL     1      37.328 -22.215 -15.093  0.00  0.00    +0.013 C 
ATOM     11  H   UNL     1      35.144 -24.051 -15.676  0.00  0.00    +0.112 HD
ENDROOT
BRANCH   7  13
ATOM     12  O   UNL     1      32.370 -25.066 -13.188  0.00  0.00    -0.275 OA
ATOM     13  N   UNL     1      34.092 -23.511 -13.129  0.00  0.00    -0.296 N 
ATOM     14  C   UNL     1      32.798 -23.941 -13.435  0.00  0.00    +0.227 C 
ATOM     15  H   UNL     1      34.347 -22.589 -13.365  0.00  0.00    +0.150 HD
BRANCH  14  16
ATOM     16  C   UNL     1      31.979 -22.860 -14.112  0.00  0.00    +0.111 C 
BRANCH  16  17
ATOM     17  C   UNL     1      30.773 -23.393 -14.840  0.00  0.00    -0.013 C 
ATOM     18  C   UNL     1      30.405 -22.834 -16.055  0.00  0.00    -0.004 C 
ATOM     19  C   UNL     1      30.046 -24.438 -14.285  0.00  0.00    -0.004 C 
ATOM     20  C   UNL     1      29.288 -23.327 -16.729  0.00  0.00    -0.000 C 
ATOM     21  C   UNL     1      28.930 -24.933 -14.959  0.00  0.00    -0.000 C 
ATOM     22  C   UNL     1      28.551 -24.377 -16.181  0.00  0.00    -0.000 C 
ENDBRANCH  16  17
ENDBRANCH  14  16
ENDBRANCH   7  13
BRANCH   1  23
ATOM     23  O   UNL     1      36.708 -26.063 -15.725  0.00  0.00    -0.350 OA
ATOM     24  H   UNL     1      35.969 -26.689 -15.766  0.00  0.00    +0.225 HD
ENDBRANCH   1  23
BRANCH   6  26
ATOM     25  OXT UNL     1      38.843 -26.364 -13.427  0.00  0.00    -0.248 OA
ATOM     26  C   UNL     1      39.200 -25.199 -13.527  0.00  0.00    +0.333 C 
BRANCH  26  27
ATOM     27  O   UNL     1      40.494 -24.799 -13.582  0.00  0.00    -0.479 OA
ATOM     28  H   UNL     1      40.831 -24.216 -12.930  0.00  0.00    +0.295 HD
ENDBRANCH  26  27
ENDBRANCH   6  26
TORSDOF 6
ENDMDL
MODEL 4
REMARK VINA RESULT:      -7.6      1.945      3.141
REMARK  Name = 5289386
REMARK  6 active torsions:
REMARK  status: ('A' for Active; 'I' for Inactive)
REMARK    1  A    between atoms: S_1  and  O_23
REMARK    2  A    between atoms: CA_6  and  C_26
REMARK    3  A    between atoms: CA_7  and  N_13
REMARK    4  A    between atoms: C_14  and  C_16
REMARK    5  A    between atoms: C_16  and  C_17
REMARK    6  A    between atoms: C_26  and  O_27
REMARK                            x       y       z     vdW  Elec       q    Type
REMARK                         _______ _______ _______ _____ _____    ______ ____
ROOT
ATOM      1  S   UNL     1      34.438 -23.163 -15.206  0.00  0.00    -0.113 S 
ATOM      2  O   UNL     1      38.565 -24.230 -15.150  0.00  0.00    -0.273 OA
ATOM      3  N   UNL     1      36.596 -23.503 -14.074  0.00  0.00    -0.259 N 
ATOM      4  C   UNL     1      35.896 -22.347 -14.658  0.00  0.00    +0.154 C 
ATOM      5  C   UNL     1      34.682 -24.835 -14.574  0.00  0.00    +0.071 C 
ATOM      6  CA  UNL     1      35.880 -24.679 -13.614  0.00  0.00    +0.185 C 
ATOM      7  CA  UNL     1      37.089 -22.201 -15.612  0.00  0.00    +0.178 C 
ATOM      8  C   UNL     1      37.645 -23.472 -14.944  0.00  0.00    +0.247 C 
ATOM      9  C   UNL     1      33.418 -25.413 -13.934  0.00  0.00    +0.013 C 
ATOM     10  C   UNL     1      35.070 -25.727 -15.767  0.00  0.00    +0.013 C 
ATOM     11  H   UNL     1      34.131 -23.078 -16.528  0.00  0.00    +0.112 HD
ENDROOT
BRANCH   7  13
ATOM     12  O   UNL     1      37.385 -20.195 -17.673  0.00  0.00    -0.275 OA
ATOM     13  N   UNL     1      36.794 -22.347 -17.039  0.00  0.00    -0.296 N 
ATOM     14  C   UNL     1      36.970 -21.314 -17.964  0.00  0.00    +0.227 C 
ATOM     15  H   UNL     1      36.455 -23.214 -17.364  0.00  0.00    +0.150 HD
BRANCH  14  16
ATOM     16  C   UNL     1      36.588 -21.731 -19.370  0.00  0.00    +0.111 C 
BRANCH  16  17
ATOM     17  C   UNL     1      35.398 -20.983 -19.910  0.00  0.00    -0.013 C 
ATOM     18  C   UNL     1      35.597 -19.899 -20.755  0.00  0.00    -0.004 C 
ATOM     19  C   UNL     1      34.118 -21.389 -19.558  0.00  0.00    -0.004 C 
ATOM     20  C   UNL     1      34.494 -19.207 -21.255  0.00  0.00    -0.000 C 
ATOM     21  C   UNL     1      33.015 -20.697 -20.059  0.00  0.00    -0.000 C 
ATOM     22  C   UNL     1      33.204 -19.606 -20.907  0.00  0.00    -0.000 C 
ENDBRANCH  16  17
ENDBRANCH  14  16
ENDBRANCH   7  13
BRANCH   1  23
ATOM     23  O   UNL     1      33.368 -22.551 -14.154  0.00  0.00    -0.350 OA
ATOM     24  H   UNL     1      32.671 -23.203 -13.984  0.00  0.00    +0.225 HD
ENDBRANCH   1  23
BRANCH   6  26
ATOM     25  OXT UNL     1      34.737 -23.496 -11.845  0.00  0.00    -0.248 OA
ATOM     26  C   UNL     1      35.533 -24.355 -12.194  0.00  0.00    +0.333 C 
BRANCH  26  27
ATOM     27  O   UNL     1      36.225 -25.147 -11.339  0.00  0.00    -0.479 OA
ATOM     28  H   UNL     1      37.086 -25.440 -11.566  0.00  0.00    +0.295 HD
ENDBRANCH  26  27
ENDBRANCH   6  26
TORSDOF 6
ENDMDL
MODEL 5
REMARK VINA RESULT:      -7.5      1.900      2.408
REMARK  Name = 5289386
REMARK  6 active torsions:
REMARK  status: ('A' for Active; 'I' for Inactive)
REMARK    1  A    between atoms: S_1  and  O_23
REMARK    2  A    between atoms: CA_6  and  C_26
REMARK    3  A    between atoms: CA_7  and  N_13
REMARK    4  A    between atoms: C_14  and  C_16
REMARK    5  A    between atoms: C_16  and  C_17
REMARK    6  A    between atoms: C_26  and  O_27
REMARK                            x       y       z     vdW  Elec       q    Type
REMARK                         _______ _______ _______ _____ _____    ______ ____
ROOT
ATOM      1  S   UNL     1      35.401 -24.716 -14.358  0.00  0.00    -0.113 S 
ATOM      2  O   UNL     1      38.874 -22.956 -16.094  0.00  0.00    -0.273 OA
ATOM      3  N   UNL     1      37.610 -23.640 -14.225  0.00  0.00    -0.259 N 
ATOM      4  C   UNL     1      36.215 -23.172 -14.146  0.00  0.00    +0.154 C 
ATOM      5  C   UNL     1      36.785 -25.872 -14.388  0.00  0.00    +0.071 C 
ATOM      6  CA  UNL     1      37.976 -25.010 -13.917  0.00  0.00    +0.185 C 
ATOM      7  CA  UNL     1      36.517 -22.297 -15.370  0.00  0.00    +0.178 C 
ATOM      8  C   UNL     1      37.914 -22.946 -15.357  0.00  0.00    +0.247 C 
ATOM      9  C   UNL     1      36.526 -27.122 -13.547  0.00  0.00    +0.013 C 
ATOM     10  C   UNL     1      36.992 -26.307 -15.851  0.00  0.00    +0.013 C 
ATOM     11  H   UNL     1      34.526 -24.826 -15.395  0.00  0.00    +0.112 HD
ENDROOT
BRANCH   7  13
ATOM     12  O   UNL     1      36.766 -21.032 -17.958  0.00  0.00    -0.275 OA
ATOM     13  N   UNL     1      35.730 -22.579 -16.572  0.00  0.00    -0.296 N 
ATOM     14  C   UNL     1      35.926 -21.911 -17.784  0.00  0.00    +0.227 C 
ATOM     15  H   UNL     1      35.031 -23.271 -16.526  0.00  0.00    +0.150 HD
BRANCH  14  16
ATOM     16  C   UNL     1      34.978 -22.393 -18.864  0.00  0.00    +0.111 C 
BRANCH  16  17
ATOM     17  C   UNL     1      34.506 -21.292 -19.778  0.00  0.00    -0.013 C 
ATOM     18  C   UNL     1      33.169 -20.920 -19.767  0.00  0.00    -0.004 C 
ATOM     19  C   UNL     1      35.416 -20.664 -20.618  0.00  0.00    -0.004 C 
ATOM     20  C   UNL     1      32.733 -19.902 -20.615  0.00  0.00    -0.000 C 
ATOM     21  C   UNL     1      34.980 -19.645 -21.464  0.00  0.00    -0.000 C 
ATOM     22  C   UNL     1      33.638 -19.264 -21.462  0.00  0.00    -0.000 C 
ENDBRANCH  16  17
ENDBRANCH  14  16
ENDBRANCH   7  13
BRANCH   1  23
ATOM     23  O   UNL     1      34.811 -24.924 -12.864  0.00  0.00    -0.350 OA
ATOM     24  H   UNL     1      35.377 -24.461 -12.226  0.00  0.00    +0.225 HD
ENDBRANCH   1  23
BRANCH   6  26
ATOM     25  OXT UNL     1      37.743 -25.790 -11.642  0.00  0.00    -0.248 OA
ATOM     26  C   UNL     1      38.217 -24.994 -12.439  0.00  0.00    +0.333 C 
BRANCH  26  27
ATOM     27  O   UNL     1      39.037 -23.970 -12.099  0.00  0.00    -0.479 OA
ATOM     28  H   UNL     1      38.778 -23.086 -12.272  0.00  0.00    +0.295 HD
ENDBRANCH  26  27
ENDBRANCH   6  26
TORSDOF 6
ENDMDL
MODEL 6
REMARK VINA RESULT:      -7.4      3.099      4.241
REMARK  Name = 5289386
REMARK  6 active torsions:
REMARK  status: ('A' for Active; 'I' for Inactive)
REMARK    1  A    between atoms: S_1  and  O_23
REMARK    2  A    between atoms: CA_6  and  C_26
REMARK    3  A    between atoms: CA_7  and  N_13
REMARK    4  A    between atoms: C_14  and  C_16
REMARK    5  A    between atoms: C_16  and  C_17
REMARK    6  A    between atoms: C_26  and  O_27
REMARK                            x       y       z     vdW  Elec       q    Type
REMARK                         _______ _______ _______ _____ _____    ______ ____
ROOT
ATOM      1  S   UNL     1      35.403 -24.937 -13.569  0.00  0.00    -0.113 S 
ATOM      2  O   UNL     1      37.554 -22.729 -16.514  0.00  0.00    -0.273 OA
ATOM      3  N   UNL     1      37.198 -23.413 -14.285  0.00  0.00    -0.259 N 
ATOM      4  C   UNL     1      35.842 -23.242 -13.736  0.00  0.00    +0.154 C 
ATOM      5  C   UNL     1      36.933 -25.770 -14.035  0.00  0.00    +0.071 C 
ATOM      6  CA  UNL     1      37.967 -24.624 -14.062  0.00  0.00    +0.185 C 
ATOM      7  CA  UNL     1      35.494 -22.491 -15.028  0.00  0.00    +0.178 C 
ATOM      8  C   UNL     1      36.926 -22.825 -15.484  0.00  0.00    +0.247 C 
ATOM      9  C   UNL     1      37.284 -26.927 -13.098  0.00  0.00    +0.013 C 
ATOM     10  C   UNL     1      36.735 -26.340 -15.452  0.00  0.00    +0.013 C 
ATOM     11  H   UNL     1      34.286 -25.362 -14.217  0.00  0.00    +0.112 HD
ENDROOT
BRANCH   7  13
ATOM     12  O   UNL     1      32.671 -22.646 -14.420  0.00  0.00    -0.275 OA
ATOM     13  N   UNL     1      34.441 -23.086 -15.855  0.00  0.00    -0.296 N 
ATOM     14  C   UNL     1      33.097 -23.113 -15.473  0.00  0.00    +0.227 C 
ATOM     15  H   UNL     1      34.691 -23.486 -16.719  0.00  0.00    +0.150 HD
BRANCH  14  16
ATOM     16  C   UNL     1      32.220 -23.788 -16.509  0.00  0.00    +0.111 C 
BRANCH  16  17
ATOM     17  C   UNL     1      30.749 -23.687 -16.201  0.00  0.00    -0.013 C 
ATOM     18  C   UNL     1      30.119 -24.724 -15.527  0.00  0.00    -0.004 C 
ATOM     19  C   UNL     1      30.044 -22.559 -16.596  0.00  0.00    -0.004 C 
ATOM     20  C   UNL     1      28.756 -24.630 -15.243  0.00  0.00    -0.000 C 
ATOM     21  C   UNL     1      28.682 -22.465 -16.311  0.00  0.00    -0.000 C 
ATOM     22  C   UNL     1      28.039 -23.501 -15.635  0.00  0.00    -0.000 C 
ENDBRANCH  16  17
ENDBRANCH  14  16
ENDBRANCH   7  13
BRANCH   1  23
ATOM     23  O   UNL     1      35.420 -25.067 -11.954  0.00  0.00    -0.350 OA
ATOM     24  H   UNL     1      36.317 -24.902 -11.625  0.00  0.00    +0.225 HD
ENDBRANCH   1  23
BRANCH   6  26
ATOM     25  OXT UNL     1      38.133 -24.100 -11.710  0.00  0.00    -0.248 OA
ATOM     26  C   UNL     1      38.679 -24.365 -12.771  0.00  0.00    +0.333 C 
BRANCH  26  27
ATOM     27  O   UNL     1      40.021 -24.461 -12.936  0.00  0.00    -0.479 OA
ATOM     28  H   UNL     1      40.380 -25.154 -13.455  0.00  0.00    +0.295 HD
ENDBRANCH  26  27
ENDBRANCH   6  26
TORSDOF 6
ENDMDL
MODEL 7
REMARK VINA RESULT:      -7.2      2.712      4.754
REMARK  Name = 5289386
REMARK  6 active torsions:
REMARK  status: ('A' for Active; 'I' for Inactive)
REMARK    1  A    between atoms: S_1  and  O_23
REMARK    2  A    between atoms: CA_6  and  C_26
REMARK    3  A    between atoms: CA_7  and  N_13
REMARK    4  A    between atoms: C_14  and  C_16
REMARK    5  A    between atoms: C_16  and  C_17
REMARK    6  A    between atoms: C_26  and  O_27
REMARK                            x       y       z     vdW  Elec       q    Type
REMARK                         _______ _______ _______ _____ _____    ______ ____
ROOT
ATOM      1  S   UNL     1      36.272 -22.786 -13.686  0.00  0.00    -0.113 S 
ATOM      2  O   UNL     1      35.462 -26.457 -15.695  0.00  0.00    -0.273 OA
ATOM      3  N   UNL     1      36.956 -24.896 -14.751  0.00  0.00    -0.259 N 
ATOM      4  C   UNL     1      36.836 -23.496 -15.193  0.00  0.00    +0.154 C 
ATOM      5  C   UNL     1      36.346 -24.190 -12.556  0.00  0.00    +0.071 C 
ATOM      6  CA  UNL     1      37.142 -25.245 -13.354  0.00  0.00    +0.185 C 
ATOM      7  CA  UNL     1      35.817 -23.988 -16.229  0.00  0.00    +0.178 C 
ATOM      8  C   UNL     1      36.003 -25.379 -15.596  0.00  0.00    +0.247 C 
ATOM      9  C   UNL     1      36.950 -23.824 -11.200  0.00  0.00    +0.013 C 
ATOM     10  C   UNL     1      34.903 -24.675 -12.328  0.00  0.00    +0.013 C 
ATOM     11  H   UNL     1      35.086 -22.120 -13.712  0.00  0.00    +0.112 HD
ENDROOT
BRANCH   7  13
ATOM     12  O   UNL     1      33.798 -23.853 -18.295  0.00  0.00    -0.275 OA
ATOM     13  N   UNL     1      34.463 -23.443 -16.109  0.00  0.00    -0.296 N 
ATOM     14  C   UNL     1      33.554 -23.423 -17.170  0.00  0.00    +0.227 C 
ATOM     15  H   UNL     1      34.179 -23.075 -15.241  0.00  0.00    +0.150 HD
BRANCH  14  16
ATOM     16  C   UNL     1      32.227 -22.804 -16.777  0.00  0.00    +0.111 C 
BRANCH  16  17
ATOM     17  C   UNL     1      31.607 -23.447 -15.564  0.00  0.00    -0.013 C 
ATOM     18  C   UNL     1      30.889 -24.627 -15.708  0.00  0.00    -0.004 C 
ATOM     19  C   UNL     1      31.762 -22.852 -14.320  0.00  0.00    -0.004 C 
ATOM     20  C   UNL     1      30.314 -25.221 -14.584  0.00  0.00    -0.000 C 
ATOM     21  C   UNL     1      31.188 -23.448 -13.197  0.00  0.00    -0.000 C 
ATOM     22  C   UNL     1      30.464 -24.632 -13.330  0.00  0.00    -0.000 C 
ENDBRANCH  16  17
ENDBRANCH  14  16
ENDBRANCH   7  13
BRANCH   1  23
ATOM     23  O   UNL     1      37.590 -21.940 -13.270  0.00  0.00    -0.350 OA
ATOM     24  H   UNL     1      37.843 -22.162 -12.360  0.00  0.00    +0.225 HD
ENDBRANCH   1  23
BRANCH   6  26
ATOM     25  OXT UNL     1      39.263 -24.243 -12.780  0.00  0.00    -0.248 OA
ATOM     26  C   UNL     1      38.627 -25.211 -13.170  0.00  0.00    +0.333 C 
BRANCH  26  27
ATOM     27  O   UNL     1      39.178 -26.406 -13.496  0.00  0.00    -0.479 OA
ATOM     28  H   UNL     1      39.927 -26.437 -14.058  0.00  0.00    +0.295 HD
ENDBRANCH  26  27
ENDBRANCH   6  26
TORSDOF 6
ENDMDL
MODEL 8
REMARK VINA RESULT:      -6.8     12.319     16.420
REMARK  Name = 5289386
REMARK  6 active torsions:
REMARK  status: ('A' for Active; 'I' for Inactive)
REMARK    1  A    between atoms: S_1  and  O_23
REMARK    2  A    between atoms: CA_6  and  C_26
REMARK    3  A    between atoms: CA_7  and  N_13
REMARK    4  A    between atoms: C_14  and  C_16
REMARK    5  A    between atoms: C_16  and  C_17
REMARK    6  A    between atoms: C_26  and  O_27
REMARK                            x       y       z     vdW  Elec       q    Type
REMARK                         _______ _______ _______ _____ _____    ______ ____
ROOT
ATOM      1  S   UNL     1      31.441  -8.488 -22.711  0.00  0.00    -0.113 S 
ATOM      2  O   UNL     1      35.425  -9.563 -23.781  0.00  0.00    -0.273 OA
ATOM      3  N   UNL     1      33.419  -8.389 -24.172  0.00  0.00    -0.259 N 
ATOM      4  C   UNL     1      32.168  -9.167 -24.162  0.00  0.00    +0.154 C 
ATOM      5  C   UNL     1      32.618  -7.195 -22.269  0.00  0.00    +0.071 C 
ATOM      6  CA  UNL     1      33.523  -7.097 -23.516  0.00  0.00    +0.185 C 
ATOM      7  CA  UNL     1      33.040 -10.425 -24.057  0.00  0.00    +0.178 C 
ATOM      8  C   UNL     1      34.240  -9.462 -24.002  0.00  0.00    +0.247 C 
ATOM      9  C   UNL     1      31.934  -5.886 -21.871  0.00  0.00    +0.013 C 
ATOM     10  C   UNL     1      33.430  -7.702 -21.063  0.00  0.00    +0.013 C 
ATOM     11  H   UNL     1      31.118  -9.350 -21.710  0.00  0.00    +0.112 HD
ENDROOT
BRANCH   7  13
ATOM     12  O   UNL     1      32.396 -13.241 -23.924  0.00  0.00    -0.275 OA
ATOM     13  N   UNL     1      32.858 -11.236 -22.851  0.00  0.00    -0.296 N 
ATOM     14  C   UNL     1      32.546 -12.598 -22.888  0.00  0.00    +0.227 C 
ATOM     15  H   UNL     1      32.960 -10.802 -21.972  0.00  0.00    +0.150 HD
BRANCH  14  16
ATOM     16  C   UNL     1      32.412 -13.193 -21.501  0.00  0.00    +0.111 C 
BRANCH  16  17
ATOM     17  C   UNL     1      33.035 -14.559 -21.376  0.00  0.00    -0.013 C 
ATOM     18  C   UNL     1      32.284 -15.609 -20.867  0.00  0.00    -0.004 C 
ATOM     19  C   UNL     1      34.352 -14.748 -21.772  0.00  0.00    -0.004 C 
ATOM     20  C   UNL     1      32.861 -16.874 -20.751  0.00  0.00    -0.000 C 
ATOM     21  C   UNL     1      34.929 -16.013 -21.657  0.00  0.00    -0.000 C 
ATOM     22  C   UNL     1      34.183 -17.075 -21.146  0.00  0.00    -0.000 C 
ENDBRANCH  16  17
ENDBRANCH  14  16
ENDBRANCH   7  13
BRANCH   1  23
ATOM     23  O   UNL     1      30.234  -7.640 -23.380  0.00  0.00    -0.350 OA
ATOM     24  H   UNL     1      30.318  -6.706 -23.133  0.00  0.00    +0.225 HD
ENDBRANCH   1  23
BRANCH   6  26
ATOM     25  OXT UNL     1      31.974  -5.602 -24.612  0.00  0.00    -0.248 OA
ATOM     26  C   UNL     1      33.078  -6.125 -24.564  0.00  0.00    +0.333 C 
BRANCH  26  27
ATOM     27  O   UNL     1      34.069  -5.900 -25.461  0.00  0.00    -0.479 OA
ATOM     28  H   UNL     1      33.900  -5.386 -26.226  0.00  0.00    +0.295 HD
ENDBRANCH  26  27
ENDBRANCH   6  26
TORSDOF 6
ENDMDL
MODEL 9
REMARK VINA RESULT:      -6.4      3.305      4.393
REMARK  Name = 5289386
REMARK  6 active torsions:
REMARK  status: ('A' for Active; 'I' for Inactive)
REMARK    1  A    between atoms: S_1  and  O_23
REMARK    2  A    between atoms: CA_6  and  C_26
REMARK    3  A    between atoms: CA_7  and  N_13
REMARK    4  A    between atoms: C_14  and  C_16
REMARK    5  A    between atoms: C_16  and  C_17
REMARK    6  A    between atoms: C_26  and  O_27
REMARK                            x       y       z     vdW  Elec       q    Type
REMARK                         _______ _______ _______ _____ _____    ______ ____
ROOT
ATOM      1  S   UNL     1      35.821 -24.896 -15.483  0.00  0.00    -0.113 S 
ATOM      2  O   UNL     1      34.163 -23.232 -11.926  0.00  0.00    -0.273 OA
ATOM      3  N   UNL     1      35.521 -24.804 -13.043  0.00  0.00    -0.259 N 
ATOM      4  C   UNL     1      34.904 -25.567 -14.141  0.00  0.00    +0.154 C 
ATOM      5  C   UNL     1      37.004 -23.830 -14.636  0.00  0.00    +0.071 C 
ATOM      6  CA  UNL     1      36.854 -24.240 -13.156  0.00  0.00    +0.185 C 
ATOM      7  CA  UNL     1      33.569 -24.928 -13.738  0.00  0.00    +0.178 C 
ATOM      8  C   UNL     1      34.381 -24.146 -12.688  0.00  0.00    +0.247 C 
ATOM      9  C   UNL     1      38.421 -23.961 -15.197  0.00  0.00    +0.013 C 
ATOM     10  C   UNL     1      36.539 -22.376 -14.834  0.00  0.00    +0.013 C 
ATOM     11  H   UNL     1      35.120 -24.306 -16.489  0.00  0.00    +0.112 HD
ENDROOT
BRANCH   7  13
ATOM     12  O   UNL     1      30.870 -25.169 -14.745  0.00  0.00    -0.275 OA
ATOM     13  N   UNL     1      32.924 -24.090 -14.751  0.00  0.00    -0.296 N 
ATOM     14  C   UNL     1      31.607 -24.286 -15.175  0.00  0.00    +0.227 C 
ATOM     15  H   UNL     1      33.442 -23.355 -15.153  0.00  0.00    +0.150 HD
BRANCH  14  16
ATOM     16  C   UNL     1      31.190 -23.283 -16.232  0.00  0.00    +0.111 C 
BRANCH  16  17
ATOM     17  C   UNL     1      29.725 -22.935 -16.178  0.00  0.00    -0.013 C 
ATOM     18  C   UNL     1      28.909 -23.244 -17.258  0.00  0.00    -0.004 C 
ATOM     19  C   UNL     1      29.212 -22.311 -15.050  0.00  0.00    -0.004 C 
ATOM     20  C   UNL     1      27.553 -22.922 -17.208  0.00  0.00    -0.000 C 
ATOM     21  C   UNL     1      27.855 -21.990 -14.999  0.00  0.00    -0.000 C 
ATOM     22  C   UNL     1      27.027 -22.295 -16.079  0.00  0.00    -0.000 C 
ENDBRANCH  16  17
ENDBRANCH  14  16
ENDBRANCH   7  13
BRANCH   1  23
ATOM     23  O   UNL     1      36.729 -26.182 -15.866  0.00  0.00    -0.350 OA
ATOM     24  H   UNL     1      37.146 -26.038 -16.730  0.00  0.00    +0.225 HD
ENDBRANCH   1  23
BRANCH   6  26
ATOM     25  OXT UNL     1      37.820 -26.454 -13.212  0.00  0.00    -0.248 OA
ATOM     26  C   UNL     1      37.752 -25.347 -12.697  0.00  0.00    +0.333 C 
BRANCH  26  27
ATOM     27  O   UNL     1      38.484 -24.957 -11.625  0.00  0.00    -0.479 OA
ATOM     28  H   UNL     1      38.082 -24.897 -10.781  0.00  0.00    +0.295 HD
ENDBRANCH  26  27
ENDBRANCH   6  26
TORSDOF 6
ENDMDL
