MODEL 1
REMARK VINA RESULT:     -10.0      0.000      0.000
REMARK  Name = 25113617
REMARK  7 active torsions:
REMARK  status: ('A' for Active; 'I' for Inactive)
REMARK    1  A    between atoms: N_2  and  C_17
REMARK    2  A    between atoms: C_3  and  C_7
REMARK    3  A    between atoms: C_11  and  C_12
REMARK    4  A    between atoms: C_12  and  C_13
REMARK    5  A    between atoms: C_13  and  C_14
REMARK    6  A    between atoms: C_17  and  C_18
REMARK    7  A    between atoms: C_23  and  C_26
REMARK                            x       y       z     vdW  Elec       q    Type
REMARK                         _______ _______ _______ _____ _____    ______ ____
ROOT
ATOM      1  O   UNL     1      32.294 -25.054 -13.395  0.00  0.00    -0.273 OA
ATOM      2  N   UNL     1      34.192 -23.724 -13.180  0.00  0.00    -0.299 N 
ATOM      3  C   UNL     1      32.920 -24.026 -13.636  0.00  0.00    +0.241 C 
ATOM      4  H   UNL     1      34.592 -22.863 -13.442  0.00  0.00    +0.150 HD
ENDROOT
BRANCH   3   7
ATOM      5  O   UNL     1      34.777 -22.819 -15.982  0.00  0.00    -0.275 OA
ATOM      6  N   UNL     1      32.515 -23.297 -15.864  0.00  0.00    -0.273 N 
ATOM      7  C   UNL     1      32.339 -22.922 -14.467  0.00  0.00    +0.152 C 
ATOM      8  C   UNL     1      30.829 -22.811 -14.283  0.00  0.00    +0.031 C 
ATOM      9  C   UNL     1      30.274 -23.800 -15.306  0.00  0.00    +0.024 C 
ATOM     10  C   UNL     1      31.243 -23.679 -16.472  0.00  0.00    +0.094 C 
ATOM     11  C   UNL     1      33.721 -23.144 -16.529  0.00  0.00    +0.226 C 
BRANCH  11  12
ATOM     12  C   UNL     1      33.685 -23.414 -18.012  0.00  0.00    +0.085 C 
BRANCH  12  13
ATOM     13  C   UNL     1      33.451 -22.105 -18.750  0.00  0.00    +0.010 C 
BRANCH  13  14
ATOM     14  C   UNL     1      34.610 -21.734 -19.691  0.00  0.00    +0.000 C 
ATOM     15  C   UNL     1      35.940 -21.586 -18.949  0.00  0.00    +0.000 C 
ATOM     16  C   UNL     1      34.284 -20.433 -20.431  0.00  0.00    +0.000 C 
ENDBRANCH  13  14
ENDBRANCH  12  13
ENDBRANCH  11  12
ENDBRANCH   3   7
BRANCH   2  17
ATOM     17  C   UNL     1      34.963 -24.613 -12.340  0.00  0.00    +0.116 C 
BRANCH  17  18
ATOM     18  C   UNL     1      36.277 -24.979 -12.968  0.00  0.00    -0.003 C 
ATOM     19  C   UNL     1      36.321 -25.400 -14.297  0.00  0.00    -0.003 C 
ATOM     20  C   UNL     1      37.452 -24.900 -12.221  0.00  0.00    -0.003 C 
ATOM     21  C   UNL     1      37.542 -25.742 -14.880  0.00  0.00    +0.002 C 
ATOM     22  C   UNL     1      38.673 -25.242 -12.804  0.00  0.00    +0.002 C 
ATOM     23  C   UNL     1      38.717 -25.662 -14.133  0.00  0.00    +0.031 C 
BRANCH  23  26
ATOM     24  N   UNL     1      40.964 -26.715 -14.030  0.00  0.00    -0.343 N 
ATOM     25  N   UNL     1      40.240 -25.673 -15.993  0.00  0.00    -0.285 NA
ATOM     26  C   UNL     1      39.990 -26.018 -14.742  0.00  0.00    +0.117 C 
ATOM     27  H   UNL     1      41.819 -26.945 -14.461  0.00  0.00    +0.144 HD
ATOM     28  H   UNL     1      40.799 -26.977 -13.096  0.00  0.00    +0.144 HD
ATOM     29  H   UNL     1      41.100 -25.913 -16.407  0.00  0.00    +0.188 HD
ENDBRANCH  23  26
ENDBRANCH  17  18
ENDBRANCH   2  17
TORSDOF 7
ENDMDL
MODEL 2
REMARK VINA RESULT:      -9.9      6.987     11.021
REMARK  Name = 25113617
REMARK  7 active torsions:
REMARK  status: ('A' for Active; 'I' for Inactive)
REMARK    1  A    between atoms: N_2  and  C_17
REMARK    2  A    between atoms: C_3  and  C_7
REMARK    3  A    between atoms: C_11  and  C_12
REMARK    4  A    between atoms: C_12  and  C_13
REMARK    5  A    between atoms: C_13  and  C_14
REMARK    6  A    between atoms: C_17  and  C_18
REMARK    7  A    between atoms: C_23  and  C_26
REMARK                            x       y       z     vdW  Elec       q    Type
REMARK                         _______ _______ _______ _____ _____    ______ ____
ROOT
ATOM      1  O   UNL     1      35.546 -15.459 -23.497  0.00  0.00    -0.273 OA
ATOM      2  N   UNL     1      34.281 -16.981 -22.274  0.00  0.00    -0.299 N 
ATOM      3  C   UNL     1      34.471 -15.858 -23.060  0.00  0.00    +0.241 C 
ATOM      4  H   UNL     1      33.365 -17.200 -21.983  0.00  0.00    +0.150 HD
ENDROOT
BRANCH   3   7
ATOM      5  O   UNL     1      32.531 -15.197 -20.568  0.00  0.00    -0.275 OA
ATOM      6  N   UNL     1      33.097 -14.007 -22.472  0.00  0.00    -0.273 N 
ATOM      7  C   UNL     1      33.183 -15.154 -23.366  0.00  0.00    +0.152 C 
ATOM      8  C   UNL     1      33.185 -14.554 -24.767  0.00  0.00    +0.031 C 
ATOM      9  C   UNL     1      33.824 -13.181 -24.565  0.00  0.00    +0.024 C 
ATOM     10  C   UNL     1      33.313 -12.757 -23.196  0.00  0.00    +0.094 C 
ATOM     11  C   UNL     1      32.704 -14.122 -21.148  0.00  0.00    +0.226 C 
BRANCH  11  12
ATOM     12  C   UNL     1      32.499 -12.821 -20.415  0.00  0.00    +0.085 C 
BRANCH  12  13
ATOM     13  C   UNL     1      31.209 -12.176 -20.898  0.00  0.00    +0.010 C 
BRANCH  13  14
ATOM     14  C   UNL     1      30.990 -10.769 -20.316  0.00  0.00    +0.000 C 
ATOM     15  C   UNL     1      31.779  -9.697 -21.068  0.00  0.00    +0.000 C 
ATOM     16  C   UNL     1      31.377 -10.753 -18.834  0.00  0.00    +0.000 C 
ENDBRANCH  13  14
ENDBRANCH  12  13
ENDBRANCH  11  12
ENDBRANCH   3   7
BRANCH   2  17
ATOM     17  C   UNL     1      35.360 -17.847 -21.857  0.00  0.00    +0.116 C 
BRANCH  17  18
ATOM     18  C   UNL     1      34.858 -19.054 -21.118  0.00  0.00    -0.003 C 
ATOM     19  C   UNL     1      33.487 -19.248 -20.950  0.00  0.00    -0.003 C 
ATOM     20  C   UNL     1      35.763 -19.979 -20.598  0.00  0.00    -0.003 C 
ATOM     21  C   UNL     1      33.020 -20.368 -20.262  0.00  0.00    +0.002 C 
ATOM     22  C   UNL     1      35.297 -21.099 -19.910  0.00  0.00    +0.002 C 
ATOM     23  C   UNL     1      33.925 -21.294 -19.743  0.00  0.00    +0.031 C 
BRANCH  23  26
ATOM     24  N   UNL     1      32.409 -22.364 -18.092  0.00  0.00    -0.343 N 
ATOM     25  N   UNL     1      33.979 -23.646 -19.255  0.00  0.00    -0.285 NA
ATOM     26  C   UNL     1      33.438 -22.463 -19.026  0.00  0.00    +0.117 C 
ATOM     27  H   UNL     1      32.095 -23.167 -17.618  0.00  0.00    +0.144 HD
ATOM     28  H   UNL     1      31.996 -21.490 -17.906  0.00  0.00    +0.144 HD
ATOM     29  H   UNL     1      33.651 -24.439 -18.771  0.00  0.00    +0.188 HD
ENDBRANCH  23  26
ENDBRANCH  17  18
ENDBRANCH   2  17
TORSDOF 7
ENDMDL
MODEL 3
REMARK VINA RESULT:      -9.7      2.308      6.767
REMARK  Name = 25113617
REMARK  7 active torsions:
REMARK  status: ('A' for Active; 'I' for Inactive)
REMARK    1  A    between atoms: N_2  and  C_17
REMARK    2  A    between atoms: C_3  and  C_7
REMARK    3  A    between atoms: C_11  and  C_12
REMARK    4  A    between atoms: C_12  and  C_13
REMARK    5  A    between atoms: C_13  and  C_14
REMARK    6  A    between atoms: C_17  and  C_18
REMARK    7  A    between atoms: C_23  and  C_26
REMARK                            x       y       z     vdW  Elec       q    Type
REMARK                         _______ _______ _______ _____ _____    ______ ____
ROOT
ATOM      1  O   UNL     1      34.828 -23.698 -12.985  0.00  0.00    -0.273 OA
ATOM      2  N   UNL     1      33.404 -25.010 -14.276  0.00  0.00    -0.299 N 
ATOM      3  C   UNL     1      34.610 -24.406 -13.964  0.00  0.00    +0.241 C 
ATOM      4  H   UNL     1      33.353 -25.558 -15.093  0.00  0.00    +0.150 HD
ENDROOT
BRANCH   3   7
ATOM      5  O   UNL     1      33.952 -23.826 -17.068  0.00  0.00    -0.275 OA
ATOM      6  N   UNL     1      35.864 -23.548 -15.794  0.00  0.00    -0.273 N 
ATOM      7  C   UNL     1      35.682 -24.729 -14.960  0.00  0.00    +0.152 C 
ATOM      8  C   UNL     1      37.034 -24.942 -14.288  0.00  0.00    +0.031 C 
ATOM      9  C   UNL     1      37.613 -23.531 -14.203  0.00  0.00    +0.024 C 
ATOM     10  C   UNL     1      37.123 -22.874 -15.484  0.00  0.00    +0.094 C 
ATOM     11  C   UNL     1      35.008 -23.234 -16.837  0.00  0.00    +0.226 C 
BRANCH  11  12
ATOM     12  C   UNL     1      35.439 -22.080 -17.707  0.00  0.00    +0.085 C 
BRANCH  12  13
ATOM     13  C   UNL     1      34.540 -22.018 -18.932  0.00  0.00    +0.010 C 
BRANCH  13  14
ATOM     14  C   UNL     1      35.189 -21.275 -20.112  0.00  0.00    +0.000 C 
ATOM     15  C   UNL     1      36.593 -20.767 -19.782  0.00  0.00    +0.000 C 
ATOM     16  C   UNL     1      34.301 -20.102 -20.540  0.00  0.00    +0.000 C 
ENDBRANCH  13  14
ENDBRANCH  12  13
ENDBRANCH  11  12
ENDBRANCH   3   7
BRANCH   2  17
ATOM     17  C   UNL     1      32.217 -24.875 -13.462  0.00  0.00    +0.116 C 
BRANCH  17  18
ATOM     18  C   UNL     1      31.050 -24.361 -14.254  0.00  0.00    -0.003 C 
ATOM     19  C   UNL     1      30.007 -25.222 -14.598  0.00  0.00    -0.003 C 
ATOM     20  C   UNL     1      31.009 -23.023 -14.647  0.00  0.00    -0.003 C 
ATOM     21  C   UNL     1      28.924 -24.745 -15.336  0.00  0.00    +0.002 C 
ATOM     22  C   UNL     1      29.925 -22.546 -15.384  0.00  0.00    +0.002 C 
ATOM     23  C   UNL     1      28.882 -23.406 -15.727  0.00  0.00    +0.031 C 
BRANCH  23  26
ATOM     24  N   UNL     1      26.753 -22.140 -15.901  0.00  0.00    -0.343 N 
ATOM     25  N   UNL     1      27.656 -23.191 -17.783  0.00  0.00    -0.285 NA
ATOM     26  C   UNL     1      27.751 -22.909 -16.496  0.00  0.00    +0.117 C 
ATOM     27  H   UNL     1      25.996 -21.814 -16.440  0.00  0.00    +0.144 HD
ATOM     28  H   UNL     1      26.804 -21.923 -14.942  0.00  0.00    +0.144 HD
ATOM     29  H   UNL     1      26.892 -22.855 -18.305  0.00  0.00    +0.188 HD
ENDBRANCH  23  26
ENDBRANCH  17  18
ENDBRANCH   2  17
TORSDOF 7
ENDMDL
MODEL 4
REMARK VINA RESULT:      -9.7      9.209     14.114
REMARK  Name = 25113617
REMARK  7 active torsions:
REMARK  status: ('A' for Active; 'I' for Inactive)
REMARK    1  A    between atoms: N_2  and  C_17
REMARK    2  A    between atoms: C_3  and  C_7
REMARK    3  A    between atoms: C_11  and  C_12
REMARK    4  A    between atoms: C_12  and  C_13
REMARK    5  A    between atoms: C_13  and  C_14
REMARK    6  A    between atoms: C_17  and  C_18
REMARK    7  A    between atoms: C_23  and  C_26
REMARK                            x       y       z     vdW  Elec       q    Type
REMARK                         _______ _______ _______ _____ _____    ______ ____
ROOT
ATOM      1  O   UNL     1      32.385 -15.622 -21.707  0.00  0.00    -0.273 OA
ATOM      2  N   UNL     1      32.888 -13.406 -22.211  0.00  0.00    -0.299 N 
ATOM      3  C   UNL     1      33.149 -14.764 -22.141  0.00  0.00    +0.241 C 
ATOM      4  H   UNL     1      33.584 -12.814 -22.581  0.00  0.00    +0.150 HD
ENDROOT
BRANCH   3   7
ATOM      5  O   UNL     1      35.123 -16.450 -20.226  0.00  0.00    -0.275 OA
ATOM      6  N   UNL     1      34.686 -16.544 -22.498  0.00  0.00    -0.273 N 
ATOM      7  C   UNL     1      34.499 -15.112 -22.690  0.00  0.00    +0.152 C 
ATOM      8  C   UNL     1      34.564 -14.913 -24.200  0.00  0.00    +0.031 C 
ATOM      9  C   UNL     1      34.056 -16.242 -24.756  0.00  0.00    +0.024 C 
ATOM     10  C   UNL     1      34.594 -17.263 -23.766  0.00  0.00    +0.094 C 
ATOM     11  C   UNL     1      35.057 -17.089 -21.278  0.00  0.00    +0.226 C 
BRANCH  11  12
ATOM     12  C   UNL     1      35.378 -18.562 -21.296  0.00  0.00    +0.085 C 
BRANCH  12  13
ATOM     13  C   UNL     1      34.128 -19.348 -20.932  0.00  0.00    +0.010 C 
BRANCH  13  14
ATOM     14  C   UNL     1      34.437 -20.777 -20.453  0.00  0.00    +0.000 C 
ATOM     15  C   UNL     1      33.412 -21.288 -19.440  0.00  0.00    +0.000 C 
ATOM     16  C   UNL     1      35.840 -20.827 -19.839  0.00  0.00    +0.000 C 
ENDBRANCH  13  14
ENDBRANCH  12  13
ENDBRANCH  11  12
ENDBRANCH   3   7
BRANCH   2  17
ATOM     17  C   UNL     1      31.647 -12.815 -21.766  0.00  0.00    +0.116 C 
BRANCH  17  18
ATOM     18  C   UNL     1      31.808 -11.361 -21.425  0.00  0.00    -0.003 C 
ATOM     19  C   UNL     1      31.701 -10.941 -20.099  0.00  0.00    -0.003 C 
ATOM     20  C   UNL     1      32.064 -10.433 -22.434  0.00  0.00    -0.003 C 
ATOM     21  C   UNL     1      31.849  -9.591 -19.782  0.00  0.00    +0.002 C 
ATOM     22  C   UNL     1      32.212  -9.083 -22.117  0.00  0.00    +0.002 C 
ATOM     23  C   UNL     1      32.105  -8.662 -20.791  0.00  0.00    +0.031 C 
BRANCH  23  26
ATOM     24  N   UNL     1      31.611  -6.261 -21.190  0.00  0.00    -0.343 N 
ATOM     25  N   UNL     1      33.035  -6.897 -19.450  0.00  0.00    -0.285 NA
ATOM     26  C   UNL     1      32.260  -7.254 -20.459  0.00  0.00    +0.117 C 
ATOM     27  H   UNL     1      31.730  -5.314 -20.948  0.00  0.00    +0.144 HD
ATOM     28  H   UNL     1      31.032  -6.506 -21.948  0.00  0.00    +0.144 HD
ATOM     29  H   UNL     1      33.141  -5.945 -19.224  0.00  0.00    +0.188 HD
ENDBRANCH  23  26
ENDBRANCH  17  18
ENDBRANCH   2  17
TORSDOF 7
ENDMDL
MODEL 5
REMARK VINA RESULT:      -9.6      4.240      7.195
REMARK  Name = 25113617
REMARK  7 active torsions:
REMARK  status: ('A' for Active; 'I' for Inactive)
REMARK    1  A    between atoms: N_2  and  C_17
REMARK    2  A    between atoms: C_3  and  C_7
REMARK    3  A    between atoms: C_11  and  C_12
REMARK    4  A    between atoms: C_12  and  C_13
REMARK    5  A    between atoms: C_13  and  C_14
REMARK    6  A    between atoms: C_17  and  C_18
REMARK    7  A    between atoms: C_23  and  C_26
REMARK                            x       y       z     vdW  Elec       q    Type
REMARK                         _______ _______ _______ _____ _____    ______ ____
ROOT
ATOM      1  O   UNL     1      33.596 -24.477 -15.516  0.00  0.00    -0.273 OA
ATOM      2  N   UNL     1      32.850 -22.915 -17.072  0.00  0.00    -0.299 N 
ATOM      3  C   UNL     1      32.847 -23.563 -15.848  0.00  0.00    +0.241 C 
ATOM      4  H   UNL     1      32.197 -22.193 -17.221  0.00  0.00    +0.150 HD
ENDROOT
BRANCH   3   7
ATOM      5  O   UNL     1      30.178 -22.328 -17.175  0.00  0.00    -0.275 OA
ATOM      6  N   UNL     1      30.538 -23.605 -15.278  0.00  0.00    -0.273 N 
ATOM      7  C   UNL     1      31.815 -23.006 -14.914  0.00  0.00    +0.152 C 
ATOM      8  C   UNL     1      32.056 -23.451 -13.476  0.00  0.00    +0.031 C 
ATOM      9  C   UNL     1      31.329 -24.792 -13.393  0.00  0.00    +0.024 C 
ATOM     10  C   UNL     1      30.113 -24.586 -14.282  0.00  0.00    +0.094 C 
ATOM     11  C   UNL     1      29.785 -23.158 -16.353  0.00  0.00    +0.226 C 
BRANCH  11  12
ATOM     12  C   UNL     1      28.412 -23.767 -16.483  0.00  0.00    +0.085 C 
BRANCH  12  13
ATOM     13  C   UNL     1      27.617 -22.984 -17.515  0.00  0.00    +0.010 C 
BRANCH  13  14
ATOM     14  C   UNL     1      26.948 -21.729 -16.929  0.00  0.00    +0.000 C 
ATOM     15  C   UNL     1      26.223 -22.014 -15.613  0.00  0.00    +0.000 C 
ATOM     16  C   UNL     1      25.963 -21.141 -17.944  0.00  0.00    +0.000 C 
ENDBRANCH  13  14
ENDBRANCH  12  13
ENDBRANCH  11  12
ENDBRANCH   3   7
BRANCH   2  17
ATOM     17  C   UNL     1      33.765 -23.248 -18.140  0.00  0.00    +0.116 C 
BRANCH  17  18
ATOM     18  C   UNL     1      34.044 -22.069 -19.028  0.00  0.00    -0.003 C 
ATOM     19  C   UNL     1      35.358 -21.745 -19.363  0.00  0.00    -0.003 C 
ATOM     20  C   UNL     1      32.988 -21.297 -19.514  0.00  0.00    -0.003 C 
ATOM     21  C   UNL     1      35.618 -20.649 -20.186  0.00  0.00    +0.002 C 
ATOM     22  C   UNL     1      33.248 -20.201 -20.336  0.00  0.00    +0.002 C 
ATOM     23  C   UNL     1      34.562 -19.877 -20.673  0.00  0.00    +0.031 C 
BRANCH  23  26
ATOM     24  N   UNL     1      35.272 -17.521 -21.006  0.00  0.00    -0.343 N 
ATOM     25  N   UNL     1      34.660 -18.837 -22.837  0.00  0.00    -0.285 NA
ATOM     26  C   UNL     1      34.834 -18.734 -21.532  0.00  0.00    +0.117 C 
ATOM     27  H   UNL     1      35.449 -16.760 -21.605  0.00  0.00    +0.144 HD
ATOM     28  H   UNL     1      35.404 -17.423 -20.035  0.00  0.00    +0.144 HD
ATOM     29  H   UNL     1      34.843 -18.065 -23.420  0.00  0.00    +0.188 HD
ENDBRANCH  23  26
ENDBRANCH  17  18
ENDBRANCH   2  17
TORSDOF 7
ENDMDL
MODEL 6
REMARK VINA RESULT:      -9.4     10.704     15.691
REMARK  Name = 25113617
REMARK  7 active torsions:
REMARK  status: ('A' for Active; 'I' for Inactive)
REMARK    1  A    between atoms: N_2  and  C_17
REMARK    2  A    between atoms: C_3  and  C_7
REMARK    3  A    between atoms: C_11  and  C_12
REMARK    4  A    between atoms: C_12  and  C_13
REMARK    5  A    between atoms: C_13  and  C_14
REMARK    6  A    between atoms: C_17  and  C_18
REMARK    7  A    between atoms: C_23  and  C_26
REMARK                            x       y       z     vdW  Elec       q    Type
REMARK                         _______ _______ _______ _____ _____    ______ ____
ROOT
ATOM      1  O   UNL     1      33.425 -13.442 -25.823  0.00  0.00    -0.273 OA
ATOM      2  N   UNL     1      33.874 -12.285 -23.854  0.00  0.00    -0.299 N 
ATOM      3  C   UNL     1      33.408 -13.355 -24.599  0.00  0.00    +0.241 C 
ATOM      4  H   UNL     1      33.805 -12.332 -22.872  0.00  0.00    +0.150 HD
ENDROOT
BRANCH   3   7
ATOM      5  O   UNL     1      33.712 -16.367 -25.714  0.00  0.00    -0.275 OA
ATOM      6  N   UNL     1      33.939 -15.449 -23.601  0.00  0.00    -0.273 N 
ATOM      7  C   UNL     1      32.878 -14.460 -23.735  0.00  0.00    +0.152 C 
ATOM      8  C   UNL     1      32.609 -13.985 -22.311  0.00  0.00    +0.031 C 
ATOM      9  C   UNL     1      33.958 -14.163 -21.617  0.00  0.00    +0.024 C 
ATOM     10  C   UNL     1      34.518 -15.423 -22.260  0.00  0.00    +0.094 C 
ATOM     11  C   UNL     1      34.221 -16.377 -24.591  0.00  0.00    +0.226 C 
BRANCH  11  12
ATOM     12  C   UNL     1      35.228 -17.436 -24.221  0.00  0.00    +0.085 C 
BRANCH  12  13
ATOM     13  C   UNL     1      34.491 -18.690 -23.780  0.00  0.00    +0.010 C 
BRANCH  13  14
ATOM     14  C   UNL     1      34.976 -19.223 -22.421  0.00  0.00    +0.000 C 
ATOM     15  C   UNL     1      33.937 -19.035 -21.315  0.00  0.00    +0.000 C 
ATOM     16  C   UNL     1      36.283 -18.528 -22.027  0.00  0.00    +0.000 C 
ENDBRANCH  13  14
ENDBRANCH  12  13
ENDBRANCH  11  12
ENDBRANCH   3   7
BRANCH   2  17
ATOM     17  C   UNL     1      34.455 -11.103 -24.447  0.00  0.00    +0.116 C 
BRANCH  17  18
ATOM     18  C   UNL     1      33.873  -9.843 -23.873  0.00  0.00    -0.003 C 
ATOM     19  C   UNL     1      34.597  -8.652 -23.927  0.00  0.00    -0.003 C 
ATOM     20  C   UNL     1      32.608  -9.865 -23.284  0.00  0.00    -0.003 C 
ATOM     21  C   UNL     1      34.057  -7.483 -23.392  0.00  0.00    +0.002 C 
ATOM     22  C   UNL     1      32.068  -8.695 -22.749  0.00  0.00    +0.002 C 
ATOM     23  C   UNL     1      32.792  -7.504 -22.804  0.00  0.00    +0.031 C 
BRANCH  23  26
ATOM     24  N   UNL     1      32.137  -6.091 -20.870  0.00  0.00    -0.343 N 
ATOM     25  N   UNL     1      31.789  -5.335 -23.054  0.00  0.00    -0.285 NA
ATOM     26  C   UNL     1      32.229  -6.284 -22.247  0.00  0.00    +0.117 C 
ATOM     27  H   UNL     1      31.752  -5.257 -20.515  0.00  0.00    +0.144 HD
ATOM     28  H   UNL     1      32.456  -6.788 -20.252  0.00  0.00    +0.144 HD
ATOM     29  H   UNL     1      31.408  -4.508 -22.679  0.00  0.00    +0.188 HD
ENDBRANCH  23  26
ENDBRANCH  17  18
ENDBRANCH   2  17
TORSDOF 7
ENDMDL
MODEL 7
REMARK VINA RESULT:      -9.4      6.505     10.199
REMARK  Name = 25113617
REMARK  7 active torsions:
REMARK  status: ('A' for Active; 'I' for Inactive)
REMARK    1  A    between atoms: N_2  and  C_17
REMARK    2  A    between atoms: C_3  and  C_7
REMARK    3  A    between atoms: C_11  and  C_12
REMARK    4  A    between atoms: C_12  and  C_13
REMARK    5  A    between atoms: C_13  and  C_14
REMARK    6  A    between atoms: C_17  and  C_18
REMARK    7  A    between atoms: C_23  and  C_26
REMARK                            x       y       z     vdW  Elec       q    Type
REMARK                         _______ _______ _______ _____ _____    ______ ____
ROOT
ATOM      1  O   UNL     1      34.270 -17.424 -23.138  0.00  0.00    -0.273 OA
ATOM      2  N   UNL     1      35.620 -17.909 -21.306  0.00  0.00    -0.299 N 
ATOM      3  C   UNL     1      34.837 -17.090 -22.102  0.00  0.00    +0.241 C 
ATOM      4  H   UNL     1      36.025 -17.525 -20.494  0.00  0.00    +0.150 HD
ENDROOT
BRANCH   3   7
ATOM      5  O   UNL     1      35.154 -14.643 -24.179  0.00  0.00    -0.275 OA
ATOM      6  N   UNL     1      33.752 -14.991 -22.370  0.00  0.00    -0.273 N 
ATOM      7  C   UNL     1      34.719 -15.703 -21.546  0.00  0.00    +0.152 C 
ATOM      8  C   UNL     1      34.109 -15.705 -20.148  0.00  0.00    +0.031 C 
ATOM      9  C   UNL     1      32.606 -15.668 -20.417  0.00  0.00    +0.024 C 
ATOM     10  C   UNL     1      32.494 -14.792 -21.655  0.00  0.00    +0.094 C 
ATOM     11  C   UNL     1      34.080 -14.453 -23.605  0.00  0.00    +0.226 C 
BRANCH  11  12
ATOM     12  C   UNL     1      33.016 -13.598 -24.245  0.00  0.00    +0.085 C 
BRANCH  12  13
ATOM     13  C   UNL     1      33.458 -12.144 -24.210  0.00  0.00    +0.010 C 
BRANCH  13  14
ATOM     14  C   UNL     1      33.669 -11.548 -25.612  0.00  0.00    +0.000 C 
ATOM     15  C   UNL     1      33.615 -12.610 -26.711  0.00  0.00    +0.000 C 
ATOM     16  C   UNL     1      35.011 -10.812 -25.669  0.00  0.00    +0.000 C 
ENDBRANCH  13  14
ENDBRANCH  12  13
ENDBRANCH  11  12
ENDBRANCH   3   7
BRANCH   2  17
ATOM     17  C   UNL     1      35.874 -19.299 -21.610  0.00  0.00    +0.116 C 
BRANCH  17  18
ATOM     18  C   UNL     1      35.183 -20.219 -20.645  0.00  0.00    -0.003 C 
ATOM     19  C   UNL     1      35.933 -21.084 -19.847  0.00  0.00    -0.003 C 
ATOM     20  C   UNL     1      33.791 -20.210 -20.548  0.00  0.00    -0.003 C 
ATOM     21  C   UNL     1      35.291 -21.940 -18.952  0.00  0.00    +0.002 C 
ATOM     22  C   UNL     1      33.149 -21.066 -19.653  0.00  0.00    +0.002 C 
ATOM     23  C   UNL     1      33.899 -21.930 -18.855  0.00  0.00    +0.031 C 
BRANCH  23  26
ATOM     24  N   UNL     1      31.873 -22.689 -17.635  0.00  0.00    -0.343 N 
ATOM     25  N   UNL     1      33.916 -23.780 -17.321  0.00  0.00    -0.285 NA
ATOM     26  C   UNL     1      33.230 -22.823 -17.920  0.00  0.00    +0.117 C 
ATOM     27  H   UNL     1      31.441 -23.304 -17.000  0.00  0.00    +0.144 HD
ATOM     28  H   UNL     1      31.346 -21.980 -18.069  0.00  0.00    +0.144 HD
ATOM     29  H   UNL     1      33.465 -24.385 -16.688  0.00  0.00    +0.188 HD
ENDBRANCH  23  26
ENDBRANCH  17  18
ENDBRANCH   2  17
TORSDOF 7
ENDMDL
MODEL 8
REMARK VINA RESULT:      -9.3      7.210     10.923
REMARK  Name = 25113617
REMARK  7 active torsions:
REMARK  status: ('A' for Active; 'I' for Inactive)
REMARK    1  A    between atoms: N_2  and  C_17
REMARK    2  A    between atoms: C_3  and  C_7
REMARK    3  A    between atoms: C_11  and  C_12
REMARK    4  A    between atoms: C_12  and  C_13
REMARK    5  A    between atoms: C_13  and  C_14
REMARK    6  A    between atoms: C_17  and  C_18
REMARK    7  A    between atoms: C_23  and  C_26
REMARK                            x       y       z     vdW  Elec       q    Type
REMARK                         _______ _______ _______ _____ _____    ______ ____
ROOT
ATOM      1  O   UNL     1      33.891 -16.041 -23.810  0.00  0.00    -0.273 OA
ATOM      2  N   UNL     1      34.837 -17.165 -22.005  0.00  0.00    -0.299 N 
ATOM      3  C   UNL     1      34.398 -16.046 -22.692  0.00  0.00    +0.241 C 
ATOM      4  H   UNL     1      35.228 -17.040 -21.109  0.00  0.00    +0.150 HD
ENDROOT
BRANCH   3   7
ATOM      5  O   UNL     1      34.184 -13.259 -24.302  0.00  0.00    -0.275 OA
ATOM      6  N   UNL     1      33.452 -13.918 -22.208  0.00  0.00    -0.273 N 
ATOM      7  C   UNL     1      34.581 -14.786 -21.902  0.00  0.00    +0.152 C 
ATOM      8  C   UNL     1      34.480 -15.039 -20.402  0.00  0.00    +0.031 C 
ATOM      9  C   UNL     1      32.982 -14.931 -20.124  0.00  0.00    +0.024 C 
ATOM     10  C   UNL     1      32.528 -13.838 -21.079  0.00  0.00    +0.094 C 
ATOM     11  C   UNL     1      33.385 -13.164 -23.369  0.00  0.00    +0.226 C 
BRANCH  11  12
ATOM     12  C   UNL     1      32.237 -12.189 -23.446  0.00  0.00    +0.085 C 
BRANCH  12  13
ATOM     13  C   UNL     1      32.753 -10.789 -23.155  0.00  0.00    +0.010 C 
BRANCH  13  14
ATOM     14  C   UNL     1      31.721  -9.911 -22.427  0.00  0.00    +0.000 C 
ATOM     15  C   UNL     1      32.282  -8.538 -22.055  0.00  0.00    +0.000 C 
ATOM     16  C   UNL     1      31.226 -10.626 -21.166  0.00  0.00    +0.000 C 
ENDBRANCH  13  14
ENDBRANCH  12  13
ENDBRANCH  11  12
ENDBRANCH   3   7
BRANCH   2  17
ATOM     17  C   UNL     1      34.751 -18.505 -22.538  0.00  0.00    +0.116 C 
BRANCH  17  18
ATOM     18  C   UNL     1      34.516 -19.524 -21.460  0.00  0.00    -0.003 C 
ATOM     19  C   UNL     1      33.227 -19.737 -20.973  0.00  0.00    -0.003 C 
ATOM     20  C   UNL     1      35.587 -20.255 -20.946  0.00  0.00    -0.003 C 
ATOM     21  C   UNL     1      33.008 -20.682 -19.970  0.00  0.00    +0.002 C 
ATOM     22  C   UNL     1      35.368 -21.200 -19.944  0.00  0.00    +0.002 C 
ATOM     23  C   UNL     1      34.079 -21.414 -19.457  0.00  0.00    +0.031 C 
BRANCH  23  26
ATOM     24  N   UNL     1      32.563 -22.820 -18.080  0.00  0.00    -0.343 N 
ATOM     25  N   UNL     1      34.876 -22.910 -17.753  0.00  0.00    -0.285 NA
ATOM     26  C   UNL     1      33.850 -22.400 -18.411  0.00  0.00    +0.117 C 
ATOM     27  H   UNL     1      32.431 -23.488 -17.369  0.00  0.00    +0.144 HD
ATOM     28  H   UNL     1      31.786 -22.449 -18.557  0.00  0.00    +0.144 HD
ATOM     29  H   UNL     1      34.723 -23.577 -17.046  0.00  0.00    +0.188 HD
ENDBRANCH  23  26
ENDBRANCH  17  18
ENDBRANCH   2  17
TORSDOF 7
ENDMDL
MODEL 9
REMARK VINA RESULT:      -9.3      8.870     13.959
REMARK  Name = 25113617
REMARK  7 active torsions:
REMARK  status: ('A' for Active; 'I' for Inactive)
REMARK    1  A    between atoms: N_2  and  C_17
REMARK    2  A    between atoms: C_3  and  C_7
REMARK    3  A    between atoms: C_11  and  C_12
REMARK    4  A    between atoms: C_12  and  C_13
REMARK    5  A    between atoms: C_13  and  C_14
REMARK    6  A    between atoms: C_17  and  C_18
REMARK    7  A    between atoms: C_23  and  C_26
REMARK                            x       y       z     vdW  Elec       q    Type
REMARK                         _______ _______ _______ _____ _____    ______ ____
ROOT
ATOM      1  O   UNL     1      33.267 -16.017 -21.673  0.00  0.00    -0.273 OA
ATOM      2  N   UNL     1      33.549 -14.530 -23.441  0.00  0.00    -0.299 N 
ATOM      3  C   UNL     1      33.872 -15.634 -22.671  0.00  0.00    +0.241 C 
ATOM      4  H   UNL     1      34.113 -14.323 -24.222  0.00  0.00    +0.150 HD
ENDROOT
BRANCH   3   7
ATOM      5  O   UNL     1      35.480 -17.516 -20.602  0.00  0.00    -0.275 OA
ATOM      6  N   UNL     1      34.911 -17.768 -22.832  0.00  0.00    -0.273 N 
ATOM      7  C   UNL     1      35.066 -16.368 -23.202  0.00  0.00    +0.152 C 
ATOM      8  C   UNL     1      35.095 -16.371 -24.727  0.00  0.00    +0.031 C 
ATOM      9  C   UNL     1      34.251 -17.589 -25.095  0.00  0.00    +0.024 C 
ATOM     10  C   UNL     1      34.579 -18.587 -23.995  0.00  0.00    +0.094 C 
ATOM     11  C   UNL     1      35.204 -18.239 -21.562  0.00  0.00    +0.226 C 
BRANCH  11  12
ATOM     12  C   UNL     1      35.157 -19.737 -21.397  0.00  0.00    +0.085 C 
BRANCH  12  13
ATOM     13  C   UNL     1      36.179 -20.154 -20.351  0.00  0.00    +0.010 C 
BRANCH  13  14
ATOM     14  C   UNL     1      35.823 -21.484 -19.664  0.00  0.00    +0.000 C 
ATOM     15  C   UNL     1      34.320 -21.630 -19.418  0.00  0.00    +0.000 C 
ATOM     16  C   UNL     1      36.578 -21.602 -18.337  0.00  0.00    +0.000 C 
ENDBRANCH  13  14
ENDBRANCH  12  13
ENDBRANCH  11  12
ENDBRANCH   3   7
BRANCH   2  17
ATOM     17  C   UNL     1      32.426 -13.667 -23.154  0.00  0.00    +0.116 C 
BRANCH  17  18
ATOM     18  C   UNL     1      32.796 -12.214 -23.250  0.00  0.00    -0.003 C 
ATOM     19  C   UNL     1      32.111 -11.269 -22.487  0.00  0.00    -0.003 C 
ATOM     20  C   UNL     1      33.824 -11.812 -24.104  0.00  0.00    -0.003 C 
ATOM     21  C   UNL     1      32.454  -9.920 -22.578  0.00  0.00    +0.002 C 
ATOM     22  C   UNL     1      34.166 -10.463 -24.194  0.00  0.00    +0.002 C 
ATOM     23  C   UNL     1      33.482  -9.517 -23.431  0.00  0.00    +0.031 C 
BRANCH  23  26
ATOM     24  N   UNL     1      32.912  -7.152 -23.930  0.00  0.00    -0.343 N 
ATOM     25  N   UNL     1      35.066  -7.722 -23.225  0.00  0.00    -0.285 NA
ATOM     26  C   UNL     1      33.839  -8.110 -23.524  0.00  0.00    +0.117 C 
ATOM     27  H   UNL     1      33.175  -6.205 -23.986  0.00  0.00    +0.144 HD
ATOM     28  H   UNL     1      31.994  -7.422 -24.161  0.00  0.00    +0.144 HD
ATOM     29  H   UNL     1      35.310  -6.770 -23.287  0.00  0.00    +0.188 HD
ENDBRANCH  23  26
ENDBRANCH  17  18
ENDBRANCH   2  17
TORSDOF 7
ENDMDL
