MODEL 1
REMARK VINA RESULT:      -9.7      0.000      0.000
REMARK  Name = 5319
REMARK  4 active torsions:
REMARK  status: ('A' for Active; 'I' for Inactive)
REMARK    1  A    between atoms: S_1  and  C_4
REMARK    2  A    between atoms: S_1  and  N_14
REMARK    3  A    between atoms: C_7  and  N_10
REMARK    4  A    between atoms: C_15  and  C_17
REMARK                            x       y       z     vdW  Elec       q    Type
REMARK                         _______ _______ _______ _____ _____    ______ ____
ROOT
ATOM      1  S   UNL     1      35.391 -18.601 -22.311  0.00  0.00    +0.076 S 
ATOM      2  O   UNL     1      35.097 -19.065 -23.654  0.00  0.00    -0.150 OA
ATOM      3  O   UNL     1      36.760 -18.376 -21.892  0.00  0.00    -0.150 OA
ENDROOT
BRANCH   1   4
ATOM      4  C   UNL     1      34.689 -19.750 -21.165  0.00  0.00    +0.125 C 
ATOM      5  C   UNL     1      33.319 -19.760 -20.972  0.00  0.00    +0.021 C 
ATOM      6  C   UNL     1      35.523 -20.618 -20.482  0.00  0.00    +0.021 C 
ATOM      7  C   UNL     1      33.590 -21.548 -19.370  0.00  0.00    +0.042 C 
ATOM      8  C   UNL     1      32.765 -20.665 -20.068  0.00  0.00    +0.015 C 
ATOM      9  C   UNL     1      34.969 -21.524 -19.578  0.00  0.00    +0.015 C 
BRANCH   7  10
ATOM     10  N   UNL     1      33.032 -22.465 -18.457  0.00  0.00    -0.357 N 
ATOM     11  H   UNL     1      33.531 -22.720 -17.647  0.00  0.00    +0.142 HD
ATOM     12  H   UNL     1      32.143 -22.851 -18.628  0.00  0.00    +0.142 HD
ENDBRANCH   7  10
ENDBRANCH   1   4
BRANCH   1  14
ATOM     13  O   UNL     1      35.408 -15.764 -23.575  0.00  0.00    -0.269 OA
ATOM     14  N   UNL     1      34.462 -17.198 -21.982  0.00  0.00    -0.181 N 
ATOM     15  C   UNL     1      34.585 -15.930 -22.662  0.00  0.00    +0.264 C 
ATOM     16  H   UNL     1      33.786 -17.263 -21.269  0.00  0.00    +0.177 HD
BRANCH  15  17
ATOM     17  C   UNL     1      33.696 -14.865 -22.227  0.00  0.00    +0.055 C 
ATOM     18  C   UNL     1      33.319 -14.774 -20.887  0.00  0.00    +0.005 C 
ATOM     19  C   UNL     1      33.219 -13.933 -23.150  0.00  0.00    +0.005 C 
ATOM     20  C   UNL     1      32.465 -13.752 -20.470  0.00  0.00    +0.000 C 
ATOM     21  C   UNL     1      32.366 -12.911 -22.732  0.00  0.00    +0.000 C 
ATOM     22  C   UNL     1      31.990 -12.820 -21.392  0.00  0.00    +0.000 C 
ENDBRANCH  15  17
ENDBRANCH   1  14
TORSDOF 4
ENDMDL
MODEL 2
REMARK VINA RESULT:      -8.9      1.747      6.515
REMARK  Name = 5319
REMARK  4 active torsions:
REMARK  status: ('A' for Active; 'I' for Inactive)
REMARK    1  A    between atoms: S_1  and  C_4
REMARK    2  A    between atoms: S_1  and  N_14
REMARK    3  A    between atoms: C_7  and  N_10
REMARK    4  A    between atoms: C_15  and  C_17
REMARK                            x       y       z     vdW  Elec       q    Type
REMARK                         _______ _______ _______ _____ _____    ______ ____
ROOT
ATOM      1  S   UNL     1      34.641 -16.729 -23.701  0.00  0.00    +0.076 S 
ATOM      2  O   UNL     1      36.043 -16.369 -23.605  0.00  0.00    -0.150 OA
ATOM      3  O   UNL     1      34.050 -17.053 -24.984  0.00  0.00    -0.150 OA
ENDROOT
BRANCH   1   4
ATOM      4  C   UNL     1      33.685 -15.410 -23.017  0.00  0.00    +0.125 C 
ATOM      5  C   UNL     1      33.313 -14.352 -23.830  0.00  0.00    +0.021 C 
ATOM      6  C   UNL     1      33.328 -15.456 -21.681  0.00  0.00    +0.021 C 
ATOM      7  C   UNL     1      32.190 -13.341 -21.945  0.00  0.00    +0.042 C 
ATOM      8  C   UNL     1      32.560 -13.311 -23.289  0.00  0.00    +0.015 C 
ATOM      9  C   UNL     1      32.574 -14.415 -21.141  0.00  0.00    +0.015 C 
BRANCH   7  10
ATOM     10  N   UNL     1      31.427 -12.289 -21.398  0.00  0.00    -0.357 N 
ATOM     11  H   UNL     1      31.771 -11.366 -21.423  0.00  0.00    +0.142 HD
ATOM     12  H   UNL     1      30.551 -12.476 -20.990  0.00  0.00    +0.142 HD
ENDBRANCH   7  10
ENDBRANCH   1   4
BRANCH   1  14
ATOM     13  O   UNL     1      36.495 -18.443 -21.893  0.00  0.00    -0.269 OA
ATOM     14  N   UNL     1      34.305 -17.991 -22.590  0.00  0.00    -0.181 N 
ATOM     15  C   UNL     1      35.286 -18.708 -21.810  0.00  0.00    +0.264 C 
ATOM     16  H   UNL     1      33.362 -18.248 -22.474  0.00  0.00    +0.177 HD
BRANCH  15  17
ATOM     17  C   UNL     1      34.786 -19.747 -20.923  0.00  0.00    +0.055 C 
ATOM     18  C   UNL     1      33.417 -19.863 -20.688  0.00  0.00    +0.005 C 
ATOM     19  C   UNL     1      35.678 -20.626 -20.308  0.00  0.00    +0.005 C 
ATOM     20  C   UNL     1      32.937 -20.860 -19.837  0.00  0.00    +0.000 C 
ATOM     21  C   UNL     1      35.198 -21.624 -19.458  0.00  0.00    +0.000 C 
ATOM     22  C   UNL     1      33.828 -21.740 -19.223  0.00  0.00    +0.000 C 
ENDBRANCH  15  17
ENDBRANCH   1  14
TORSDOF 4
ENDMDL
MODEL 3
REMARK VINA RESULT:      -8.8      4.490      6.446
REMARK  Name = 5319
REMARK  4 active torsions:
REMARK  status: ('A' for Active; 'I' for Inactive)
REMARK    1  A    between atoms: S_1  and  C_4
REMARK    2  A    between atoms: S_1  and  N_14
REMARK    3  A    between atoms: C_7  and  N_10
REMARK    4  A    between atoms: C_15  and  C_17
REMARK                            x       y       z     vdW  Elec       q    Type
REMARK                         _______ _______ _______ _____ _____    ______ ____
ROOT
ATOM      1  S   UNL     1      33.448 -23.124 -17.819  0.00  0.00    +0.076 S 
ATOM      2  O   UNL     1      32.137 -22.636 -17.437  0.00  0.00    -0.150 OA
ATOM      3  O   UNL     1      33.593 -24.401 -18.488  0.00  0.00    -0.150 OA
ENDROOT
BRANCH   1   4
ATOM      4  C   UNL     1      34.455 -23.191 -16.368  0.00  0.00    +0.125 C 
ATOM      5  C   UNL     1      35.751 -22.705 -16.421  0.00  0.00    +0.021 C 
ATOM      6  C   UNL     1      33.931 -23.728 -15.206  0.00  0.00    +0.021 C 
ATOM      7  C   UNL     1      36.034 -23.297 -14.096  0.00  0.00    +0.042 C 
ATOM      8  C   UNL     1      36.545 -22.759 -15.277  0.00  0.00    +0.015 C 
ATOM      9  C   UNL     1      34.726 -23.781 -14.061  0.00  0.00    +0.015 C 
BRANCH   7  10
ATOM     10  N   UNL     1      36.836 -23.350 -12.938  0.00  0.00    -0.357 N 
ATOM     11  H   UNL     1      36.925 -24.196 -12.439  0.00  0.00    +0.142 HD
ATOM     12  H   UNL     1      37.306 -22.544 -12.627  0.00  0.00    +0.142 HD
ENDBRANCH   7  10
ENDBRANCH   1   4
BRANCH   1  14
ATOM     13  O   UNL     1      32.584 -21.478 -20.307  0.00  0.00    -0.269 OA
ATOM     14  N   UNL     1      34.257 -21.916 -18.727  0.00  0.00    -0.181 N 
ATOM     15  C   UNL     1      33.722 -21.229 -19.879  0.00  0.00    +0.264 C 
ATOM     16  H   UNL     1      35.166 -21.668 -18.437  0.00  0.00    +0.177 HD
BRANCH  15  17
ATOM     17  C   UNL     1      34.577 -20.234 -20.506  0.00  0.00    +0.055 C 
ATOM     18  C   UNL     1      35.958 -20.282 -20.315  0.00  0.00    +0.005 C 
ATOM     19  C   UNL     1      34.016 -19.231 -21.297  0.00  0.00    +0.005 C 
ATOM     20  C   UNL     1      36.779 -19.327 -20.916  0.00  0.00    +0.000 C 
ATOM     21  C   UNL     1      34.837 -18.277 -21.898  0.00  0.00    +0.000 C 
ATOM     22  C   UNL     1      36.219 -18.325 -21.708  0.00  0.00    +0.000 C 
ENDBRANCH  15  17
ENDBRANCH   1  14
TORSDOF 4
ENDMDL
MODEL 4
REMARK VINA RESULT:      -8.8      3.732      5.327
REMARK  Name = 5319
REMARK  4 active torsions:
REMARK  status: ('A' for Active; 'I' for Inactive)
REMARK    1  A    between atoms: S_1  and  C_4
REMARK    2  A    between atoms: S_1  and  N_14
REMARK    3  A    between atoms: C_7  and  N_10
REMARK    4  A    between atoms: C_15  and  C_17
REMARK                            x       y       z     vdW  Elec       q    Type
REMARK                         _______ _______ _______ _____ _____    ______ ____
ROOT
ATOM      1  S   UNL     1      33.662 -22.486 -18.941  0.00  0.00    +0.076 S 
ATOM      2  O   UNL     1      32.357 -22.178 -18.387  0.00  0.00    -0.150 OA
ATOM      3  O   UNL     1      33.858 -23.673 -19.749  0.00  0.00    -0.150 OA
ENDROOT
BRANCH   1   4
ATOM      4  C   UNL     1      34.819 -22.579 -17.607  0.00  0.00    +0.125 C 
ATOM      5  C   UNL     1      36.079 -22.028 -17.765  0.00  0.00    +0.021 C 
ATOM      6  C   UNL     1      34.444 -23.201 -16.430  0.00  0.00    +0.021 C 
ATOM      7  C   UNL     1      36.630 -22.726 -15.519  0.00  0.00    +0.042 C 
ATOM      8  C   UNL     1      36.991 -22.102 -16.714  0.00  0.00    +0.015 C 
ATOM      9  C   UNL     1      35.356 -23.274 -15.378  0.00  0.00    +0.015 C 
BRANCH   7  10
ATOM     10  N   UNL     1      37.552 -22.799 -14.455  0.00  0.00    -0.357 N 
ATOM     11  H   UNL     1      37.260 -22.595 -13.536  0.00  0.00    +0.142 HD
ATOM     12  H   UNL     1      38.486 -23.054 -14.628  0.00  0.00    +0.142 HD
ENDBRANCH   7  10
ENDBRANCH   1   4
BRANCH   1  14
ATOM     13  O   UNL     1      32.272 -20.504 -20.887  0.00  0.00    -0.269 OA
ATOM     14  N   UNL     1      34.250 -21.119 -19.793  0.00  0.00    -0.181 N 
ATOM     15  C   UNL     1      33.474 -20.282 -20.678  0.00  0.00    +0.264 C 
ATOM     16  H   UNL     1      35.199 -20.885 -19.668  0.00  0.00    +0.177 HD
BRANCH  15  17
ATOM     17  C   UNL     1      34.170 -19.169 -21.303  0.00  0.00    +0.055 C 
ATOM     18  C   UNL     1      35.118 -19.407 -22.298  0.00  0.00    +0.005 C 
ATOM     19  C   UNL     1      33.889 -17.861 -20.907  0.00  0.00    +0.005 C 
ATOM     20  C   UNL     1      35.785 -18.339 -22.897  0.00  0.00    +0.000 C 
ATOM     21  C   UNL     1      34.556 -16.792 -21.507  0.00  0.00    +0.000 C 
ATOM     22  C   UNL     1      35.504 -17.031 -22.502  0.00  0.00    +0.000 C 
ENDBRANCH  15  17
ENDBRANCH   1  14
TORSDOF 4
ENDMDL
MODEL 5
REMARK VINA RESULT:      -8.8      4.925      8.218
REMARK  Name = 5319
REMARK  4 active torsions:
REMARK  status: ('A' for Active; 'I' for Inactive)
REMARK    1  A    between atoms: S_1  and  C_4
REMARK    2  A    between atoms: S_1  and  N_14
REMARK    3  A    between atoms: C_7  and  N_10
REMARK    4  A    between atoms: C_15  and  C_17
REMARK                            x       y       z     vdW  Elec       q    Type
REMARK                         _______ _______ _______ _____ _____    ______ ____
ROOT
ATOM      1  S   UNL     1      33.732 -22.973 -18.281  0.00  0.00    +0.076 S 
ATOM      2  O   UNL     1      34.631 -22.810 -17.154  0.00  0.00    -0.150 OA
ATOM      3  O   UNL     1      33.802 -24.158 -19.113  0.00  0.00    -0.150 OA
ENDROOT
BRANCH   1   4
ATOM      4  C   UNL     1      33.934 -21.584 -19.354  0.00  0.00    +0.125 C 
ATOM      5  C   UNL     1      35.207 -21.226 -19.764  0.00  0.00    +0.021 C 
ATOM      6  C   UNL     1      32.817 -20.878 -19.763  0.00  0.00    +0.021 C 
ATOM      7  C   UNL     1      34.251 -19.405 -21.032  0.00  0.00    +0.042 C 
ATOM      8  C   UNL     1      35.366 -20.129 -20.609  0.00  0.00    +0.015 C 
ATOM      9  C   UNL     1      32.976 -19.780 -20.609  0.00  0.00    +0.015 C 
BRANCH   7  10
ATOM     10  N   UNL     1      34.411 -18.296 -21.888  0.00  0.00    -0.357 N 
ATOM     11  H   UNL     1      34.528 -18.435 -22.857  0.00  0.00    +0.142 HD
ATOM     12  H   UNL     1      34.406 -17.384 -21.520  0.00  0.00    +0.142 HD
ENDBRANCH   7  10
ENDBRANCH   1   4
BRANCH   1  14
ATOM     13  O   UNL     1      32.252 -23.886 -15.707  0.00  0.00    -0.269 OA
ATOM     14  N   UNL     1      32.117 -22.750 -17.751  0.00  0.00    -0.181 N 
ATOM     15  C   UNL     1      31.562 -23.242 -16.511  0.00  0.00    +0.264 C 
ATOM     16  H   UNL     1      31.516 -22.242 -18.343  0.00  0.00    +0.177 HD
BRANCH  15  17
ATOM     17  C   UNL     1      30.163 -22.939 -16.254  0.00  0.00    +0.055 C 
ATOM     18  C   UNL     1      29.780 -22.399 -15.027  0.00  0.00    +0.005 C 
ATOM     19  C   UNL     1      29.204 -23.191 -17.236  0.00  0.00    +0.005 C 
ATOM     20  C   UNL     1      28.438 -22.110 -14.780  0.00  0.00    +0.000 C 
ATOM     21  C   UNL     1      27.862 -22.901 -16.990  0.00  0.00    +0.000 C 
ATOM     22  C   UNL     1      27.479 -22.360 -15.762  0.00  0.00    +0.000 C 
ENDBRANCH  15  17
ENDBRANCH   1  14
TORSDOF 4
ENDMDL
MODEL 6
REMARK VINA RESULT:      -8.7      5.289      7.574
REMARK  Name = 5319
REMARK  4 active torsions:
REMARK  status: ('A' for Active; 'I' for Inactive)
REMARK    1  A    between atoms: S_1  and  C_4
REMARK    2  A    between atoms: S_1  and  N_14
REMARK    3  A    between atoms: C_7  and  N_10
REMARK    4  A    between atoms: C_15  and  C_17
REMARK                            x       y       z     vdW  Elec       q    Type
REMARK                         _______ _______ _______ _____ _____    ______ ____
ROOT
ATOM      1  S   UNL     1      34.610 -23.489 -15.749  0.00  0.00    +0.076 S 
ATOM      2  O   UNL     1      35.339 -24.690 -16.111  0.00  0.00    -0.150 OA
ATOM      3  O   UNL     1      35.102 -22.616 -14.702  0.00  0.00    -0.150 OA
ENDROOT
BRANCH   1   4
ATOM      4  C   UNL     1      32.968 -23.958 -15.293  0.00  0.00    +0.125 C 
ATOM      5  C   UNL     1      32.771 -24.696 -14.138  0.00  0.00    +0.021 C 
ATOM      6  C   UNL     1      31.909 -23.580 -16.098  0.00  0.00    +0.021 C 
ATOM      7  C   UNL     1      30.397 -24.694 -14.579  0.00  0.00    +0.042 C 
ATOM      8  C   UNL     1      31.477 -25.067 -13.779  0.00  0.00    +0.015 C 
ATOM      9  C   UNL     1      30.613 -23.950 -15.739  0.00  0.00    +0.015 C 
BRANCH   7  10
ATOM     10  N   UNL     1      29.086 -25.067 -14.216  0.00  0.00    -0.357 N 
ATOM     11  H   UNL     1      28.941 -25.838 -13.620  0.00  0.00    +0.142 HD
ATOM     12  H   UNL     1      28.317 -24.559 -14.558  0.00  0.00    +0.142 HD
ENDBRANCH   7  10
ENDBRANCH   1   4
BRANCH   1  14
ATOM     13  O   UNL     1      36.515 -22.339 -17.915  0.00  0.00    -0.269 OA
ATOM     14  N   UNL     1      34.309 -22.564 -17.161  0.00  0.00    -0.181 N 
ATOM     15  C   UNL     1      35.312 -22.091 -18.087  0.00  0.00    +0.264 C 
ATOM     16  H   UNL     1      33.371 -22.336 -17.357  0.00  0.00    +0.177 HD
BRANCH  15  17
ATOM     17  C   UNL     1      34.840 -21.320 -19.225  0.00  0.00    +0.055 C 
ATOM     18  C   UNL     1      35.754 -20.669 -20.054  0.00  0.00    +0.005 C 
ATOM     19  C   UNL     1      33.473 -21.231 -19.489  0.00  0.00    +0.005 C 
ATOM     20  C   UNL     1      35.301 -19.928 -21.146  0.00  0.00    +0.000 C 
ATOM     21  C   UNL     1      33.020 -20.491 -20.581  0.00  0.00    +0.000 C 
ATOM     22  C   UNL     1      33.934 -19.840 -21.410  0.00  0.00    +0.000 C 
ENDBRANCH  15  17
ENDBRANCH   1  14
TORSDOF 4
ENDMDL
MODEL 7
REMARK VINA RESULT:      -8.7      4.451      7.930
REMARK  Name = 5319
REMARK  4 active torsions:
REMARK  status: ('A' for Active; 'I' for Inactive)
REMARK    1  A    between atoms: S_1  and  C_4
REMARK    2  A    between atoms: S_1  and  N_14
REMARK    3  A    between atoms: C_7  and  N_10
REMARK    4  A    between atoms: C_15  and  C_17
REMARK                            x       y       z     vdW  Elec       q    Type
REMARK                         _______ _______ _______ _____ _____    ______ ____
ROOT
ATOM      1  S   UNL     1      34.254 -22.724 -18.870  0.00  0.00    +0.076 S 
ATOM      2  O   UNL     1      35.334 -22.664 -17.903  0.00  0.00    -0.150 OA
ATOM      3  O   UNL     1      34.185 -23.806 -19.830  0.00  0.00    -0.150 OA
ENDROOT
BRANCH   1   4
ATOM      4  C   UNL     1      34.260 -21.218 -19.796  0.00  0.00    +0.125 C 
ATOM      5  C   UNL     1      33.058 -20.588 -20.070  0.00  0.00    +0.021 C 
ATOM      6  C   UNL     1      35.465 -20.697 -20.230  0.00  0.00    +0.021 C 
ATOM      7  C   UNL     1      34.269 -18.861 -21.248  0.00  0.00    +0.042 C 
ATOM      8  C   UNL     1      33.063 -19.402 -20.802  0.00  0.00    +0.015 C 
ATOM      9  C   UNL     1      35.470 -19.509 -20.961  0.00  0.00    +0.015 C 
BRANCH   7  10
ATOM     10  N   UNL     1      34.275 -17.660 -21.986  0.00  0.00    -0.357 N 
ATOM     11  H   UNL     1      33.970 -17.656 -22.923  0.00  0.00    +0.142 HD
ATOM     12  H   UNL     1      34.584 -16.826 -21.566  0.00  0.00    +0.142 HD
ENDBRANCH   7  10
ENDBRANCH   1   4
BRANCH   1  14
ATOM     13  O   UNL     1      33.320 -23.765 -16.097  0.00  0.00    -0.269 OA
ATOM     14  N   UNL     1      32.754 -22.600 -18.048  0.00  0.00    -0.181 N 
ATOM     15  C   UNL     1      32.462 -23.145 -16.743  0.00  0.00    +0.264 C 
ATOM     16  H   UNL     1      32.029 -22.115 -18.506  0.00  0.00    +0.177 HD
BRANCH  15  17
ATOM     17  C   UNL     1      31.121 -22.926 -16.226  0.00  0.00    +0.055 C 
ATOM     18  C   UNL     1      30.902 -22.878 -14.850  0.00  0.00    +0.005 C 
ATOM     19  C   UNL     1      30.052 -22.765 -17.108  0.00  0.00    +0.005 C 
ATOM     20  C   UNL     1      29.615 -22.668 -14.355  0.00  0.00    +0.000 C 
ATOM     21  C   UNL     1      28.765 -22.554 -16.614  0.00  0.00    +0.000 C 
ATOM     22  C   UNL     1      28.547 -22.506 -15.236  0.00  0.00    +0.000 C 
ENDBRANCH  15  17
ENDBRANCH   1  14
TORSDOF 4
ENDMDL
MODEL 8
REMARK VINA RESULT:      -8.6      4.950      8.839
REMARK  Name = 5319
REMARK  4 active torsions:
REMARK  status: ('A' for Active; 'I' for Inactive)
REMARK    1  A    between atoms: S_1  and  C_4
REMARK    2  A    between atoms: S_1  and  N_14
REMARK    3  A    between atoms: C_7  and  N_10
REMARK    4  A    between atoms: C_15  and  C_17
REMARK                            x       y       z     vdW  Elec       q    Type
REMARK                         _______ _______ _______ _____ _____    ______ ____
ROOT
ATOM      1  S   UNL     1      33.635 -22.737 -18.697  0.00  0.00    +0.076 S 
ATOM      2  O   UNL     1      33.765 -23.960 -19.467  0.00  0.00    -0.150 OA
ATOM      3  O   UNL     1      32.325 -22.220 -18.353  0.00  0.00    -0.150 OA
ENDROOT
BRANCH   1   4
ATOM      4  C   UNL     1      34.482 -21.449 -19.562  0.00  0.00    +0.125 C 
ATOM      5  C   UNL     1      33.748 -20.514 -20.271  0.00  0.00    +0.021 C 
ATOM      6  C   UNL     1      35.864 -21.399 -19.515  0.00  0.00    +0.021 C 
ATOM      7  C   UNL     1      35.809 -19.433 -20.917  0.00  0.00    +0.042 C 
ATOM      8  C   UNL     1      34.416 -19.499 -20.954  0.00  0.00    +0.015 C 
ATOM      9  C   UNL     1      36.532 -20.383 -20.197  0.00  0.00    +0.015 C 
BRANCH   7  10
ATOM     10  N   UNL     1      36.486 -18.405 -21.606  0.00  0.00    -0.357 N 
ATOM     11  H   UNL     1      37.456 -18.475 -21.764  0.00  0.00    +0.142 HD
ATOM     12  H   UNL     1      35.990 -17.619 -21.927  0.00  0.00    +0.142 HD
ENDBRANCH   7  10
ENDBRANCH   1   4
BRANCH   1  14
ATOM     13  O   UNL     1      33.001 -23.873 -15.877  0.00  0.00    -0.269 OA
ATOM     14  N   UNL     1      34.585 -22.861 -17.276  0.00  0.00    -0.181 N 
ATOM     15  C   UNL     1      34.147 -23.420 -16.017  0.00  0.00    +0.264 C 
ATOM     16  H   UNL     1      35.508 -22.522 -17.321  0.00  0.00    +0.177 HD
BRANCH  15  17
ATOM     17  C   UNL     1      35.116 -23.429 -14.933  0.00  0.00    +0.055 C 
ATOM     18  C   UNL     1      34.698 -23.679 -13.626  0.00  0.00    +0.005 C 
ATOM     19  C   UNL     1      36.463 -23.186 -15.200  0.00  0.00    +0.005 C 
ATOM     20  C   UNL     1      35.627 -23.687 -12.586  0.00  0.00    +0.000 C 
ATOM     21  C   UNL     1      37.393 -23.195 -14.159  0.00  0.00    +0.000 C 
ATOM     22  C   UNL     1      36.975 -23.446 -12.852  0.00  0.00    +0.000 C 
ENDBRANCH  15  17
ENDBRANCH   1  14
TORSDOF 4
ENDMDL
MODEL 9
REMARK VINA RESULT:      -8.2      7.250      9.679
REMARK  Name = 5319
REMARK  4 active torsions:
REMARK  status: ('A' for Active; 'I' for Inactive)
REMARK    1  A    between atoms: S_1  and  C_4
REMARK    2  A    between atoms: S_1  and  N_14
REMARK    3  A    between atoms: C_7  and  N_10
REMARK    4  A    between atoms: C_15  and  C_17
REMARK                            x       y       z     vdW  Elec       q    Type
REMARK                         _______ _______ _______ _____ _____    ______ ____
ROOT
ATOM      1  S   UNL     1      35.206 -23.822 -15.245  0.00  0.00    +0.076 S 
ATOM      2  O   UNL     1      35.593 -23.137 -14.026  0.00  0.00    -0.150 OA
ATOM      3  O   UNL     1      35.700 -25.155 -15.528  0.00  0.00    -0.150 OA
ENDROOT
BRANCH   1   4
ATOM      4  C   UNL     1      35.662 -22.806 -16.617  0.00  0.00    +0.125 C 
ATOM      5  C   UNL     1      34.823 -22.738 -17.716  0.00  0.00    +0.021 C 
ATOM      6  C   UNL     1      36.848 -22.096 -16.568  0.00  0.00    +0.021 C 
ATOM      7  C   UNL     1      36.375 -21.215 -18.767  0.00  0.00    +0.042 C 
ATOM      8  C   UNL     1      35.182 -21.937 -18.799  0.00  0.00    +0.015 C 
ATOM      9  C   UNL     1      37.208 -21.294 -17.650  0.00  0.00    +0.015 C 
BRANCH   7  10
ATOM     10  N   UNL     1      36.739 -20.402 -19.860  0.00  0.00    -0.357 N 
ATOM     11  H   UNL     1      37.349 -20.751 -20.551  0.00  0.00    +0.142 HD
ATOM     12  H   UNL     1      36.384 -19.488 -19.934  0.00  0.00    +0.142 HD
ENDBRANCH   7  10
ENDBRANCH   1   4
BRANCH   1  14
ATOM     13  O   UNL     1      32.966 -24.516 -13.209  0.00  0.00    -0.269 OA
ATOM     14  N   UNL     1      33.497 -23.813 -15.379  0.00  0.00    -0.181 N 
ATOM     15  C   UNL     1      32.569 -24.168 -14.331  0.00  0.00    +0.264 C 
ATOM     16  H   UNL     1      33.116 -23.541 -16.245  0.00  0.00    +0.177 HD
BRANCH  15  17
ATOM     17  C   UNL     1      31.154 -24.091 -14.656  0.00  0.00    +0.055 C 
ATOM     18  C   UNL     1      30.351 -25.227 -14.552  0.00  0.00    +0.005 C 
ATOM     19  C   UNL     1      30.599 -22.881 -15.073  0.00  0.00    +0.005 C 
ATOM     20  C   UNL     1      28.993 -25.153 -14.864  0.00  0.00    +0.000 C 
ATOM     21  C   UNL     1      29.241 -22.806 -15.384  0.00  0.00    +0.000 C 
ATOM     22  C   UNL     1      28.438 -23.943 -15.280  0.00  0.00    +0.000 C 
ENDBRANCH  15  17
ENDBRANCH   1  14
TORSDOF 4
ENDMDL
