MODEL 1
REMARK VINA RESULT:     -10.0      0.000      0.000
REMARK  Name = 656953
REMARK  5 active torsions:
REMARK  status: ('A' for Active; 'I' for Inactive)
REMARK    1  A    between atoms: C_4  and  C_20
REMARK    2  A    between atoms: C_5  and  C_10
REMARK    3  A    between atoms: C_9  and  O_18
REMARK    4  A    between atoms: C_15  and  O_16
REMARK    5  A    between atoms: C_20  and  C_22
REMARK                            x       y       z     vdW  Elec       q    Type
REMARK                         _______ _______ _______ _____ _____    ______ ____
ROOT
ATOM      1  O   UNL     1      34.561 -17.940 -21.467  0.00  0.00    -0.454 OA
ATOM      2  C   UNL     1      34.422 -17.226 -22.619  0.00  0.00    +0.142 C 
ATOM      3  C   UNL     1      34.544 -18.065 -23.722  0.00  0.00    +0.040 C 
ATOM      4  C   UNL     1      34.191 -15.854 -22.701  0.00  0.00    +0.031 C 
ATOM      5  C   UNL     1      34.771 -19.233 -21.827  0.00  0.00    +0.145 C 
ATOM      6  C   UNL     1      34.770 -19.364 -23.196  0.00  0.00    +0.041 C 
ATOM      7  C   UNL     1      34.429 -17.505 -25.007  0.00  0.00    +0.040 C 
ATOM      8  C   UNL     1      34.080 -15.320 -23.989  0.00  0.00    +0.036 C 
ATOM      9  C   UNL     1      34.197 -16.129 -25.122  0.00  0.00    +0.134 C 
ENDROOT
BRANCH   5  10
ATOM     10  C   UNL     1      34.943 -20.153 -20.738  0.00  0.00    +0.035 C 
ATOM     11  C   UNL     1      36.222 -20.426 -20.242  0.00  0.00    +0.006 C 
ATOM     12  C   UNL     1      33.833 -20.782 -20.165  0.00  0.00    +0.006 C 
ATOM     13  C   UNL     1      36.388 -21.319 -19.183  0.00  0.00    +0.037 C 
ATOM     14  C   UNL     1      34.001 -21.675 -19.107  0.00  0.00    +0.037 C 
ATOM     15  C   UNL     1      35.279 -21.944 -18.616  0.00  0.00    +0.134 C 
BRANCH  15  16
ATOM     16  O   UNL     1      35.442 -22.814 -17.583  0.00  0.00    -0.506 OA
ATOM     17  H   UNL     1      34.857 -23.540 -17.485  0.00  0.00    +0.292 HD
ENDBRANCH  15  16
ENDBRANCH   5  10
BRANCH   9  18
ATOM     18  O   UNL     1      34.084 -15.570 -26.361  0.00  0.00    -0.506 OA
ATOM     19  H   UNL     1      33.616 -14.767 -26.471  0.00  0.00    +0.292 HD
ENDBRANCH   9  18
BRANCH   4  20
ATOM     20  C   UNL     1      34.063 -14.974 -21.506  0.00  0.00    +0.135 C 
BRANCH  20  22
ATOM     21  N   UNL     1      32.089 -13.244 -21.731  0.00  0.00    -0.196 NA
ATOM     22  C   UNL     1      32.956 -14.009 -21.629  0.00  0.00    +0.078 C 
ENDBRANCH  20  22
ENDBRANCH   4  20
TORSDOF 5
ENDMDL
MODEL 2
REMARK VINA RESULT:      -9.4      4.704      9.159
REMARK  Name = 656953
REMARK  5 active torsions:
REMARK  status: ('A' for Active; 'I' for Inactive)
REMARK    1  A    between atoms: C_4  and  C_20
REMARK    2  A    between atoms: C_5  and  C_10
REMARK    3  A    between atoms: C_9  and  O_18
REMARK    4  A    between atoms: C_15  and  O_16
REMARK    5  A    between atoms: C_20  and  C_22
REMARK                            x       y       z     vdW  Elec       q    Type
REMARK                         _______ _______ _______ _____ _____    ______ ____
ROOT
ATOM      1  O   UNL     1      32.069 -22.234 -17.655  0.00  0.00    -0.454 OA
ATOM      2  C   UNL     1      31.866 -22.993 -16.541  0.00  0.00    +0.142 C 
ATOM      3  C   UNL     1      33.071 -23.534 -16.102  0.00  0.00    +0.040 C 
ATOM      4  C   UNL     1      30.640 -23.208 -15.917  0.00  0.00    +0.031 C 
ATOM      5  C   UNL     1      33.399 -22.287 -17.931  0.00  0.00    +0.145 C 
ATOM      6  C   UNL     1      34.057 -23.069 -17.011  0.00  0.00    +0.041 C 
ATOM      7  C   UNL     1      33.062 -24.351 -14.958  0.00  0.00    +0.040 C 
ATOM      8  C   UNL     1      30.655 -24.024 -14.781  0.00  0.00    +0.036 C 
ATOM      9  C   UNL     1      31.843 -24.586 -14.309  0.00  0.00    +0.134 C 
ENDROOT
BRANCH   5  10
ATOM     10  C   UNL     1      33.815 -21.540 -19.084  0.00  0.00    +0.035 C 
ATOM     11  C   UNL     1      32.885 -20.787 -19.809  0.00  0.00    +0.006 C 
ATOM     12  C   UNL     1      35.153 -21.558 -19.491  0.00  0.00    +0.006 C 
ATOM     13  C   UNL     1      33.290 -20.060 -20.928  0.00  0.00    +0.037 C 
ATOM     14  C   UNL     1      35.557 -20.831 -20.610  0.00  0.00    +0.037 C 
ATOM     15  C   UNL     1      34.625 -20.082 -21.330  0.00  0.00    +0.134 C 
BRANCH  15  16
ATOM     16  O   UNL     1      35.019 -19.372 -22.421  0.00  0.00    -0.506 OA
ATOM     17  H   UNL     1      34.525 -19.422 -23.216  0.00  0.00    +0.292 HD
ENDBRANCH  15  16
ENDBRANCH   5  10
BRANCH   9  18
ATOM     18  O   UNL     1      31.818 -25.377 -13.198  0.00  0.00    -0.506 OA
ATOM     19  H   UNL     1      31.212 -25.194 -12.507  0.00  0.00    +0.292 HD
ENDBRANCH   9  18
BRANCH   4  20
ATOM     20  C   UNL     1      29.361 -22.618 -16.404  0.00  0.00    +0.135 C 
BRANCH  20  22
ATOM     21  N   UNL     1      27.742 -24.417 -17.445  0.00  0.00    -0.196 NA
ATOM     22  C   UNL     1      28.454 -23.626 -16.982  0.00  0.00    +0.078 C 
ENDBRANCH  20  22
ENDBRANCH   4  20
TORSDOF 5
ENDMDL
MODEL 3
REMARK VINA RESULT:      -9.1      1.181      1.584
REMARK  Name = 656953
REMARK  5 active torsions:
REMARK  status: ('A' for Active; 'I' for Inactive)
REMARK    1  A    between atoms: C_4  and  C_20
REMARK    2  A    between atoms: C_5  and  C_10
REMARK    3  A    between atoms: C_9  and  O_18
REMARK    4  A    between atoms: C_15  and  O_16
REMARK    5  A    between atoms: C_20  and  C_22
REMARK                            x       y       z     vdW  Elec       q    Type
REMARK                         _______ _______ _______ _____ _____    ______ ____
ROOT
ATOM      1  O   UNL     1      33.946 -16.923 -21.320  0.00  0.00    -0.454 OA
ATOM      2  C   UNL     1      33.759 -15.946 -22.252  0.00  0.00    +0.142 C 
ATOM      3  C   UNL     1      34.202 -16.380 -23.498  0.00  0.00    +0.040 C 
ATOM      4  C   UNL     1      33.206 -14.690 -22.013  0.00  0.00    +0.031 C 
ATOM      5  C   UNL     1      34.507 -17.980 -21.962  0.00  0.00    +0.145 C 
ATOM      6  C   UNL     1      34.684 -17.700 -23.298  0.00  0.00    +0.041 C 
ATOM      7  C   UNL     1      34.090 -15.505 -24.592  0.00  0.00    +0.040 C 
ATOM      8  C   UNL     1      33.104 -13.836 -23.117  0.00  0.00    +0.036 C 
ATOM      9  C   UNL     1      33.538 -14.235 -24.383  0.00  0.00    +0.134 C 
ENDROOT
BRANCH   5  10
ATOM     10  C   UNL     1      34.783 -19.122 -21.138  0.00  0.00    +0.035 C 
ATOM     11  C   UNL     1      36.103 -19.450 -20.809  0.00  0.00    +0.006 C 
ATOM     12  C   UNL     1      33.736 -19.915 -20.657  0.00  0.00    +0.006 C 
ATOM     13  C   UNL     1      36.371 -20.559 -20.007  0.00  0.00    +0.037 C 
ATOM     14  C   UNL     1      34.005 -21.024 -19.856  0.00  0.00    +0.037 C 
ATOM     15  C   UNL     1      35.323 -21.347 -19.531  0.00  0.00    +0.134 C 
BRANCH  15  16
ATOM     16  O   UNL     1      35.586 -22.428 -18.748  0.00  0.00    -0.506 OA
ATOM     17  H   UNL     1      36.468 -22.725 -18.639  0.00  0.00    +0.292 HD
ENDBRANCH  15  16
ENDBRANCH   5  10
BRANCH   9  18
ATOM     18  O   UNL     1      33.424 -13.373 -25.435  0.00  0.00    -0.506 OA
ATOM     19  H   UNL     1      32.577 -13.143 -25.761  0.00  0.00    +0.292 HD
ENDBRANCH   9  18
BRANCH   4  20
ATOM     20  C   UNL     1      32.737 -14.246 -20.671  0.00  0.00    +0.135 C 
BRANCH  20  22
ATOM     21  N   UNL     1      31.611 -11.865 -20.719  0.00  0.00    -0.196 NA
ATOM     22  C   UNL     1      32.109 -12.912 -20.702  0.00  0.00    +0.078 C 
ENDBRANCH  20  22
ENDBRANCH   4  20
TORSDOF 5
ENDMDL
MODEL 4
REMARK VINA RESULT:      -9.1      5.845     10.821
REMARK  Name = 656953
REMARK  5 active torsions:
REMARK  status: ('A' for Active; 'I' for Inactive)
REMARK    1  A    between atoms: C_4  and  C_20
REMARK    2  A    between atoms: C_5  and  C_10
REMARK    3  A    between atoms: C_9  and  O_18
REMARK    4  A    between atoms: C_15  and  O_16
REMARK    5  A    between atoms: C_20  and  C_22
REMARK                            x       y       z     vdW  Elec       q    Type
REMARK                         _______ _______ _______ _____ _____    ______ ____
ROOT
ATOM      1  O   UNL     1      37.010 -23.330 -16.309  0.00  0.00    -0.454 OA
ATOM      2  C   UNL     1      37.008 -23.962 -15.102  0.00  0.00    +0.142 C 
ATOM      3  C   UNL     1      35.735 -23.923 -14.542  0.00  0.00    +0.040 C 
ATOM      4  C   UNL     1      38.109 -24.566 -14.499  0.00  0.00    +0.031 C 
ATOM      5  C   UNL     1      35.744 -22.887 -16.525  0.00  0.00    +0.145 C 
ATOM      6  C   UNL     1      34.924 -23.224 -15.474  0.00  0.00    +0.041 C 
ATOM      7  C   UNL     1      35.534 -24.528 -13.289  0.00  0.00    +0.040 C 
ATOM      8  C   UNL     1      37.886 -25.161 -13.253  0.00  0.00    +0.036 C 
ATOM      9  C   UNL     1      36.623 -25.143 -12.657  0.00  0.00    +0.134 C 
ENDROOT
BRANCH   5  10
ATOM     10  C   UNL     1      35.543 -22.187 -17.762  0.00  0.00    +0.035 C 
ATOM     11  C   UNL     1      34.282 -22.180 -18.370  0.00  0.00    +0.006 C 
ATOM     12  C   UNL     1      36.603 -21.506 -18.369  0.00  0.00    +0.006 C 
ATOM     13  C   UNL     1      34.086 -21.499 -19.571  0.00  0.00    +0.037 C 
ATOM     14  C   UNL     1      36.406 -20.825 -19.570  0.00  0.00    +0.037 C 
ATOM     15  C   UNL     1      35.147 -20.822 -20.172  0.00  0.00    +0.134 C 
BRANCH  15  16
ATOM     16  O   UNL     1      34.954 -20.157 -21.343  0.00  0.00    -0.506 OA
ATOM     17  H   UNL     1      35.679 -19.994 -21.915  0.00  0.00    +0.292 HD
ENDBRANCH  15  16
ENDBRANCH   5  10
BRANCH   9  18
ATOM     18  O   UNL     1      36.445 -25.733 -11.440  0.00  0.00    -0.506 OA
ATOM     19  H   UNL     1      36.746 -26.608 -11.296  0.00  0.00    +0.292 HD
ENDBRANCH   9  18
BRANCH   4  20
ATOM     20  C   UNL     1      39.464 -24.596 -15.117  0.00  0.00    +0.135 C 
BRANCH  20  22
ATOM     21  N   UNL     1      40.962 -26.560 -14.199  0.00  0.00    -0.196 NA
ATOM     22  C   UNL     1      40.299 -25.696 -14.600  0.00  0.00    +0.078 C 
ENDBRANCH  20  22
ENDBRANCH   4  20
TORSDOF 5
ENDMDL
MODEL 5
REMARK VINA RESULT:      -8.9      5.069      9.796
REMARK  Name = 656953
REMARK  5 active torsions:
REMARK  status: ('A' for Active; 'I' for Inactive)
REMARK    1  A    between atoms: C_4  and  C_20
REMARK    2  A    between atoms: C_5  and  C_10
REMARK    3  A    between atoms: C_9  and  O_18
REMARK    4  A    between atoms: C_15  and  O_16
REMARK    5  A    between atoms: C_20  and  C_22
REMARK                            x       y       z     vdW  Elec       q    Type
REMARK                         _______ _______ _______ _____ _____    ______ ____
ROOT
ATOM      1  O   UNL     1      34.078 -22.976 -16.816  0.00  0.00    -0.454 OA
ATOM      2  C   UNL     1      33.385 -23.583 -15.813  0.00  0.00    +0.142 C 
ATOM      3  C   UNL     1      32.016 -23.426 -16.010  0.00  0.00    +0.040 C 
ATOM      4  C   UNL     1      33.946 -24.266 -14.736  0.00  0.00    +0.031 C 
ATOM      5  C   UNL     1      33.160 -22.431 -17.657  0.00  0.00    +0.145 C 
ATOM      6  C   UNL     1      31.883 -22.678 -17.210  0.00  0.00    +0.041 C 
ATOM      7  C   UNL     1      31.134 -23.988 -15.071  0.00  0.00    +0.040 C 
ATOM      8  C   UNL     1      33.049 -24.817 -13.814  0.00  0.00    +0.036 C 
ATOM      9  C   UNL     1      31.668 -24.682 -13.978  0.00  0.00    +0.134 C 
ENDROOT
BRANCH   5  10
ATOM     10  C   UNL     1      33.701 -21.739 -18.792  0.00  0.00    +0.035 C 
ATOM     11  C   UNL     1      32.876 -20.939 -19.589  0.00  0.00    +0.006 C 
ATOM     12  C   UNL     1      35.058 -21.860 -19.110  0.00  0.00    +0.006 C 
ATOM     13  C   UNL     1      33.402 -20.265 -20.691  0.00  0.00    +0.037 C 
ATOM     14  C   UNL     1      35.583 -21.187 -20.213  0.00  0.00    +0.037 C 
ATOM     15  C   UNL     1      34.755 -20.390 -21.003  0.00  0.00    +0.134 C 
BRANCH  15  16
ATOM     16  O   UNL     1      35.269 -19.732 -22.078  0.00  0.00    -0.506 OA
ATOM     17  H   UNL     1      36.146 -19.905 -22.359  0.00  0.00    +0.292 HD
ENDBRANCH  15  16
ENDBRANCH   5  10
BRANCH   9  18
ATOM     18  O   UNL     1      30.826 -25.232 -13.057  0.00  0.00    -0.506 OA
ATOM     19  H   UNL     1      30.006 -25.593 -13.330  0.00  0.00    +0.292 HD
ENDBRANCH   9  18
BRANCH   4  20
ATOM     20  C   UNL     1      35.415 -24.422 -14.544  0.00  0.00    +0.135 C 
BRANCH  20  22
ATOM     21  N   UNL     1      36.341 -26.636 -15.631  0.00  0.00    -0.196 NA
ATOM     22  C   UNL     1      35.938 -25.660 -15.151  0.00  0.00    +0.078 C 
ENDBRANCH  20  22
ENDBRANCH   4  20
TORSDOF 5
ENDMDL
MODEL 6
REMARK VINA RESULT:      -8.6      6.300      9.212
REMARK  Name = 656953
REMARK  5 active torsions:
REMARK  status: ('A' for Active; 'I' for Inactive)
REMARK    1  A    between atoms: C_4  and  C_20
REMARK    2  A    between atoms: C_5  and  C_10
REMARK    3  A    between atoms: C_9  and  O_18
REMARK    4  A    between atoms: C_15  and  O_16
REMARK    5  A    between atoms: C_20  and  C_22
REMARK                            x       y       z     vdW  Elec       q    Type
REMARK                         _______ _______ _______ _____ _____    ______ ____
ROOT
ATOM      1  O   UNL     1      35.272 -23.896 -16.158  0.00  0.00    -0.454 OA
ATOM      2  C   UNL     1      33.947 -23.580 -16.113  0.00  0.00    +0.142 C 
ATOM      3  C   UNL     1      33.450 -23.776 -14.828  0.00  0.00    +0.040 C 
ATOM      4  C   UNL     1      33.183 -23.124 -17.185  0.00  0.00    +0.031 C 
ATOM      5  C   UNL     1      35.625 -24.294 -14.909  0.00  0.00    +0.145 C 
ATOM      6  C   UNL     1      34.547 -24.239 -14.056  0.00  0.00    +0.041 C 
ATOM      7  C   UNL     1      32.093 -23.502 -14.584  0.00  0.00    +0.040 C 
ATOM      8  C   UNL     1      31.836 -22.856 -16.919  0.00  0.00    +0.036 C 
ATOM      9  C   UNL     1      31.299 -23.041 -15.643  0.00  0.00    +0.134 C 
ENDROOT
BRANCH   5  10
ATOM     10  C   UNL     1      37.001 -24.673 -14.752  0.00  0.00    +0.035 C 
ATOM     11  C   UNL     1      38.007 -23.962 -15.417  0.00  0.00    +0.006 C 
ATOM     12  C   UNL     1      37.347 -25.754 -13.935  0.00  0.00    +0.006 C 
ATOM     13  C   UNL     1      39.344 -24.329 -15.264  0.00  0.00    +0.037 C 
ATOM     14  C   UNL     1      38.684 -26.120 -13.783  0.00  0.00    +0.037 C 
ATOM     15  C   UNL     1      39.683 -25.408 -14.448  0.00  0.00    +0.134 C 
BRANCH  15  16
ATOM     16  O   UNL     1      40.987 -25.765 -14.299  0.00  0.00    -0.506 OA
ATOM     17  H   UNL     1      41.668 -25.169 -14.546  0.00  0.00    +0.292 HD
ENDBRANCH  15  16
ENDBRANCH   5  10
BRANCH   9  18
ATOM     18  O   UNL     1      29.981 -22.771 -15.423  0.00  0.00    -0.506 OA
ATOM     19  H   UNL     1      29.537 -22.142 -15.956  0.00  0.00    +0.292 HD
ENDBRANCH   9  18
BRANCH   4  20
ATOM     20  C   UNL     1      33.736 -22.919 -18.553  0.00  0.00    +0.135 C 
BRANCH  20  22
ATOM     21  N   UNL     1      32.831 -20.728 -19.704  0.00  0.00    -0.196 NA
ATOM     22  C   UNL     1      33.226 -21.693 -19.194  0.00  0.00    +0.078 C 
ENDBRANCH  20  22
ENDBRANCH   4  20
TORSDOF 5
ENDMDL
MODEL 7
REMARK VINA RESULT:      -8.6      3.685      7.882
REMARK  Name = 656953
REMARK  5 active torsions:
REMARK  status: ('A' for Active; 'I' for Inactive)
REMARK    1  A    between atoms: C_4  and  C_20
REMARK    2  A    between atoms: C_5  and  C_10
REMARK    3  A    between atoms: C_9  and  O_18
REMARK    4  A    between atoms: C_15  and  O_16
REMARK    5  A    between atoms: C_20  and  C_22
REMARK                            x       y       z     vdW  Elec       q    Type
REMARK                         _______ _______ _______ _____ _____    ______ ____
ROOT
ATOM      1  O   UNL     1      33.640 -13.862 -22.711  0.00  0.00    -0.454 OA
ATOM      2  C   UNL     1      33.930 -15.023 -23.364  0.00  0.00    +0.142 C 
ATOM      3  C   UNL     1      33.594 -14.914 -24.710  0.00  0.00    +0.040 C 
ATOM      4  C   UNL     1      34.484 -16.163 -22.786  0.00  0.00    +0.031 C 
ATOM      5  C   UNL     1      33.119 -13.011 -23.633  0.00  0.00    +0.145 C 
ATOM      6  C   UNL     1      33.069 -13.605 -24.872  0.00  0.00    +0.041 C 
ATOM      7  C   UNL     1      33.822 -16.019 -25.549  0.00  0.00    +0.040 C 
ATOM      8  C   UNL     1      34.702 -17.249 -23.640  0.00  0.00    +0.036 C 
ATOM      9  C   UNL     1      34.378 -17.180 -24.997  0.00  0.00    +0.134 C 
ENDROOT
BRANCH   5  10
ATOM     10  C   UNL     1      32.746 -11.718 -23.132  0.00  0.00    +0.035 C 
ATOM     11  C   UNL     1      33.325 -10.562 -23.667  0.00  0.00    +0.006 C 
ATOM     12  C   UNL     1      31.801 -11.604 -22.107  0.00  0.00    +0.006 C 
ATOM     13  C   UNL     1      32.962  -9.306 -23.181  0.00  0.00    +0.037 C 
ATOM     14  C   UNL     1      31.439 -10.348 -21.622  0.00  0.00    +0.037 C 
ATOM     15  C   UNL     1      32.020  -9.198 -22.159  0.00  0.00    +0.134 C 
BRANCH  15  16
ATOM     16  O   UNL     1      31.666  -7.972 -21.686  0.00  0.00    -0.506 OA
ATOM     17  H   UNL     1      30.891  -7.876 -21.168  0.00  0.00    +0.292 HD
ENDBRANCH  15  16
ENDBRANCH   5  10
BRANCH   9  18
ATOM     18  O   UNL     1      34.605 -18.260 -25.798  0.00  0.00    -0.506 OA
ATOM     19  H   UNL     1      34.022 -18.993 -25.771  0.00  0.00    +0.292 HD
ENDBRANCH   9  18
BRANCH   4  20
ATOM     20  C   UNL     1      34.837 -16.257 -21.341  0.00  0.00    +0.135 C 
BRANCH  20  22
ATOM     21  N   UNL     1      35.736 -18.640 -20.665  0.00  0.00    -0.196 NA
ATOM     22  C   UNL     1      35.336 -17.592 -20.965  0.00  0.00    +0.078 C 
ENDBRANCH  20  22
ENDBRANCH   4  20
TORSDOF 5
ENDMDL
MODEL 8
REMARK VINA RESULT:      -8.6      4.111      8.571
REMARK  Name = 656953
REMARK  5 active torsions:
REMARK  status: ('A' for Active; 'I' for Inactive)
REMARK    1  A    between atoms: C_4  and  C_20
REMARK    2  A    between atoms: C_5  and  C_10
REMARK    3  A    between atoms: C_9  and  O_18
REMARK    4  A    between atoms: C_15  and  O_16
REMARK    5  A    between atoms: C_20  and  C_22
REMARK                            x       y       z     vdW  Elec       q    Type
REMARK                         _______ _______ _______ _____ _____    ______ ____
ROOT
ATOM      1  O   UNL     1      33.945 -12.961 -23.155  0.00  0.00    -0.454 OA
ATOM      2  C   UNL     1      33.991 -14.214 -23.688  0.00  0.00    +0.142 C 
ATOM      3  C   UNL     1      33.698 -14.169 -25.048  0.00  0.00    +0.040 C 
ATOM      4  C   UNL     1      34.285 -15.384 -22.991  0.00  0.00    +0.031 C 
ATOM      5  C   UNL     1      33.625 -12.113 -24.166  0.00  0.00    +0.145 C 
ATOM      6  C   UNL     1      33.464 -12.801 -25.347  0.00  0.00    +0.041 C 
ATOM      7  C   UNL     1      33.696 -15.372 -25.775  0.00  0.00    +0.040 C 
ATOM      8  C   UNL     1      34.278 -16.569 -23.734  0.00  0.00    +0.036 C 
ATOM      9  C   UNL     1      33.989 -16.565 -25.101  0.00  0.00    +0.134 C 
ENDROOT
BRANCH   5  10
ATOM     10  C   UNL     1      33.529 -10.728 -23.799  0.00  0.00    +0.035 C 
ATOM     11  C   UNL     1      32.448 -10.276 -23.035  0.00  0.00    +0.006 C 
ATOM     12  C   UNL     1      34.515  -9.821 -24.200  0.00  0.00    +0.006 C 
ATOM     13  C   UNL     1      32.355  -8.932 -22.676  0.00  0.00    +0.037 C 
ATOM     14  C   UNL     1      34.421  -8.477 -23.842  0.00  0.00    +0.037 C 
ATOM     15  C   UNL     1      33.340  -8.032 -23.080  0.00  0.00    +0.134 C 
BRANCH  15  16
ATOM     16  O   UNL     1      33.249  -6.720 -22.729  0.00  0.00    -0.506 OA
ATOM     17  H   UNL     1      33.792  -6.083 -23.151  0.00  0.00    +0.292 HD
ENDBRANCH  15  16
ENDBRANCH   5  10
BRANCH   9  18
ATOM     18  O   UNL     1      33.990 -17.741 -25.792  0.00  0.00    -0.506 OA
ATOM     19  H   UNL     1      33.185 -18.194 -25.946  0.00  0.00    +0.292 HD
ENDBRANCH   9  18
BRANCH   4  20
ATOM     20  C   UNL     1      34.597 -15.410 -21.534  0.00  0.00    +0.135 C 
BRANCH  20  22
ATOM     21  N   UNL     1      35.373 -17.785 -20.699  0.00  0.00    -0.196 NA
ATOM     22  C   UNL     1      35.033 -16.740 -21.071  0.00  0.00    +0.078 C 
ENDBRANCH  20  22
ENDBRANCH   4  20
TORSDOF 5
ENDMDL
MODEL 9
REMARK VINA RESULT:      -8.6      2.392      3.630
REMARK  Name = 656953
REMARK  5 active torsions:
REMARK  status: ('A' for Active; 'I' for Inactive)
REMARK    1  A    between atoms: C_4  and  C_20
REMARK    2  A    between atoms: C_5  and  C_10
REMARK    3  A    between atoms: C_9  and  O_18
REMARK    4  A    between atoms: C_15  and  O_16
REMARK    5  A    between atoms: C_20  and  C_22
REMARK                            x       y       z     vdW  Elec       q    Type
REMARK                         _______ _______ _______ _____ _____    ______ ____
ROOT
ATOM      1  O   UNL     1      33.926 -16.477 -22.735  0.00  0.00    -0.454 OA
ATOM      2  C   UNL     1      33.402 -15.223 -22.828  0.00  0.00    +0.142 C 
ATOM      3  C   UNL     1      33.120 -14.725 -21.560  0.00  0.00    +0.040 C 
ATOM      4  C   UNL     1      33.173 -14.524 -24.011  0.00  0.00    +0.031 C 
ATOM      5  C   UNL     1      33.982 -16.785 -21.413  0.00  0.00    +0.145 C 
ATOM      6  C   UNL     1      33.501 -15.746 -20.651  0.00  0.00    +0.041 C 
ATOM      7  C   UNL     1      32.569 -13.436 -21.453  0.00  0.00    +0.040 C 
ATOM      8  C   UNL     1      32.625 -13.244 -23.880  0.00  0.00    +0.036 C 
ATOM      9  C   UNL     1      32.328 -12.708 -22.625  0.00  0.00    +0.134 C 
ENDROOT
BRANCH   5  10
ATOM     10  C   UNL     1      34.514 -18.083 -21.107  0.00  0.00    +0.035 C 
ATOM     11  C   UNL     1      35.898 -18.279 -21.041  0.00  0.00    +0.006 C 
ATOM     12  C   UNL     1      33.654 -19.160 -20.873  0.00  0.00    +0.006 C 
ATOM     13  C   UNL     1      36.414 -19.539 -20.743  0.00  0.00    +0.037 C 
ATOM     14  C   UNL     1      34.172 -20.420 -20.575  0.00  0.00    +0.037 C 
ATOM     15  C   UNL     1      35.552 -20.610 -20.511  0.00  0.00    +0.134 C 
BRANCH  15  16
ATOM     16  O   UNL     1      36.057 -21.840 -20.219  0.00  0.00    -0.506 OA
ATOM     17  H   UNL     1      36.804 -21.919 -19.658  0.00  0.00    +0.292 HD
ENDBRANCH  15  16
ENDBRANCH   5  10
BRANCH   9  18
ATOM     18  O   UNL     1      31.793 -11.456 -22.538  0.00  0.00    -0.506 OA
ATOM     19  H   UNL     1      32.341 -10.727 -22.328  0.00  0.00    +0.292 HD
ENDBRANCH   9  18
BRANCH   4  20
ATOM     20  C   UNL     1      33.483 -15.076 -25.360  0.00  0.00    +0.135 C 
BRANCH  20  22
ATOM     21  N   UNL     1      33.167 -13.307 -27.286  0.00  0.00    -0.196 NA
ATOM     22  C   UNL     1      33.303 -14.084 -26.435  0.00  0.00    +0.078 C 
ENDBRANCH  20  22
ENDBRANCH   4  20
TORSDOF 5
ENDMDL
