MODEL 1
REMARK VINA RESULT:      -8.4      0.000      0.000
REMARK  Name = 444224
REMARK  13 active torsions:
REMARK  status: ('A' for Active; 'I' for Inactive)
REMARK    1  A    between atoms: C_3  and  C_10
REMARK    2  A    between atoms: C_7  and  C_22
REMARK    3  A    between atoms: N_9  and  N_12
REMARK    4  A    between atoms: N_12  and  C_14
REMARK    5  A    between atoms: C_14  and  C_15
REMARK    6  A    between atoms: C_15  and  C_16
REMARK    7  A    between atoms: C_16  and  C_17
REMARK    8  A    between atoms: C_17  and  N_18
REMARK    9  A    between atoms: C_22  and  N_24
REMARK   10  A    between atoms: C_22  and  C_30
REMARK   11  A    between atoms: C_25  and  O_27
REMARK   12  A    between atoms: O_27  and  C_28
REMARK   13  A    between atoms: C_30  and  C_31
REMARK                            x       y       z     vdW  Elec       q    Type
REMARK                         _______ _______ _______ _____ _____    ______ ____
ROOT
ATOM      1  O   UNL     1      34.785 -22.349 -14.886  0.00  0.00    -0.273 OA
ATOM      2  N   UNL     1      35.611 -24.505 -15.050  0.00  0.00    -0.272 N 
ATOM      3  C   UNL     1      36.913 -24.229 -14.456  0.00  0.00    +0.153 C 
ATOM      4  C   UNL     1      37.488 -25.602 -14.130  0.00  0.00    +0.031 C 
ATOM      5  C   UNL     1      36.853 -26.512 -15.177  0.00  0.00    +0.024 C 
ATOM      6  C   UNL     1      35.460 -25.926 -15.352  0.00  0.00    +0.094 C 
ATOM      7  C   UNL     1      34.620 -23.541 -15.150  0.00  0.00    +0.244 C 
ENDROOT
BRANCH   3  10
ATOM      8  O   UNL     1      38.958 -23.558 -15.488  0.00  0.00    -0.272 OA
ATOM      9  N   UNL     1      36.942 -22.864 -16.422  0.00  0.00    -0.248 N 
ATOM     10  C   UNL     1      37.730 -23.517 -15.493  0.00  0.00    +0.253 C 
ATOM     11  H   UNL     1      35.960 -22.884 -16.348  0.00  0.00    +0.169 HD
BRANCH   9  12
ATOM     12  N   UNL     1      37.554 -22.182 -17.462  0.00  0.00    -0.230 NA
ATOM     13  H   UNL     1      37.913 -22.854 -18.139  0.00  0.00    +0.145 HD
BRANCH  12  14
ATOM     14  C   UNL     1      36.599 -21.300 -18.118  0.00  0.00    +0.087 C 
BRANCH  14  15
ATOM     15  C   UNL     1      36.814 -21.318 -19.632  0.00  0.00    +0.017 C 
BRANCH  15  16
ATOM     16  C   UNL     1      37.095 -19.909 -20.165  0.00  0.00    -0.022 C 
BRANCH  16  17
ATOM     17  C   UNL     1      36.015 -19.386 -21.112  0.00  0.00    -0.086 C 
BRANCH  17  18
ATOM     18  N   UNL     1      35.580 -18.038 -20.769  0.00  0.00    +0.380 N 
ATOM     19  H   UNL     1      36.316 -17.373 -21.006  0.00  0.00    -0.089 HD
ATOM     20  H   UNL     1      35.386 -17.988 -19.769  0.00  0.00    -0.089 HD
ATOM     21  H   UNL     1      34.735 -17.809 -21.292  0.00  0.00    -0.089 HD
ENDBRANCH  17  18
ENDBRANCH  16  17
ENDBRANCH  15  16
ENDBRANCH  14  15
ENDBRANCH  12  14
ENDBRANCH   9  12
ENDBRANCH   3  10
BRANCH   7  22
ATOM     22  C   UNL     1      33.278 -24.037 -15.625  0.00  0.00    +0.156 C 
BRANCH  22  24
ATOM     23  O   UNL     1      33.801 -24.043 -18.483  0.00  0.00    -0.226 OA
ATOM     24  N   UNL     1      32.877 -23.058 -16.594  0.00  0.00    -0.264 N 
ATOM     25  C   UNL     1      33.171 -23.138 -17.945  0.00  0.00    +0.402 C 
ATOM     26  H   UNL     1      32.362 -22.281 -16.278  0.00  0.00    +0.153 HD
BRANCH  25  27
ATOM     27  O   UNL     1      32.654 -22.058 -18.601  0.00  0.00    -0.435 OA
BRANCH  27  28
ATOM     28  C   UNL     1      33.384 -21.617 -19.751  0.00  0.00    +0.210 C 
ATOM     29  C   UNL     1      32.774 -20.327 -20.258  0.00  0.00    +0.051 C 
ENDBRANCH  27  28
ENDBRANCH  25  27
ENDBRANCH  22  24
BRANCH  22  30
ATOM     30  C   UNL     1      32.310 -24.145 -14.453  0.00  0.00    +0.055 C 
BRANCH  30  31
ATOM     31  C   UNL     1      30.883 -23.892 -14.869  0.00  0.00    -0.020 C 
ATOM     32  C   UNL     1      30.127 -24.922 -15.429  0.00  0.00    -0.004 C 
ATOM     33  C   UNL     1      30.317 -22.628 -14.694  0.00  0.00    -0.004 C 
ATOM     34  C   UNL     1      28.806 -24.689 -15.813  0.00  0.00    -0.000 C 
ATOM     35  C   UNL     1      28.996 -22.396 -15.078  0.00  0.00    -0.000 C 
ATOM     36  C   UNL     1      28.241 -23.427 -15.638  0.00  0.00    -0.000 C 
ENDBRANCH  30  31
ENDBRANCH  22  30
ENDBRANCH   7  22
TORSDOF 13
ENDMDL
MODEL 2
REMARK VINA RESULT:      -8.2     10.966     15.763
REMARK  Name = 444224
REMARK  13 active torsions:
REMARK  status: ('A' for Active; 'I' for Inactive)
REMARK    1  A    between atoms: C_3  and  C_10
REMARK    2  A    between atoms: C_7  and  C_22
REMARK    3  A    between atoms: N_9  and  N_12
REMARK    4  A    between atoms: N_12  and  C_14
REMARK    5  A    between atoms: C_14  and  C_15
REMARK    6  A    between atoms: C_15  and  C_16
REMARK    7  A    between atoms: C_16  and  C_17
REMARK    8  A    between atoms: C_17  and  N_18
REMARK    9  A    between atoms: C_22  and  N_24
REMARK   10  A    between atoms: C_22  and  C_30
REMARK   11  A    between atoms: C_25  and  O_27
REMARK   12  A    between atoms: O_27  and  C_28
REMARK   13  A    between atoms: C_30  and  C_31
REMARK                            x       y       z     vdW  Elec       q    Type
REMARK                         _______ _______ _______ _____ _____    ______ ____
ROOT
ATOM      1  O   UNL     1      31.141 -10.475 -23.136  0.00  0.00    -0.273 OA
ATOM      2  N   UNL     1      33.267 -10.265 -24.028  0.00  0.00    -0.272 N 
ATOM      3  C   UNL     1      33.222 -11.468 -24.850  0.00  0.00    +0.153 C 
ATOM      4  C   UNL     1      34.395 -11.323 -25.812  0.00  0.00    +0.031 C 
ATOM      5  C   UNL     1      35.399 -10.484 -25.026  0.00  0.00    +0.024 C 
ATOM      6  C   UNL     1      34.515  -9.534 -24.232  0.00  0.00    +0.094 C 
ATOM      7  C   UNL     1      32.180  -9.829 -23.287  0.00  0.00    +0.244 C 
ENDROOT
BRANCH   3  10
ATOM      8  O   UNL     1      34.513 -13.043 -23.605  0.00  0.00    -0.272 OA
ATOM      9  N   UNL     1      32.190 -13.152 -23.498  0.00  0.00    -0.248 N 
ATOM     10  C   UNL     1      33.399 -12.638 -23.930  0.00  0.00    +0.253 C 
ATOM     11  H   UNL     1      31.341 -12.764 -23.811  0.00  0.00    +0.169 HD
BRANCH   9  12
ATOM     12  N   UNL     1      32.191 -14.222 -22.618  0.00  0.00    -0.230 NA
ATOM     13  H   UNL     1      32.973 -14.839 -22.838  0.00  0.00    +0.145 HD
BRANCH  12  14
ATOM     14  C   UNL     1      32.324 -13.747 -21.247  0.00  0.00    +0.087 C 
BRANCH  14  15
ATOM     15  C   UNL     1      32.873 -14.858 -20.351  0.00  0.00    +0.017 C 
BRANCH  15  16
ATOM     16  C   UNL     1      34.380 -15.041 -20.563  0.00  0.00    -0.022 C 
BRANCH  16  17
ATOM     17  C   UNL     1      34.735 -16.263 -21.411  0.00  0.00    -0.086 C 
BRANCH  17  18
ATOM     18  N   UNL     1      34.879 -15.935 -22.824  0.00  0.00    +0.380 N 
ATOM     19  H   UNL     1      34.733 -14.935 -22.957  0.00  0.00    -0.089 HD
ATOM     20  H   UNL     1      34.189 -16.456 -23.366  0.00  0.00    -0.089 HD
ATOM     21  H   UNL     1      35.817 -16.186 -23.137  0.00  0.00    -0.089 HD
ENDBRANCH  17  18
ENDBRANCH  16  17
ENDBRANCH  15  16
ENDBRANCH  14  15
ENDBRANCH  12  14
ENDBRANCH   9  12
ENDBRANCH   3  10
BRANCH   7  22
ATOM     22  C   UNL     1      32.337  -8.478 -22.638  0.00  0.00    +0.156 C 
BRANCH  22  24
ATOM     23  O   UNL     1      32.187  -6.574 -20.448  0.00  0.00    -0.226 OA
ATOM     24  N   UNL     1      32.217  -8.758 -21.236  0.00  0.00    -0.264 N 
ATOM     25  C   UNL     1      32.152  -7.785 -20.253  0.00  0.00    +0.402 C 
ATOM     26  H   UNL     1      32.178  -9.701 -20.956  0.00  0.00    +0.153 HD
BRANCH  25  27
ATOM     27  O   UNL     1      32.040  -8.369 -19.023  0.00  0.00    -0.435 OA
BRANCH  27  28
ATOM     28  C   UNL     1      32.266  -9.782 -18.980  0.00  0.00    +0.210 C 
ATOM     29  C   UNL     1      30.931 -10.496 -19.002  0.00  0.00    +0.051 C 
ENDBRANCH  27  28
ENDBRANCH  25  27
ENDBRANCH  22  24
BRANCH  22  30
ATOM     30  C   UNL     1      31.266  -7.521 -23.146  0.00  0.00    +0.055 C 
BRANCH  30  31
ATOM     31  C   UNL     1      31.827  -6.494 -24.098  0.00  0.00    -0.020 C 
ATOM     32  C   UNL     1      33.130  -6.625 -24.578  0.00  0.00    -0.004 C 
ATOM     33  C   UNL     1      31.042  -5.412 -24.499  0.00  0.00    -0.004 C 
ATOM     34  C   UNL     1      33.648  -5.676 -25.458  0.00  0.00    -0.000 C 
ATOM     35  C   UNL     1      31.561  -4.463 -25.380  0.00  0.00    -0.000 C 
ATOM     36  C   UNL     1      32.864  -4.595 -25.859  0.00  0.00    -0.000 C 
ENDBRANCH  30  31
ENDBRANCH  22  30
ENDBRANCH   7  22
TORSDOF 13
ENDMDL
MODEL 3
REMARK VINA RESULT:      -8.1      3.977      8.998
REMARK  Name = 444224
REMARK  13 active torsions:
REMARK  status: ('A' for Active; 'I' for Inactive)
REMARK    1  A    between atoms: C_3  and  C_10
REMARK    2  A    between atoms: C_7  and  C_22
REMARK    3  A    between atoms: N_9  and  N_12
REMARK    4  A    between atoms: N_12  and  C_14
REMARK    5  A    between atoms: C_14  and  C_15
REMARK    6  A    between atoms: C_15  and  C_16
REMARK    7  A    between atoms: C_16  and  C_17
REMARK    8  A    between atoms: C_17  and  N_18
REMARK    9  A    between atoms: C_22  and  N_24
REMARK   10  A    between atoms: C_22  and  C_30
REMARK   11  A    between atoms: C_25  and  O_27
REMARK   12  A    between atoms: O_27  and  C_28
REMARK   13  A    between atoms: C_30  and  C_31
REMARK                            x       y       z     vdW  Elec       q    Type
REMARK                         _______ _______ _______ _____ _____    ______ ____
ROOT
ATOM      1  O   UNL     1      33.364 -19.418 -22.057  0.00  0.00    -0.273 OA
ATOM      2  N   UNL     1      35.071 -20.025 -20.617  0.00  0.00    -0.272 N 
ATOM      3  C   UNL     1      34.686 -21.424 -20.484  0.00  0.00    +0.153 C 
ATOM      4  C   UNL     1      35.902 -22.101 -19.862  0.00  0.00    +0.031 C 
ATOM      5  C   UNL     1      36.552 -20.987 -19.046  0.00  0.00    +0.024 C 
ATOM      6  C   UNL     1      36.308 -19.747 -19.891  0.00  0.00    +0.094 C 
ATOM      7  C   UNL     1      34.408 -19.148 -21.461  0.00  0.00    +0.244 C 
ENDROOT
BRANCH   3  10
ATOM      8  O   UNL     1      32.673 -20.559 -19.539  0.00  0.00    -0.272 OA
ATOM      9  N   UNL     1      33.448 -22.638 -18.834  0.00  0.00    -0.248 N 
ATOM     10  C   UNL     1      33.497 -21.471 -19.572  0.00  0.00    +0.253 C 
ATOM     11  H   UNL     1      34.156 -23.317 -18.925  0.00  0.00    +0.169 HD
BRANCH   9  12
ATOM     12  N   UNL     1      32.388 -22.839 -17.965  0.00  0.00    -0.230 NA
ATOM     13  H   UNL     1      31.755 -23.533 -18.361  0.00  0.00    +0.145 HD
BRANCH  12  14
ATOM     14  C   UNL     1      32.876 -23.313 -16.676  0.00  0.00    +0.087 C 
BRANCH  14  15
ATOM     15  C   UNL     1      31.815 -23.097 -15.596  0.00  0.00    +0.017 C 
BRANCH  15  16
ATOM     16  C   UNL     1      30.768 -24.215 -15.622  0.00  0.00    -0.022 C 
BRANCH  16  17
ATOM     17  C   UNL     1      29.364 -23.730 -15.989  0.00  0.00    -0.086 C 
BRANCH  17  18
ATOM     18  N   UNL     1      29.391 -22.597 -16.905  0.00  0.00    +0.380 N 
ATOM     19  H   UNL     1      28.674 -21.924 -16.634  0.00  0.00    -0.089 HD
ATOM     20  H   UNL     1      29.211 -22.923 -17.855  0.00  0.00    -0.089 HD
ATOM     21  H   UNL     1      30.308 -22.150 -16.867  0.00  0.00    -0.089 HD
ENDBRANCH  17  18
ENDBRANCH  16  17
ENDBRANCH  15  16
ENDBRANCH  14  15
ENDBRANCH  12  14
ENDBRANCH   9  12
ENDBRANCH   3  10
BRANCH   7  22
ATOM     22  C   UNL     1      35.041 -17.789 -21.613  0.00  0.00    +0.156 C 
BRANCH  22  24
ATOM     23  O   UNL     1      34.940 -15.409 -19.949  0.00  0.00    -0.226 OA
ATOM     24  N   UNL     1      33.944 -16.881 -21.444  0.00  0.00    -0.264 N 
ATOM     25  C   UNL     1      33.980 -15.764 -20.625  0.00  0.00    +0.402 C 
ATOM     26  H   UNL     1      33.114 -17.063 -21.941  0.00  0.00    +0.153 HD
BRANCH  25  27
ATOM     27  O   UNL     1      32.784 -15.106 -20.679  0.00  0.00    -0.435 OA
BRANCH  27  28
ATOM     28  C   UNL     1      32.859 -13.678 -20.739  0.00  0.00    +0.210 C 
ATOM     29  C   UNL     1      32.111 -13.195 -21.964  0.00  0.00    +0.051 C 
ENDBRANCH  27  28
ENDBRANCH  25  27
ENDBRANCH  22  24
BRANCH  22  30
ATOM     30  C   UNL     1      35.708 -17.668 -22.977  0.00  0.00    +0.055 C 
BRANCH  30  31
ATOM     31  C   UNL     1      34.879 -16.862 -23.946  0.00  0.00    -0.020 C 
ATOM     32  C   UNL     1      34.275 -17.488 -25.037  0.00  0.00    -0.004 C 
ATOM     33  C   UNL     1      34.715 -15.490 -23.752  0.00  0.00    -0.004 C 
ATOM     34  C   UNL     1      33.508 -16.744 -25.932  0.00  0.00    -0.000 C 
ATOM     35  C   UNL     1      33.947 -14.746 -24.648  0.00  0.00    -0.000 C 
ATOM     36  C   UNL     1      33.345 -15.373 -25.738  0.00  0.00    -0.000 C 
ENDBRANCH  30  31
ENDBRANCH  22  30
ENDBRANCH   7  22
TORSDOF 13
ENDMDL
MODEL 4
REMARK VINA RESULT:      -8.1     10.862     15.706
REMARK  Name = 444224
REMARK  13 active torsions:
REMARK  status: ('A' for Active; 'I' for Inactive)
REMARK    1  A    between atoms: C_3  and  C_10
REMARK    2  A    between atoms: C_7  and  C_22
REMARK    3  A    between atoms: N_9  and  N_12
REMARK    4  A    between atoms: N_12  and  C_14
REMARK    5  A    between atoms: C_14  and  C_15
REMARK    6  A    between atoms: C_15  and  C_16
REMARK    7  A    between atoms: C_16  and  C_17
REMARK    8  A    between atoms: C_17  and  N_18
REMARK    9  A    between atoms: C_22  and  N_24
REMARK   10  A    between atoms: C_22  and  C_30
REMARK   11  A    between atoms: C_25  and  O_27
REMARK   12  A    between atoms: O_27  and  C_28
REMARK   13  A    between atoms: C_30  and  C_31
REMARK                            x       y       z     vdW  Elec       q    Type
REMARK                         _______ _______ _______ _____ _____    ______ ____
ROOT
ATOM      1  O   UNL     1      31.293 -10.629 -23.209  0.00  0.00    -0.273 OA
ATOM      2  N   UNL     1      33.388 -10.312 -24.140  0.00  0.00    -0.272 N 
ATOM      3  C   UNL     1      33.395 -11.524 -24.950  0.00  0.00    +0.153 C 
ATOM      4  C   UNL     1      34.542 -11.324 -25.934  0.00  0.00    +0.031 C 
ATOM      5  C   UNL     1      35.512 -10.424 -25.173  0.00  0.00    +0.024 C 
ATOM      6  C   UNL     1      34.590  -9.516 -24.372  0.00  0.00    +0.094 C 
ATOM      7  C   UNL     1      32.291  -9.929 -23.384  0.00  0.00    +0.244 C 
ENDROOT
BRANCH   3  10
ATOM      8  O   UNL     1      34.114 -12.504 -22.896  0.00  0.00    -0.272 OA
ATOM      9  N   UNL     1      33.285 -13.885 -24.577  0.00  0.00    -0.248 N 
ATOM     10  C   UNL     1      33.651 -12.673 -24.022  0.00  0.00    +0.253 C 
ATOM     11  H   UNL     1      32.922 -13.927 -25.492  0.00  0.00    +0.169 HD
BRANCH   9  12
ATOM     12  N   UNL     1      33.437 -15.041 -23.827  0.00  0.00    -0.230 NA
ATOM     13  H   UNL     1      32.557 -15.556 -23.823  0.00  0.00    +0.145 HD
BRANCH  12  14
ATOM     14  C   UNL     1      34.483 -15.879 -24.397  0.00  0.00    +0.087 C 
BRANCH  14  15
ATOM     15  C   UNL     1      35.109 -16.756 -23.312  0.00  0.00    +0.017 C 
BRANCH  15  16
ATOM     16  C   UNL     1      34.215 -16.816 -22.069  0.00  0.00    -0.022 C 
BRANCH  16  17
ATOM     17  C   UNL     1      34.805 -16.095 -20.856  0.00  0.00    -0.086 C 
BRANCH  17  18
ATOM     18  N   UNL     1      34.438 -14.685 -20.817  0.00  0.00    +0.380 N 
ATOM     19  H   UNL     1      33.422 -14.598 -20.827  0.00  0.00    -0.089 HD
ATOM     20  H   UNL     1      34.829 -14.209 -21.630  0.00  0.00    -0.089 HD
ATOM     21  H   UNL     1      34.806 -14.261 -19.965  0.00  0.00    -0.089 HD
ENDBRANCH  17  18
ENDBRANCH  16  17
ENDBRANCH  15  16
ENDBRANCH  14  15
ENDBRANCH  12  14
ENDBRANCH   9  12
ENDBRANCH   3  10
BRANCH   7  22
ATOM     22  C   UNL     1      32.385  -8.565 -22.749  0.00  0.00    +0.156 C 
BRANCH  22  24
ATOM     23  O   UNL     1      32.149  -6.648 -20.579  0.00  0.00    -0.226 OA
ATOM     24  N   UNL     1      32.286  -8.836 -21.344  0.00  0.00    -0.264 N 
ATOM     25  C   UNL     1      32.177  -7.857 -20.371  0.00  0.00    +0.402 C 
ATOM     26  H   UNL     1      32.297  -9.777 -21.055  0.00  0.00    +0.153 HD
BRANCH  25  27
ATOM     27  O   UNL     1      32.102  -8.432 -19.134  0.00  0.00    -0.435 OA
BRANCH  27  28
ATOM     28  C   UNL     1      32.281  -9.852 -19.095  0.00  0.00    +0.210 C 
ATOM     29  C   UNL     1      30.923 -10.522 -19.086  0.00  0.00    +0.051 C 
ENDBRANCH  27  28
ENDBRANCH  25  27
ENDBRANCH  22  24
BRANCH  22  30
ATOM     30  C   UNL     1      31.266  -7.667 -23.261  0.00  0.00    +0.055 C 
BRANCH  30  31
ATOM     31  C   UNL     1      31.784  -6.556 -24.140  0.00  0.00    -0.020 C 
ATOM     32  C   UNL     1      30.975  -5.455 -24.422  0.00  0.00    -0.004 C 
ATOM     33  C   UNL     1      33.073  -6.628 -24.670  0.00  0.00    -0.004 C 
ATOM     34  C   UNL     1      31.454  -4.427 -25.233  0.00  0.00    -0.000 C 
ATOM     35  C   UNL     1      33.552  -5.599 -25.481  0.00  0.00    -0.000 C 
ATOM     36  C   UNL     1      32.742  -4.499 -25.763  0.00  0.00    -0.000 C 
ENDBRANCH  30  31
ENDBRANCH  22  30
ENDBRANCH   7  22
TORSDOF 13
ENDMDL
MODEL 5
REMARK VINA RESULT:      -8.0      2.113      5.980
REMARK  Name = 444224
REMARK  13 active torsions:
REMARK  status: ('A' for Active; 'I' for Inactive)
REMARK    1  A    between atoms: C_3  and  C_10
REMARK    2  A    between atoms: C_7  and  C_22
REMARK    3  A    between atoms: N_9  and  N_12
REMARK    4  A    between atoms: N_12  and  C_14
REMARK    5  A    between atoms: C_14  and  C_15
REMARK    6  A    between atoms: C_15  and  C_16
REMARK    7  A    between atoms: C_16  and  C_17
REMARK    8  A    between atoms: C_17  and  N_18
REMARK    9  A    between atoms: C_22  and  N_24
REMARK   10  A    between atoms: C_22  and  C_30
REMARK   11  A    between atoms: C_25  and  O_27
REMARK   12  A    between atoms: O_27  and  C_28
REMARK   13  A    between atoms: C_30  and  C_31
REMARK                            x       y       z     vdW  Elec       q    Type
REMARK                         _______ _______ _______ _____ _____    ______ ____
ROOT
ATOM      1  O   UNL     1      34.193 -24.553 -15.971  0.00  0.00    -0.273 OA
ATOM      2  N   UNL     1      35.699 -22.852 -16.414  0.00  0.00    -0.272 N 
ATOM      3  C   UNL     1      36.840 -23.462 -15.743  0.00  0.00    +0.153 C 
ATOM      4  C   UNL     1      38.046 -22.668 -16.233  0.00  0.00    +0.031 C 
ATOM      5  C   UNL     1      37.467 -21.287 -16.529  0.00  0.00    +0.024 C 
ATOM      6  C   UNL     1      36.076 -21.598 -17.060  0.00  0.00    +0.094 C 
ATOM      7  C   UNL     1      34.476 -23.494 -16.533  0.00  0.00    +0.244 C 
ENDROOT
BRANCH   3  10
ATOM      8  O   UNL     1      35.499 -23.192 -13.786  0.00  0.00    -0.272 OA
ATOM      9  N   UNL     1      37.815 -23.299 -13.563  0.00  0.00    -0.248 N 
ATOM     10  C   UNL     1      36.626 -23.294 -14.268  0.00  0.00    +0.253 C 
ATOM     11  H   UNL     1      38.675 -23.385 -14.034  0.00  0.00    +0.169 HD
BRANCH   9  12
ATOM     12  N   UNL     1      37.777 -23.181 -12.183  0.00  0.00    -0.230 NA
ATOM     13  H   UNL     1      36.963 -22.630 -11.914  0.00  0.00    +0.145 HD
BRANCH  12  14
ATOM     14  C   UNL     1      37.692 -24.498 -11.566  0.00  0.00    +0.087 C 
BRANCH  14  15
ATOM     15  C   UNL     1      38.291 -25.557 -12.492  0.00  0.00    +0.017 C 
BRANCH  15  16
ATOM     16  C   UNL     1      37.216 -26.535 -12.978  0.00  0.00    -0.022 C 
BRANCH  16  17
ATOM     17  C   UNL     1      37.340 -26.893 -14.460  0.00  0.00    -0.086 C 
BRANCH  17  18
ATOM     18  N   UNL     1      36.051 -26.895 -15.140  0.00  0.00    +0.380 N 
ATOM     19  H   UNL     1      35.430 -27.566 -14.688  0.00  0.00    -0.089 HD
ATOM     20  H   UNL     1      36.183 -27.157 -16.117  0.00  0.00    -0.089 HD
ATOM     21  H   UNL     1      35.638 -25.964 -15.090  0.00  0.00    -0.089 HD
ENDBRANCH  17  18
ENDBRANCH  16  17
ENDBRANCH  15  16
ENDBRANCH  14  15
ENDBRANCH  12  14
ENDBRANCH   9  12
ENDBRANCH   3  10
BRANCH   7  22
ATOM     22  C   UNL     1      33.461 -22.801 -17.407  0.00  0.00    +0.156 C 
BRANCH  22  24
ATOM     23  O   UNL     1      31.904 -22.339 -14.998  0.00  0.00    -0.226 OA
ATOM     24  N   UNL     1      32.218 -23.412 -17.034  0.00  0.00    -0.264 N 
ATOM     25  C   UNL     1      31.539 -23.133 -15.859  0.00  0.00    +0.402 C 
ATOM     26  H   UNL     1      31.824 -24.070 -17.651  0.00  0.00    +0.153 HD
BRANCH  25  27
ATOM     27  O   UNL     1      30.392 -23.872 -15.795  0.00  0.00    -0.435 OA
BRANCH  27  28
ATOM     28  C   UNL     1      29.168 -23.132 -15.843  0.00  0.00    +0.210 C 
ATOM     29  C   UNL     1      28.275 -23.721 -16.915  0.00  0.00    +0.051 C 
ENDBRANCH  27  28
ENDBRANCH  25  27
ENDBRANCH  22  24
BRANCH  22  30
ATOM     30  C   UNL     1      33.806 -23.004 -18.877  0.00  0.00    +0.055 C 
BRANCH  30  31
ATOM     31  C   UNL     1      33.913 -21.698 -19.622  0.00  0.00    -0.020 C 
ATOM     32  C   UNL     1      32.767 -20.944 -19.877  0.00  0.00    -0.004 C 
ATOM     33  C   UNL     1      35.159 -21.241 -20.056  0.00  0.00    -0.004 C 
ATOM     34  C   UNL     1      32.866 -19.736 -20.566  0.00  0.00    -0.000 C 
ATOM     35  C   UNL     1      35.257 -20.032 -20.744  0.00  0.00    -0.000 C 
ATOM     36  C   UNL     1      34.110 -19.279 -20.999  0.00  0.00    -0.000 C 
ENDBRANCH  30  31
ENDBRANCH  22  30
ENDBRANCH   7  22
TORSDOF 13
ENDMDL
MODEL 6
REMARK VINA RESULT:      -8.0      6.348     11.043
REMARK  Name = 444224
REMARK  13 active torsions:
REMARK  status: ('A' for Active; 'I' for Inactive)
REMARK    1  A    between atoms: C_3  and  C_10
REMARK    2  A    between atoms: C_7  and  C_22
REMARK    3  A    between atoms: N_9  and  N_12
REMARK    4  A    between atoms: N_12  and  C_14
REMARK    5  A    between atoms: C_14  and  C_15
REMARK    6  A    between atoms: C_15  and  C_16
REMARK    7  A    between atoms: C_16  and  C_17
REMARK    8  A    between atoms: C_17  and  N_18
REMARK    9  A    between atoms: C_22  and  N_24
REMARK   10  A    between atoms: C_22  and  C_30
REMARK   11  A    between atoms: C_25  and  O_27
REMARK   12  A    between atoms: O_27  and  C_28
REMARK   13  A    between atoms: C_30  and  C_31
REMARK                            x       y       z     vdW  Elec       q    Type
REMARK                         _______ _______ _______ _____ _____    ______ ____
ROOT
ATOM      1  O   UNL     1      32.903 -15.887 -20.524  0.00  0.00    -0.273 OA
ATOM      2  N   UNL     1      34.133 -16.446 -22.404  0.00  0.00    -0.272 N 
ATOM      3  C   UNL     1      34.193 -17.878 -22.143  0.00  0.00    +0.153 C 
ATOM      4  C   UNL     1      34.650 -18.492 -23.462  0.00  0.00    +0.031 C 
ATOM      5  C   UNL     1      35.486 -17.386 -24.099  0.00  0.00    +0.024 C 
ATOM      6  C   UNL     1      34.763 -16.115 -23.680  0.00  0.00    +0.094 C 
ATOM      7  C   UNL     1      33.421 -15.572 -21.597  0.00  0.00    +0.244 C 
ENDROOT
BRANCH   3  10
ATOM      8  O   UNL     1      35.612 -17.154 -20.366  0.00  0.00    -0.272 OA
ATOM      9  N   UNL     1      35.565 -19.414 -20.923  0.00  0.00    -0.248 N 
ATOM     10  C   UNL     1      35.202 -18.086 -21.054  0.00  0.00    +0.253 C 
ATOM     11  H   UNL     1      35.184 -20.098 -21.521  0.00  0.00    +0.169 HD
BRANCH   9  12
ATOM     12  N   UNL     1      36.471 -19.768 -19.936  0.00  0.00    -0.230 NA
ATOM     13  H   UNL     1      36.186 -19.350 -19.051  0.00  0.00    +0.145 HD
BRANCH  12  14
ATOM     14  C   UNL     1      36.517 -21.217 -19.791  0.00  0.00    +0.087 C 
BRANCH  14  15
ATOM     15  C   UNL     1      36.374 -21.607 -18.319  0.00  0.00    +0.017 C 
BRANCH  15  16
ATOM     16  C   UNL     1      35.062 -22.361 -18.075  0.00  0.00    -0.022 C 
BRANCH  16  17
ATOM     17  C   UNL     1      34.133 -22.382 -19.290  0.00  0.00    -0.086 C 
BRANCH  17  18
ATOM     18  N   UNL     1      32.769 -21.999 -18.953  0.00  0.00    +0.380 N 
ATOM     19  H   UNL     1      32.351 -22.715 -18.359  0.00  0.00    -0.089 HD
ATOM     20  H   UNL     1      32.221 -21.905 -19.809  0.00  0.00    -0.089 HD
ATOM     21  H   UNL     1      32.778 -21.108 -18.456  0.00  0.00    -0.089 HD
ENDBRANCH  17  18
ENDBRANCH  16  17
ENDBRANCH  15  16
ENDBRANCH  14  15
ENDBRANCH  12  14
ENDBRANCH   9  12
ENDBRANCH   3  10
BRANCH   7  22
ATOM     22  C   UNL     1      33.316 -14.157 -22.106  0.00  0.00    +0.156 C 
BRANCH  22  24
ATOM     23  O   UNL     1      31.313 -12.056 -21.978  0.00  0.00    -0.226 OA
ATOM     24  N   UNL     1      32.897 -13.411 -20.955  0.00  0.00    -0.264 N 
ATOM     25  C   UNL     1      31.930 -12.420 -20.982  0.00  0.00    +0.402 C 
ATOM     26  H   UNL     1      33.324 -13.617 -20.092  0.00  0.00    +0.153 HD
BRANCH  25  27
ATOM     27  O   UNL     1      31.756 -11.901 -19.730  0.00  0.00    -0.435 OA
BRANCH  27  28
ATOM     28  C   UNL     1      31.023 -10.674 -19.659  0.00  0.00    +0.210 C 
ATOM     29  C   UNL     1      31.999  -9.517 -19.616  0.00  0.00    +0.051 C 
ENDBRANCH  27  28
ENDBRANCH  25  27
ENDBRANCH  22  24
BRANCH  22  30
ATOM     30  C   UNL     1      32.320 -14.083 -23.256  0.00  0.00    +0.055 C 
BRANCH  30  31
ATOM     31  C   UNL     1      32.915 -13.439 -24.484  0.00  0.00    -0.020 C 
ATOM     32  C   UNL     1      32.746 -14.033 -25.734  0.00  0.00    -0.004 C 
ATOM     33  C   UNL     1      33.632 -12.247 -24.369  0.00  0.00    -0.004 C 
ATOM     34  C   UNL     1      33.295 -13.436 -26.869  0.00  0.00    -0.000 C 
ATOM     35  C   UNL     1      34.181 -11.651 -25.504  0.00  0.00    -0.000 C 
ATOM     36  C   UNL     1      34.012 -12.246 -26.755  0.00  0.00    -0.000 C 
ENDBRANCH  30  31
ENDBRANCH  22  30
ENDBRANCH   7  22
TORSDOF 13
ENDMDL
MODEL 7
REMARK VINA RESULT:      -7.7      2.225      5.244
REMARK  Name = 444224
REMARK  13 active torsions:
REMARK  status: ('A' for Active; 'I' for Inactive)
REMARK    1  A    between atoms: C_3  and  C_10
REMARK    2  A    between atoms: C_7  and  C_22
REMARK    3  A    between atoms: N_9  and  N_12
REMARK    4  A    between atoms: N_12  and  C_14
REMARK    5  A    between atoms: C_14  and  C_15
REMARK    6  A    between atoms: C_15  and  C_16
REMARK    7  A    between atoms: C_16  and  C_17
REMARK    8  A    between atoms: C_17  and  N_18
REMARK    9  A    between atoms: C_22  and  N_24
REMARK   10  A    between atoms: C_22  and  C_30
REMARK   11  A    between atoms: C_25  and  O_27
REMARK   12  A    between atoms: O_27  and  C_28
REMARK   13  A    between atoms: C_30  and  C_31
REMARK                            x       y       z     vdW  Elec       q    Type
REMARK                         _______ _______ _______ _____ _____    ______ ____
ROOT
ATOM      1  O   UNL     1      33.385 -22.812 -15.629  0.00  0.00    -0.273 OA
ATOM      2  N   UNL     1      35.677 -23.124 -15.728  0.00  0.00    -0.272 N 
ATOM      3  C   UNL     1      35.983 -21.884 -16.429  0.00  0.00    +0.153 C 
ATOM      4  C   UNL     1      37.490 -21.712 -16.271  0.00  0.00    +0.031 C 
ATOM      5  C   UNL     1      38.001 -23.146 -16.158  0.00  0.00    +0.024 C 
ATOM      6  C   UNL     1      36.896 -23.852 -15.387  0.00  0.00    +0.094 C 
ATOM      7  C   UNL     1      34.393 -23.451 -15.320  0.00  0.00    +0.244 C 
ENDROOT
BRANCH   3  10
ATOM      8  O   UNL     1      34.743 -22.902 -18.195  0.00  0.00    -0.272 OA
ATOM      9  N   UNL     1      36.272 -21.224 -18.711  0.00  0.00    -0.248 N 
ATOM     10  C   UNL     1      35.593 -22.079 -17.863  0.00  0.00    +0.253 C 
ATOM     11  H   UNL     1      36.940 -20.593 -18.356  0.00  0.00    +0.169 HD
BRANCH   9  12
ATOM     12  N   UNL     1      35.997 -21.266 -20.069  0.00  0.00    -0.230 NA
ATOM     13  H   UNL     1      35.033 -21.568 -20.208  0.00  0.00    +0.145 HD
BRANCH  12  14
ATOM     14  C   UNL     1      36.179 -19.948 -20.662  0.00  0.00    +0.087 C 
BRANCH  14  15
ATOM     15  C   UNL     1      35.066 -19.661 -21.670  0.00  0.00    +0.017 C 
BRANCH  15  16
ATOM     16  C   UNL     1      33.830 -19.079 -20.974  0.00  0.00    -0.022 C 
BRANCH  16  17
ATOM     17  C   UNL     1      32.692 -20.087 -20.806  0.00  0.00    -0.086 C 
BRANCH  17  18
ATOM     18  N   UNL     1      32.800 -20.845 -19.567  0.00  0.00    +0.380 N 
ATOM     19  H   UNL     1      33.405 -21.653 -19.714  0.00  0.00    -0.089 HD
ATOM     20  H   UNL     1      31.874 -21.161 -19.279  0.00  0.00    -0.089 HD
ATOM     21  H   UNL     1      33.198 -20.252 -18.838  0.00  0.00    -0.089 HD
ENDBRANCH  17  18
ENDBRANCH  16  17
ENDBRANCH  15  16
ENDBRANCH  14  15
ENDBRANCH  12  14
ENDBRANCH   9  12
ENDBRANCH   3  10
BRANCH   7  22
ATOM     22  C   UNL     1      34.279 -24.681 -14.456  0.00  0.00    +0.156 C 
BRANCH  22  24
ATOM     23  O   UNL     1      31.821 -24.269 -12.962  0.00  0.00    -0.226 OA
ATOM     24  N   UNL     1      32.972 -25.189 -14.758  0.00  0.00    -0.264 N 
ATOM     25  C   UNL     1      31.848 -24.943 -13.987  0.00  0.00    +0.402 C 
ATOM     26  H   UNL     1      32.869 -25.746 -15.562  0.00  0.00    +0.153 HD
BRANCH  25  27
ATOM     27  O   UNL     1      30.760 -25.562 -14.536  0.00  0.00    -0.435 OA
BRANCH  27  28
ATOM     28  C   UNL     1      29.586 -24.755 -14.676  0.00  0.00    +0.210 C 
ATOM     29  C   UNL     1      29.802 -23.760 -15.796  0.00  0.00    +0.051 C 
ENDBRANCH  27  28
ENDBRANCH  25  27
ENDBRANCH  22  24
BRANCH  22  30
ATOM     30  C   UNL     1      34.449 -24.310 -12.988  0.00  0.00    +0.055 C 
BRANCH  30  31
ATOM     31  C   UNL     1      35.898 -24.299 -12.567  0.00  0.00    -0.020 C 
ATOM     32  C   UNL     1      36.485 -23.116 -12.120  0.00  0.00    -0.004 C 
ATOM     33  C   UNL     1      36.650 -25.473 -12.625  0.00  0.00    -0.004 C 
ATOM     34  C   UNL     1      37.824 -23.106 -11.731  0.00  0.00    -0.000 C 
ATOM     35  C   UNL     1      37.990 -25.462 -12.235  0.00  0.00    -0.000 C 
ATOM     36  C   UNL     1      38.576 -24.278 -11.788  0.00  0.00    -0.000 C 
ENDBRANCH  30  31
ENDBRANCH  22  30
ENDBRANCH   7  22
TORSDOF 13
ENDMDL
MODEL 8
REMARK VINA RESULT:      -7.7      8.230     12.532
REMARK  Name = 444224
REMARK  13 active torsions:
REMARK  status: ('A' for Active; 'I' for Inactive)
REMARK    1  A    between atoms: C_3  and  C_10
REMARK    2  A    between atoms: C_7  and  C_22
REMARK    3  A    between atoms: N_9  and  N_12
REMARK    4  A    between atoms: N_12  and  C_14
REMARK    5  A    between atoms: C_14  and  C_15
REMARK    6  A    between atoms: C_15  and  C_16
REMARK    7  A    between atoms: C_16  and  C_17
REMARK    8  A    between atoms: C_17  and  N_18
REMARK    9  A    between atoms: C_22  and  N_24
REMARK   10  A    between atoms: C_22  and  C_30
REMARK   11  A    between atoms: C_25  and  O_27
REMARK   12  A    between atoms: O_27  and  C_28
REMARK   13  A    between atoms: C_30  and  C_31
REMARK                            x       y       z     vdW  Elec       q    Type
REMARK                         _______ _______ _______ _____ _____    ______ ____
ROOT
ATOM      1  O   UNL     1      32.551 -13.685 -24.240  0.00  0.00    -0.273 OA
ATOM      2  N   UNL     1      32.371 -13.056 -22.020  0.00  0.00    -0.272 N 
ATOM      3  C   UNL     1      31.412 -11.979 -22.230  0.00  0.00    +0.153 C 
ATOM      4  C   UNL     1      30.873 -11.666 -20.839  0.00  0.00    +0.031 C 
ATOM      5  C   UNL     1      32.033 -12.031 -19.917  0.00  0.00    +0.024 C 
ATOM      6  C   UNL     1      32.654 -13.240 -20.599  0.00  0.00    +0.094 C 
ATOM      7  C   UNL     1      32.810 -13.873 -23.050  0.00  0.00    +0.244 C 
ENDROOT
BRANCH   3  10
ATOM      8  O   UNL     1      33.313 -10.945 -23.235  0.00  0.00    -0.272 OA
ATOM      9  N   UNL     1      31.417  -9.659 -22.818  0.00  0.00    -0.248 N 
ATOM     10  C   UNL     1      32.167 -10.820 -22.808  0.00  0.00    +0.253 C 
ATOM     11  H   UNL     1      30.503  -9.651 -22.453  0.00  0.00    +0.169 HD
BRANCH   9  12
ATOM     12  N   UNL     1      31.972  -8.506 -23.350  0.00  0.00    -0.230 NA
ATOM     13  H   UNL     1      32.455  -8.734 -24.218  0.00  0.00    +0.145 HD
BRANCH  12  14
ATOM     14  C   UNL     1      30.931  -7.525 -23.621  0.00  0.00    +0.087 C 
BRANCH  14  15
ATOM     15  C   UNL     1      30.914  -6.452 -22.532  0.00  0.00    +0.017 C 
BRANCH  15  16
ATOM     16  C   UNL     1      32.281  -6.342 -21.848  0.00  0.00    -0.022 C 
BRANCH  16  17
ATOM     17  C   UNL     1      32.255  -6.715 -20.364  0.00  0.00    -0.086 C 
BRANCH  17  18
ATOM     18  N   UNL     1      32.887  -8.001 -20.104  0.00  0.00    +0.380 N 
ATOM     19  H   UNL     1      33.725  -8.091 -20.678  0.00  0.00    -0.089 HD
ATOM     20  H   UNL     1      32.236  -8.753 -20.333  0.00  0.00    -0.089 HD
ATOM     21  H   UNL     1      33.143  -8.062 -19.118  0.00  0.00    -0.089 HD
ENDBRANCH  17  18
ENDBRANCH  16  17
ENDBRANCH  15  16
ENDBRANCH  14  15
ENDBRANCH  12  14
ENDBRANCH   9  12
ENDBRANCH   3  10
BRANCH   7  22
ATOM     22  C   UNL     1      33.661 -15.045 -22.632  0.00  0.00    +0.156 C 
BRANCH  22  24
ATOM     23  O   UNL     1      36.020 -16.098 -23.961  0.00  0.00    -0.226 OA
ATOM     24  N   UNL     1      33.715 -15.863 -23.809  0.00  0.00    -0.264 N 
ATOM     25  C   UNL     1      34.889 -16.324 -24.380  0.00  0.00    +0.402 C 
ATOM     26  H   UNL     1      32.864 -16.112 -24.237  0.00  0.00    +0.153 HD
BRANCH  25  27
ATOM     27  O   UNL     1      34.608 -17.075 -25.487  0.00  0.00    -0.435 OA
BRANCH  27  28
ATOM     28  C   UNL     1      33.904 -18.298 -25.248  0.00  0.00    +0.210 C 
ATOM     29  C   UNL     1      34.796 -19.237 -24.464  0.00  0.00    +0.051 C 
ENDBRANCH  27  28
ENDBRANCH  25  27
ENDBRANCH  22  24
BRANCH  22  30
ATOM     30  C   UNL     1      33.031 -15.756 -21.442  0.00  0.00    +0.055 C 
BRANCH  30  31
ATOM     31  C   UNL     1      33.648 -17.111 -21.197  0.00  0.00    -0.020 C 
ATOM     32  C   UNL     1      35.030 -17.233 -21.058  0.00  0.00    -0.004 C 
ATOM     33  C   UNL     1      32.835 -18.242 -21.108  0.00  0.00    -0.004 C 
ATOM     34  C   UNL     1      35.600 -18.486 -20.832  0.00  0.00    -0.000 C 
ATOM     35  C   UNL     1      33.406 -19.494 -20.881  0.00  0.00    -0.000 C 
ATOM     36  C   UNL     1      34.789 -19.616 -20.743  0.00  0.00    -0.000 C 
ENDBRANCH  30  31
ENDBRANCH  22  30
ENDBRANCH   7  22
TORSDOF 13
ENDMDL
MODEL 9
REMARK VINA RESULT:      -7.6      1.693      5.762
REMARK  Name = 444224
REMARK  13 active torsions:
REMARK  status: ('A' for Active; 'I' for Inactive)
REMARK    1  A    between atoms: C_3  and  C_10
REMARK    2  A    between atoms: C_7  and  C_22
REMARK    3  A    between atoms: N_9  and  N_12
REMARK    4  A    between atoms: N_12  and  C_14
REMARK    5  A    between atoms: C_14  and  C_15
REMARK    6  A    between atoms: C_15  and  C_16
REMARK    7  A    between atoms: C_16  and  C_17
REMARK    8  A    between atoms: C_17  and  N_18
REMARK    9  A    between atoms: C_22  and  N_24
REMARK   10  A    between atoms: C_22  and  C_30
REMARK   11  A    between atoms: C_25  and  O_27
REMARK   12  A    between atoms: O_27  and  C_28
REMARK   13  A    between atoms: C_30  and  C_31
REMARK                            x       y       z     vdW  Elec       q    Type
REMARK                         _______ _______ _______ _____ _____    ______ ____
ROOT
ATOM      1  O   UNL     1      33.755 -24.275 -17.511  0.00  0.00    -0.273 OA
ATOM      2  N   UNL     1      32.695 -23.522 -15.596  0.00  0.00    -0.272 N 
ATOM      3  C   UNL     1      31.335 -23.804 -16.038  0.00  0.00    +0.153 C 
ATOM      4  C   UNL     1      30.492 -23.722 -14.770  0.00  0.00    +0.031 C 
ATOM      5  C   UNL     1      31.253 -22.725 -13.901  0.00  0.00    +0.024 C 
ATOM      6  C   UNL     1      32.710 -23.019 -14.226  0.00  0.00    +0.094 C 
ATOM      7  C   UNL     1      33.807 -23.853 -16.355  0.00  0.00    +0.244 C 
ENDROOT
BRANCH   3  10
ATOM      8  O   UNL     1      29.817 -22.295 -17.093  0.00  0.00    -0.272 OA
ATOM      9  N   UNL     1      32.039 -22.330 -17.787  0.00  0.00    -0.248 N 
ATOM     10  C   UNL     1      30.961 -22.739 -17.025  0.00  0.00    +0.253 C 
ATOM     11  H   UNL     1      32.924 -22.743 -17.664  0.00  0.00    +0.169 HD
BRANCH   9  12
ATOM     12  N   UNL     1      31.856 -21.328 -18.727  0.00  0.00    -0.230 NA
ATOM     13  H   UNL     1      31.599 -20.464 -18.251  0.00  0.00    +0.145 HD
BRANCH  12  14
ATOM     14  C   UNL     1      33.082 -21.115 -19.482  0.00  0.00    +0.087 C 
BRANCH  14  15
ATOM     15  C   UNL     1      32.860 -20.064 -20.570  0.00  0.00    +0.017 C 
BRANCH  15  16
ATOM     16  C   UNL     1      34.178 -19.699 -21.261  0.00  0.00    -0.022 C 
BRANCH  16  17
ATOM     17  C   UNL     1      34.309 -18.209 -21.580  0.00  0.00    -0.086 C 
BRANCH  17  18
ATOM     18  N   UNL     1      35.317 -17.552 -20.758  0.00  0.00    +0.380 N 
ATOM     19  H   UNL     1      35.090 -17.682 -19.772  0.00  0.00    -0.089 HD
ATOM     20  H   UNL     1      35.335 -16.555 -20.974  0.00  0.00    -0.089 HD
ATOM     21  H   UNL     1      36.233 -17.958 -20.952  0.00  0.00    -0.089 HD
ENDBRANCH  17  18
ENDBRANCH  16  17
ENDBRANCH  15  16
ENDBRANCH  14  15
ENDBRANCH  12  14
ENDBRANCH   9  12
ENDBRANCH   3  10
BRANCH   7  22
ATOM     22  C   UNL     1      35.138 -23.655 -15.676  0.00  0.00    +0.156 C 
BRANCH  22  24
ATOM     23  O   UNL     1      37.409 -21.933 -15.110  0.00  0.00    -0.226 OA
ATOM     24  N   UNL     1      35.870 -22.835 -16.597  0.00  0.00    -0.264 N 
ATOM     25  C   UNL     1      36.947 -22.039 -16.241  0.00  0.00    +0.402 C 
ATOM     26  H   UNL     1      35.590 -22.838 -17.541  0.00  0.00    +0.153 HD
BRANCH  25  27
ATOM     27  O   UNL     1      37.427 -21.383 -17.339  0.00  0.00    -0.435 OA
BRANCH  27  28
ATOM     28  C   UNL     1      36.684 -21.565 -18.550  0.00  0.00    +0.210 C 
ATOM     29  C   UNL     1      37.081 -20.488 -19.538  0.00  0.00    +0.051 C 
ENDBRANCH  27  28
ENDBRANCH  25  27
ENDBRANCH  22  24
BRANCH  22  30
ATOM     30  C   UNL     1      35.804 -25.000 -15.418  0.00  0.00    +0.055 C 
BRANCH  30  31
ATOM     31  C   UNL     1      36.704 -24.967 -14.208  0.00  0.00    -0.020 C 
ATOM     32  C   UNL     1      38.033 -25.377 -14.315  0.00  0.00    -0.004 C 
ATOM     33  C   UNL     1      36.207 -24.526 -12.980  0.00  0.00    -0.004 C 
ATOM     34  C   UNL     1      38.865 -25.346 -13.196  0.00  0.00    -0.000 C 
ATOM     35  C   UNL     1      37.040 -24.495 -11.862  0.00  0.00    -0.000 C 
ATOM     36  C   UNL     1      38.368 -24.906 -11.970  0.00  0.00    -0.000 C 
ENDBRANCH  30  31
ENDBRANCH  22  30
ENDBRANCH   7  22
TORSDOF 13
ENDMDL
