MODEL 1
REMARK VINA RESULT:     -10.6      0.000      0.000
REMARK  Name = 25210493
REMARK  4 active torsions:
REMARK  status: ('A' for Active; 'I' for Inactive)
REMARK    1  A    between atoms: N_1  and  S_7
REMARK    2  A    between atoms: N_2  and  S_20
REMARK    3  A    between atoms: S_7  and  C_12
REMARK    4  A    between atoms: S_20  and  C_25
REMARK                            x       y       z     vdW  Elec       q    Type
REMARK                         _______ _______ _______ _____ _____    ______ ____
ROOT
ATOM      1  N   UNL     1      34.314 -21.374 -19.354  0.00  0.00    -0.153 NA
ATOM      2  N   UNL     1      35.387 -19.397 -21.117  0.00  0.00    -0.152 NA
ATOM      3  C   UNL     1      35.659 -21.560 -19.973  0.00  0.00    +0.115 C 
ATOM      4  C   UNL     1      33.413 -20.573 -20.234  0.00  0.00    +0.115 C 
ATOM      5  C   UNL     1      36.289 -20.197 -20.238  0.00  0.00    +0.115 C 
ATOM      6  C   UNL     1      34.042 -19.210 -20.498  0.00  0.00    +0.115 C 
ENDROOT
BRANCH   1   7
ATOM      7  S   UNL     1      33.615 -22.784 -18.678  0.00  0.00    +0.063 S 
ATOM      8  O   UNL     1      33.941 -23.920 -19.514  0.00  0.00    -0.153 OA
ATOM      9  O   UNL     1      32.247 -22.498 -18.307  0.00  0.00    -0.153 OA
BRANCH   7  12
ATOM     10  O   UNL     1      34.210 -24.333 -13.858  0.00  0.00    -0.468 OA
ATOM     11  O   UNL     1      36.869 -23.224 -13.747  0.00  0.00    -0.468 OA
ATOM     12  C   UNL     1      34.564 -22.917 -17.195  0.00  0.00    +0.125 C 
ATOM     13  C   UNL     1      34.039 -23.587 -16.090  0.00  0.00    +0.060 C 
ATOM     14  C   UNL     1      35.837 -22.347 -17.129  0.00  0.00    +0.023 C 
ATOM     15  C   UNL     1      34.788 -23.682 -14.916  0.00  0.00    +0.174 C 
ATOM     16  C   UNL     1      36.073 -23.134 -14.859  0.00  0.00    +0.172 C 
ATOM     17  C   UNL     1      36.591 -22.453 -15.960  0.00  0.00    +0.041 C 
ATOM     18  C   UNL     1      34.900 -24.074 -12.631  0.00  0.00    +0.253 C 
ATOM     19  C   UNL     1      36.397 -24.215 -12.831  0.00  0.00    +0.253 C 
ENDBRANCH   7  12
ENDBRANCH   1   7
BRANCH   2  20
ATOM     20  S   UNL     1      36.087 -17.985 -21.794  0.00  0.00    +0.068 S 
ATOM     21  O   UNL     1      37.468 -18.259 -22.129  0.00  0.00    -0.153 OA
ATOM     22  O   UNL     1      35.727 -16.847 -20.977  0.00  0.00    -0.153 OA
BRANCH  20  25
ATOM     23  F   UNL     1      35.163 -20.250 -23.498  0.00  0.00    -0.203 F 
ATOM     24  F   UNL     1      35.144 -15.513 -23.169  0.00  0.00    -0.203 F 
ATOM     25  C   UNL     1      35.174 -17.884 -23.302  0.00  0.00    +0.177 C 
ATOM     26  C   UNL     1      34.818 -19.048 -23.980  0.00  0.00    +0.161 C 
ATOM     27  C   UNL     1      34.809 -16.638 -23.813  0.00  0.00    +0.161 C 
ATOM     28  C   UNL     1      34.096 -18.969 -25.171  0.00  0.00    +0.031 C 
ATOM     29  C   UNL     1      34.087 -16.558 -25.004  0.00  0.00    +0.031 C 
ATOM     30  C   UNL     1      33.731 -17.723 -25.684  0.00  0.00    +0.005 C 
ENDBRANCH  20  25
ENDBRANCH   2  20
TORSDOF 4
ENDMDL
MODEL 2
REMARK VINA RESULT:     -10.6      0.013      1.511
REMARK  Name = 25210493
REMARK  4 active torsions:
REMARK  status: ('A' for Active; 'I' for Inactive)
REMARK    1  A    between atoms: N_1  and  S_7
REMARK    2  A    between atoms: N_2  and  S_20
REMARK    3  A    between atoms: S_7  and  C_12
REMARK    4  A    between atoms: S_20  and  C_25
REMARK                            x       y       z     vdW  Elec       q    Type
REMARK                         _______ _______ _______ _____ _____    ______ ____
ROOT
ATOM      1  N   UNL     1      34.314 -21.373 -19.348  0.00  0.00    -0.153 NA
ATOM      2  N   UNL     1      35.392 -19.399 -21.113  0.00  0.00    -0.152 NA
ATOM      3  C   UNL     1      35.661 -21.559 -19.963  0.00  0.00    +0.115 C 
ATOM      4  C   UNL     1      33.415 -20.574 -20.233  0.00  0.00    +0.115 C 
ATOM      5  C   UNL     1      36.291 -20.197 -20.229  0.00  0.00    +0.115 C 
ATOM      6  C   UNL     1      34.045 -19.212 -20.499  0.00  0.00    +0.115 C 
ENDROOT
BRANCH   1   7
ATOM      7  S   UNL     1      33.614 -22.781 -18.671  0.00  0.00    +0.063 S 
ATOM      8  O   UNL     1      33.937 -23.918 -19.507  0.00  0.00    -0.153 OA
ATOM      9  O   UNL     1      32.246 -22.493 -18.299  0.00  0.00    -0.153 OA
BRANCH   7  12
ATOM     10  O   UNL     1      34.203 -24.313 -13.845  0.00  0.00    -0.468 OA
ATOM     11  O   UNL     1      36.870 -23.224 -13.743  0.00  0.00    -0.468 OA
ATOM     12  C   UNL     1      34.563 -22.915 -17.189  0.00  0.00    +0.125 C 
ATOM     13  C   UNL     1      34.035 -23.576 -16.080  0.00  0.00    +0.060 C 
ATOM     14  C   UNL     1      35.841 -22.354 -17.127  0.00  0.00    +0.023 C 
ATOM     15  C   UNL     1      34.784 -23.672 -14.907  0.00  0.00    +0.174 C 
ATOM     16  C   UNL     1      36.073 -23.133 -14.854  0.00  0.00    +0.172 C 
ATOM     17  C   UNL     1      36.596 -22.461 -15.959  0.00  0.00    +0.041 C 
ATOM     18  C   UNL     1      34.896 -24.054 -12.621  0.00  0.00    +0.253 C 
ATOM     19  C   UNL     1      36.392 -24.207 -12.821  0.00  0.00    +0.253 C 
ENDBRANCH   7  12
ENDBRANCH   1   7
BRANCH   2  20
ATOM     20  S   UNL     1      36.092 -17.989 -21.791  0.00  0.00    +0.068 S 
ATOM     21  O   UNL     1      37.474 -18.264 -22.125  0.00  0.00    -0.153 OA
ATOM     22  O   UNL     1      35.734 -16.849 -20.976  0.00  0.00    -0.153 OA
BRANCH  20  25
ATOM     23  F   UNL     1      35.170 -15.517 -23.179  0.00  0.00    -0.203 F 
ATOM     24  F   UNL     1      35.154 -20.256 -23.485  0.00  0.00    -0.203 F 
ATOM     25  C   UNL     1      35.181 -17.888 -23.299  0.00  0.00    +0.177 C 
ATOM     26  C   UNL     1      34.826 -16.644 -23.817  0.00  0.00    +0.161 C 
ATOM     27  C   UNL     1      34.817 -19.055 -23.973  0.00  0.00    +0.161 C 
ATOM     28  C   UNL     1      34.106 -16.564 -25.010  0.00  0.00    +0.031 C 
ATOM     29  C   UNL     1      34.098 -18.975 -25.166  0.00  0.00    +0.031 C 
ATOM     30  C   UNL     1      33.742 -17.730 -25.684  0.00  0.00    +0.005 C 
ENDBRANCH  20  25
ENDBRANCH   2  20
TORSDOF 4
ENDMDL
MODEL 3
REMARK VINA RESULT:     -10.4      1.682      2.234
REMARK  Name = 25210493
REMARK  4 active torsions:
REMARK  status: ('A' for Active; 'I' for Inactive)
REMARK    1  A    between atoms: N_1  and  S_7
REMARK    2  A    between atoms: N_2  and  S_20
REMARK    3  A    between atoms: S_7  and  C_12
REMARK    4  A    between atoms: S_20  and  C_25
REMARK                            x       y       z     vdW  Elec       q    Type
REMARK                         _______ _______ _______ _____ _____    ______ ____
ROOT
ATOM      1  N   UNL     1      34.216 -21.224 -19.758  0.00  0.00    -0.153 NA
ATOM      2  N   UNL     1      35.089 -19.522 -21.881  0.00  0.00    -0.152 NA
ATOM      3  C   UNL     1      35.484 -21.515 -20.491  0.00  0.00    +0.115 C 
ATOM      4  C   UNL     1      33.223 -20.535 -20.635  0.00  0.00    +0.115 C 
ATOM      5  C   UNL     1      36.082 -20.211 -21.006  0.00  0.00    +0.115 C 
ATOM      6  C   UNL     1      33.822 -19.231 -21.150  0.00  0.00    +0.115 C 
ENDROOT
BRANCH   1   7
ATOM      7  S   UNL     1      33.594 -22.519 -18.824  0.00  0.00    +0.063 S 
ATOM      8  O   UNL     1      33.719 -23.747 -19.578  0.00  0.00    -0.153 OA
ATOM      9  O   UNL     1      32.327 -22.118 -18.253  0.00  0.00    -0.153 OA
BRANCH   7  12
ATOM     10  O   UNL     1      35.048 -23.801 -14.109  0.00  0.00    -0.468 OA
ATOM     11  O   UNL     1      37.661 -22.655 -14.519  0.00  0.00    -0.468 OA
ATOM     12  C   UNL     1      34.788 -22.560 -17.524  0.00  0.00    +0.125 C 
ATOM     13  C   UNL     1      34.477 -23.177 -16.312  0.00  0.00    +0.060 C 
ATOM     14  C   UNL     1      36.040 -21.972 -17.709  0.00  0.00    +0.023 C 
ATOM     15  C   UNL     1      35.420 -23.200 -15.284  0.00  0.00    +0.174 C 
ATOM     16  C   UNL     1      36.682 -22.634 -15.479  0.00  0.00    +0.172 C 
ATOM     17  C   UNL     1      36.988 -22.006 -16.686  0.00  0.00    +0.041 C 
ATOM     18  C   UNL     1      35.933 -23.468 -13.036  0.00  0.00    +0.253 C 
ATOM     19  C   UNL     1      37.376 -23.601 -13.485  0.00  0.00    +0.253 C 
ENDBRANCH   7  12
ENDBRANCH   1   7
BRANCH   2  20
ATOM     20  S   UNL     1      35.711 -18.226 -22.817  0.00  0.00    +0.068 S 
ATOM     21  O   UNL     1      35.318 -18.411 -24.197  0.00  0.00    -0.153 OA
ATOM     22  O   UNL     1      37.095 -18.011 -22.457  0.00  0.00    -0.153 OA
BRANCH  20  25
ATOM     23  F   UNL     1      35.731 -17.210 -20.014  0.00  0.00    -0.203 F 
ATOM     24  F   UNL     1      33.756 -16.512 -24.276  0.00  0.00    -0.203 F 
ATOM     25  C   UNL     1      34.763 -16.890 -22.159  0.00  0.00    +0.177 C 
ATOM     26  C   UNL     1      34.892 -16.540 -20.815  0.00  0.00    +0.161 C 
ATOM     27  C   UNL     1      33.887 -16.185 -22.983  0.00  0.00    +0.161 C 
ATOM     28  C   UNL     1      34.144 -15.484 -20.295  0.00  0.00    +0.031 C 
ATOM     29  C   UNL     1      33.138 -15.128 -22.464  0.00  0.00    +0.031 C 
ATOM     30  C   UNL     1      33.266 -14.778 -21.120  0.00  0.00    +0.005 C 
ENDBRANCH  20  25
ENDBRANCH   2  20
TORSDOF 4
ENDMDL
MODEL 4
REMARK VINA RESULT:      -9.8      7.465     10.975
REMARK  Name = 25210493
REMARK  4 active torsions:
REMARK  status: ('A' for Active; 'I' for Inactive)
REMARK    1  A    between atoms: N_1  and  S_7
REMARK    2  A    between atoms: N_2  and  S_20
REMARK    3  A    between atoms: S_7  and  C_12
REMARK    4  A    between atoms: S_20  and  C_25
REMARK                            x       y       z     vdW  Elec       q    Type
REMARK                         _______ _______ _______ _____ _____    ______ ____
ROOT
ATOM      1  N   UNL     1      33.527 -12.064 -24.144  0.00  0.00    -0.153 NA
ATOM      2  N   UNL     1      33.410  -9.324 -23.337  0.00  0.00    -0.152 NA
ATOM      3  C   UNL     1      34.200 -11.005 -24.954  0.00  0.00    +0.115 C 
ATOM      4  C   UNL     1      32.323 -11.531 -23.439  0.00  0.00    +0.115 C 
ATOM      5  C   UNL     1      34.614  -9.856 -24.042  0.00  0.00    +0.115 C 
ATOM      6  C   UNL     1      32.737 -10.382 -22.528  0.00  0.00    +0.115 C 
ENDROOT
BRANCH   1   7
ATOM      7  S   UNL     1      33.307 -13.566 -24.937  0.00  0.00    +0.063 S 
ATOM      8  O   UNL     1      34.215 -13.644 -26.061  0.00  0.00    -0.153 OA
ATOM      9  O   UNL     1      31.890 -13.806 -25.103  0.00  0.00    -0.153 OA
BRANCH   7  12
ATOM     10  O   UNL     1      34.825 -18.171 -23.363  0.00  0.00    -0.468 OA
ATOM     11  O   UNL     1      35.334 -17.180 -20.704  0.00  0.00    -0.468 OA
ATOM     12  C   UNL     1      33.901 -14.663 -23.687  0.00  0.00    +0.125 C 
ATOM     13  C   UNL     1      34.154 -15.999 -23.996  0.00  0.00    +0.060 C 
ATOM     14  C   UNL     1      34.111 -14.192 -22.390  0.00  0.00    +0.023 C 
ATOM     15  C   UNL     1      34.615 -16.865 -23.004  0.00  0.00    +0.174 C 
ATOM     16  C   UNL     1      34.851 -16.387 -21.712  0.00  0.00    +0.172 C 
ATOM     17  C   UNL     1      34.584 -15.054 -21.400  0.00  0.00    +0.041 C 
ATOM     18  C   UNL     1      34.955 -19.024 -22.222  0.00  0.00    +0.253 C 
ATOM     19  C   UNL     1      35.889 -18.400 -21.203  0.00  0.00    +0.253 C 
ENDBRANCH   7  12
ENDBRANCH   1   7
BRANCH   2  20
ATOM     20  S   UNL     1      33.630  -7.821 -22.544  0.00  0.00    +0.068 S 
ATOM     21  O   UNL     1      35.045  -7.517 -22.493  0.00  0.00    -0.153 OA
ATOM     22  O   UNL     1      32.818  -7.799 -21.347  0.00  0.00    -0.153 OA
BRANCH  20  25
ATOM     23  F   UNL     1      30.836  -6.781 -22.530  0.00  0.00    -0.203 F 
ATOM     24  F   UNL     1      34.908  -6.649 -24.970  0.00  0.00    -0.203 F 
ATOM     25  C   UNL     1      32.887  -6.739 -23.725  0.00  0.00    +0.177 C 
ATOM     26  C   UNL     1      31.559  -6.345 -23.571  0.00  0.00    +0.161 C 
ATOM     27  C   UNL     1      33.630  -6.278 -24.812  0.00  0.00    +0.161 C 
ATOM     28  C   UNL     1      30.972  -5.490 -24.503  0.00  0.00    +0.031 C 
ATOM     29  C   UNL     1      33.044  -5.423 -25.745  0.00  0.00    +0.031 C 
ATOM     30  C   UNL     1      31.714  -5.029 -25.591  0.00  0.00    +0.005 C 
ENDBRANCH  20  25
ENDBRANCH   2  20
TORSDOF 4
ENDMDL
MODEL 5
REMARK VINA RESULT:      -9.5      5.120      8.187
REMARK  Name = 25210493
REMARK  4 active torsions:
REMARK  status: ('A' for Active; 'I' for Inactive)
REMARK    1  A    between atoms: N_1  and  S_7
REMARK    2  A    between atoms: N_2  and  S_20
REMARK    3  A    between atoms: S_7  and  C_12
REMARK    4  A    between atoms: S_20  and  C_25
REMARK                            x       y       z     vdW  Elec       q    Type
REMARK                         _______ _______ _______ _____ _____    ______ ____
ROOT
ATOM      1  N   UNL     1      33.642 -15.502 -24.039  0.00  0.00    -0.153 NA
ATOM      2  N   UNL     1      32.869 -12.918 -23.093  0.00  0.00    -0.152 NA
ATOM      3  C   UNL     1      34.426 -14.821 -22.966  0.00  0.00    +0.115 C 
ATOM      4  C   UNL     1      33.006 -14.516 -24.961  0.00  0.00    +0.115 C 
ATOM      5  C   UNL     1      33.506 -13.904 -22.170  0.00  0.00    +0.115 C 
ATOM      6  C   UNL     1      32.085 -13.598 -24.165  0.00  0.00    +0.115 C 
ENDROOT
BRANCH   1   7
ATOM      7  S   UNL     1      34.431 -16.817 -24.802  0.00  0.00    +0.063 S 
ATOM      8  O   UNL     1      35.681 -16.355 -25.366  0.00  0.00    -0.153 OA
ATOM      9  O   UNL     1      33.469 -17.537 -25.607  0.00  0.00    -0.153 OA
BRANCH   7  12
ATOM     10  O   UNL     1      33.119 -20.175 -21.198  0.00  0.00    -0.468 OA
ATOM     11  O   UNL     1      35.783 -20.148 -20.094  0.00  0.00    -0.468 OA
ATOM     12  C   UNL     1      34.810 -17.809 -23.392  0.00  0.00    +0.125 C 
ATOM     13  C   UNL     1      33.829 -18.630 -22.834  0.00  0.00    +0.060 C 
ATOM     14  C   UNL     1      36.089 -17.767 -22.834  0.00  0.00    +0.023 C 
ATOM     15  C   UNL     1      34.130 -19.407 -21.714  0.00  0.00    +0.174 C 
ATOM     16  C   UNL     1      35.418 -19.384 -21.172  0.00  0.00    +0.172 C 
ATOM     17  C   UNL     1      36.393 -18.553 -21.722  0.00  0.00    +0.041 C 
ATOM     18  C   UNL     1      33.426 -20.646 -19.882  0.00  0.00    +0.253 C 
ATOM     19  C   UNL     1      34.840 -21.192 -19.836  0.00  0.00    +0.253 C 
ENDBRANCH   7  12
ENDBRANCH   1   7
BRANCH   2  20
ATOM     20  S   UNL     1      32.080 -11.602 -22.329  0.00  0.00    +0.068 S 
ATOM     21  O   UNL     1      32.284 -11.696 -20.898  0.00  0.00    -0.153 OA
ATOM     22  O   UNL     1      30.753 -11.463 -22.887  0.00  0.00    -0.153 OA
BRANCH  20  25
ATOM     23  F   UNL     1      31.896  -8.732 -21.541  0.00  0.00    -0.203 F 
ATOM     24  F   UNL     1      34.278 -11.740 -24.339  0.00  0.00    -0.203 F 
ATOM     25  C   UNL     1      33.065 -10.265 -22.927  0.00  0.00    +0.177 C 
ATOM     26  C   UNL     1      32.849  -8.972 -22.452  0.00  0.00    +0.161 C 
ATOM     27  C   UNL     1      34.061 -10.502 -23.875  0.00  0.00    +0.161 C 
ATOM     28  C   UNL     1      33.627  -7.915 -22.924  0.00  0.00    +0.031 C 
ATOM     29  C   UNL     1      34.840  -9.446 -24.348  0.00  0.00    +0.031 C 
ATOM     30  C   UNL     1      34.623  -8.152 -23.872  0.00  0.00    +0.005 C 
ENDBRANCH  20  25
ENDBRANCH   2  20
TORSDOF 4
ENDMDL
MODEL 6
REMARK VINA RESULT:      -9.4      5.164      8.080
REMARK  Name = 25210493
REMARK  4 active torsions:
REMARK  status: ('A' for Active; 'I' for Inactive)
REMARK    1  A    between atoms: N_1  and  S_7
REMARK    2  A    between atoms: N_2  and  S_20
REMARK    3  A    between atoms: S_7  and  C_12
REMARK    4  A    between atoms: S_20  and  C_25
REMARK                            x       y       z     vdW  Elec       q    Type
REMARK                         _______ _______ _______ _____ _____    ______ ____
ROOT
ATOM      1  N   UNL     1      33.735 -15.426 -23.769  0.00  0.00    -0.153 NA
ATOM      2  N   UNL     1      32.795 -12.891 -22.843  0.00  0.00    -0.152 NA
ATOM      3  C   UNL     1      34.456 -14.701 -22.682  0.00  0.00    +0.115 C 
ATOM      4  C   UNL     1      33.062 -14.479 -24.706  0.00  0.00    +0.115 C 
ATOM      5  C   UNL     1      33.468 -13.837 -21.906  0.00  0.00    +0.115 C 
ATOM      6  C   UNL     1      32.074 -13.615 -23.930  0.00  0.00    +0.115 C 
ENDROOT
BRANCH   1   7
ATOM      7  S   UNL     1      34.613 -16.694 -24.514  0.00  0.00    +0.063 S 
ATOM      8  O   UNL     1      35.912 -16.198 -24.913  0.00  0.00    -0.153 OA
ATOM      9  O   UNL     1      33.750 -17.372 -25.456  0.00  0.00    -0.153 OA
BRANCH   7  12
ATOM     10  O   UNL     1      32.895 -20.114 -21.145  0.00  0.00    -0.468 OA
ATOM     11  O   UNL     1      35.480 -20.283 -19.881  0.00  0.00    -0.468 OA
ATOM     12  C   UNL     1      34.847 -17.762 -23.127  0.00  0.00    +0.125 C 
ATOM     13  C   UNL     1      33.791 -18.547 -22.666  0.00  0.00    +0.060 C 
ATOM     14  C   UNL     1      36.089 -17.816 -22.491  0.00  0.00    +0.023 C 
ATOM     15  C   UNL     1      33.976 -19.384 -21.565  0.00  0.00    +0.174 C 
ATOM     16  C   UNL     1      35.227 -19.456 -20.945  0.00  0.00    +0.172 C 
ATOM     17  C   UNL     1      36.279 -18.661 -21.398  0.00  0.00    +0.041 C 
ATOM     18  C   UNL     1      33.091 -20.653 -19.835  0.00  0.00    +0.253 C 
ATOM     19  C   UNL     1      34.468 -21.280 -19.726  0.00  0.00    +0.253 C 
ENDBRANCH   7  12
ENDBRANCH   1   7
BRANCH   2  20
ATOM     20  S   UNL     1      31.916 -11.622 -22.098  0.00  0.00    +0.068 S 
ATOM     21  O   UNL     1      32.077 -11.717 -20.662  0.00  0.00    -0.153 OA
ATOM     22  O   UNL     1      30.604 -11.544 -22.700  0.00  0.00    -0.153 OA
BRANCH  20  25
ATOM     23  F   UNL     1      34.062 -11.605 -24.168  0.00  0.00    -0.203 F 
ATOM     24  F   UNL     1      31.683  -8.799 -21.165  0.00  0.00    -0.203 F 
ATOM     25  C   UNL     1      32.853 -10.232 -22.654  0.00  0.00    +0.177 C 
ATOM     26  C   UNL     1      33.827 -10.397 -23.638  0.00  0.00    +0.161 C 
ATOM     27  C   UNL     1      32.617  -8.969 -22.110  0.00  0.00    +0.161 C 
ATOM     28  C   UNL     1      34.566  -9.299 -24.079  0.00  0.00    +0.031 C 
ATOM     29  C   UNL     1      33.356  -7.871 -22.551  0.00  0.00    +0.031 C 
ATOM     30  C   UNL     1      34.331  -8.036 -23.535  0.00  0.00    +0.005 C 
ENDBRANCH  20  25
ENDBRANCH   2  20
TORSDOF 4
ENDMDL
MODEL 7
REMARK VINA RESULT:      -9.4      4.063      9.431
REMARK  Name = 25210493
REMARK  4 active torsions:
REMARK  status: ('A' for Active; 'I' for Inactive)
REMARK    1  A    between atoms: N_1  and  S_7
REMARK    2  A    between atoms: N_2  and  S_20
REMARK    3  A    between atoms: S_7  and  C_12
REMARK    4  A    between atoms: S_20  and  C_25
REMARK                            x       y       z     vdW  Elec       q    Type
REMARK                         _______ _______ _______ _____ _____    ______ ____
ROOT
ATOM      1  N   UNL     1      34.016 -23.143 -16.564  0.00  0.00    -0.153 NA
ATOM      2  N   UNL     1      35.339 -24.018 -14.186  0.00  0.00    -0.152 NA
ATOM      3  C   UNL     1      33.240 -23.761 -15.448  0.00  0.00    +0.115 C 
ATOM      4  C   UNL     1      35.408 -23.678 -16.624  0.00  0.00    +0.115 C 
ATOM      5  C   UNL     1      33.947 -23.484 -14.126  0.00  0.00    +0.115 C 
ATOM      6  C   UNL     1      36.115 -23.401 -15.302  0.00  0.00    +0.115 C 
ENDROOT
BRANCH   1   7
ATOM      7  S   UNL     1      33.198 -23.058 -18.067  0.00  0.00    +0.063 S 
ATOM      8  O   UNL     1      31.916 -22.415 -17.871  0.00  0.00    -0.153 OA
ATOM      9  O   UNL     1      33.297 -24.340 -18.728  0.00  0.00    -0.153 OA
BRANCH   7  12
ATOM     10  O   UNL     1      33.945 -19.334 -21.467  0.00  0.00    -0.468 OA
ATOM     11  O   UNL     1      36.765 -19.249 -20.871  0.00  0.00    -0.468 OA
ATOM     12  C   UNL     1      34.245 -21.923 -18.922  0.00  0.00    +0.125 C 
ATOM     13  C   UNL     1      33.702 -21.045 -19.861  0.00  0.00    +0.060 C 
ATOM     14  C   UNL     1      35.617 -21.908 -18.661  0.00  0.00    +0.023 C 
ATOM     15  C   UNL     1      34.534 -20.155 -20.541  0.00  0.00    +0.174 C 
ATOM     16  C   UNL     1      35.902 -20.123 -20.260  0.00  0.00    +0.172 C 
ATOM     17  C   UNL     1      36.447 -21.009 -19.331  0.00  0.00    +0.041 C 
ATOM     18  C   UNL     1      34.910 -18.727 -22.332  0.00  0.00    +0.253 C 
ATOM     19  C   UNL     1      36.071 -18.182 -21.523  0.00  0.00    +0.253 C 
ENDBRANCH   7  12
ENDBRANCH   1   7
BRANCH   2  20
ATOM     20  S   UNL     1      36.158 -24.104 -12.682  0.00  0.00    +0.068 S 
ATOM     21  O   UNL     1      35.471 -25.048 -11.826  0.00  0.00    -0.153 OA
ATOM     22  O   UNL     1      36.451 -22.762 -12.231  0.00  0.00    -0.153 OA
BRANCH  20  25
ATOM     23  F   UNL     1      36.491 -26.423 -14.527  0.00  0.00    -0.203 F 
ATOM     24  F   UNL     1      38.920 -23.302 -11.897  0.00  0.00    -0.203 F 
ATOM     25  C   UNL     1      37.673 -24.847 -13.200  0.00  0.00    +0.177 C 
ATOM     26  C   UNL     1      37.654 -25.933 -14.074  0.00  0.00    +0.161 C 
ATOM     27  C   UNL     1      38.890 -24.346 -12.736  0.00  0.00    +0.161 C 
ATOM     28  C   UNL     1      38.851 -26.520 -14.484  0.00  0.00    +0.031 C 
ATOM     29  C   UNL     1      40.087 -24.933 -13.146  0.00  0.00    +0.031 C 
ATOM     30  C   UNL     1      40.068 -26.020 -14.019  0.00  0.00    +0.005 C 
ENDBRANCH  20  25
ENDBRANCH   2  20
TORSDOF 4
ENDMDL
MODEL 8
REMARK VINA RESULT:      -9.2      3.842      6.472
REMARK  Name = 25210493
REMARK  4 active torsions:
REMARK  status: ('A' for Active; 'I' for Inactive)
REMARK    1  A    between atoms: N_1  and  S_7
REMARK    2  A    between atoms: N_2  and  S_20
REMARK    3  A    between atoms: S_7  and  C_12
REMARK    4  A    between atoms: S_20  and  C_25
REMARK                            x       y       z     vdW  Elec       q    Type
REMARK                         _______ _______ _______ _____ _____    ______ ____
ROOT
ATOM      1  N   UNL     1      34.671 -16.953 -22.823  0.00  0.00    -0.153 NA
ATOM      2  N   UNL     1      33.547 -14.359 -23.244  0.00  0.00    -0.152 NA
ATOM      3  C   UNL     1      34.852 -15.873 -21.808  0.00  0.00    +0.115 C 
ATOM      4  C   UNL     1      34.552 -16.392 -24.202  0.00  0.00    +0.115 C 
ATOM      5  C   UNL     1      33.666 -14.918 -21.866  0.00  0.00    +0.115 C 
ATOM      6  C   UNL     1      33.366 -15.437 -24.260  0.00  0.00    +0.115 C 
ENDROOT
BRANCH   1   7
ATOM      7  S   UNL     1      35.725 -18.294 -22.665  0.00  0.00    +0.063 S 
ATOM      8  O   UNL     1      36.916 -17.878 -21.957  0.00  0.00    -0.153 OA
ATOM      9  O   UNL     1      35.813 -18.974 -23.939  0.00  0.00    -0.153 OA
BRANCH   7  12
ATOM     10  O   UNL     1      35.273 -22.202 -19.424  0.00  0.00    -0.468 OA
ATOM     11  O   UNL     1      32.483 -21.622 -18.990  0.00  0.00    -0.468 OA
ATOM     12  C   UNL     1      34.774 -19.305 -21.574  0.00  0.00    +0.125 C 
ATOM     13  C   UNL     1      35.382 -20.363 -20.898  0.00  0.00    +0.060 C 
ATOM     14  C   UNL     1      33.414 -19.047 -21.393  0.00  0.00    +0.023 C 
ATOM     15  C   UNL     1      34.626 -21.165 -20.043  0.00  0.00    +0.174 C 
ATOM     16  C   UNL     1      33.270 -20.890 -19.842  0.00  0.00    +0.172 C 
ATOM     17  C   UNL     1      32.660 -19.841 -20.529  0.00  0.00    +0.041 C 
ATOM     18  C   UNL     1      34.356 -23.145 -18.862  0.00  0.00    +0.253 C 
ATOM     19  C   UNL     1      33.262 -22.424 -18.099  0.00  0.00    +0.253 C 
ENDBRANCH   7  12
ENDBRANCH   1   7
BRANCH   2  20
ATOM     20  S   UNL     1      32.492 -13.016 -23.402  0.00  0.00    +0.068 S 
ATOM     21  O   UNL     1      32.212 -12.480 -22.087  0.00  0.00    -0.153 OA
ATOM     22  O   UNL     1      31.422 -13.366 -24.310  0.00  0.00    -0.153 OA
BRANCH  20  25
ATOM     23  F   UNL     1      33.755 -13.359 -26.082  0.00  0.00    -0.203 F 
ATOM     24  F   UNL     1      33.413 -10.356 -22.418  0.00  0.00    -0.203 F 
ATOM     25  C   UNL     1      33.562 -11.883 -24.232  0.00  0.00    +0.177 C 
ATOM     26  C   UNL     1      34.070 -12.198 -25.491  0.00  0.00    +0.161 C 
ATOM     27  C   UNL     1      33.896 -10.671 -23.627  0.00  0.00    +0.161 C 
ATOM     28  C   UNL     1      34.914 -11.302 -26.147  0.00  0.00    +0.031 C 
ATOM     29  C   UNL     1      34.741  -9.774 -24.283  0.00  0.00    +0.031 C 
ATOM     30  C   UNL     1      35.250 -10.090 -25.543  0.00  0.00    +0.005 C 
ENDBRANCH  20  25
ENDBRANCH   2  20
TORSDOF 4
ENDMDL
MODEL 9
REMARK VINA RESULT:      -9.1      7.365     11.206
REMARK  Name = 25210493
REMARK  4 active torsions:
REMARK  status: ('A' for Active; 'I' for Inactive)
REMARK    1  A    between atoms: N_1  and  S_7
REMARK    2  A    between atoms: N_2  and  S_20
REMARK    3  A    between atoms: S_7  and  C_12
REMARK    4  A    between atoms: S_20  and  C_25
REMARK                            x       y       z     vdW  Elec       q    Type
REMARK                         _______ _______ _______ _____ _____    ______ ____
ROOT
ATOM      1  N   UNL     1      33.644 -12.201 -25.174  0.00  0.00    -0.153 NA
ATOM      2  N   UNL     1      33.638  -9.595 -24.000  0.00  0.00    -0.152 NA
ATOM      3  C   UNL     1      34.409 -11.084 -25.803  0.00  0.00    +0.115 C 
ATOM      4  C   UNL     1      32.440 -11.699 -24.448  0.00  0.00    +0.115 C 
ATOM      5  C   UNL     1      34.842 -10.097 -24.726  0.00  0.00    +0.115 C 
ATOM      6  C   UNL     1      32.873 -10.711 -23.371  0.00  0.00    +0.115 C 
ENDROOT
BRANCH   1   7
ATOM      7  S   UNL     1      33.380 -13.566 -26.175  0.00  0.00    +0.063 S 
ATOM      8  O   UNL     1      34.334 -13.545 -27.263  0.00  0.00    -0.153 OA
ATOM      9  O   UNL     1      31.962 -13.696 -26.427  0.00  0.00    -0.153 OA
BRANCH   7  12
ATOM     10  O   UNL     1      34.194 -15.370 -21.477  0.00  0.00    -0.468 OA
ATOM     11  O   UNL     1      34.948 -17.952 -22.515  0.00  0.00    -0.468 OA
ATOM     12  C   UNL     1      33.855 -14.856 -25.067  0.00  0.00    +0.125 C 
ATOM     13  C   UNL     1      33.832 -14.635 -23.690  0.00  0.00    +0.060 C 
ATOM     14  C   UNL     1      34.256 -16.095 -25.572  0.00  0.00    +0.023 C 
ATOM     15  C   UNL     1      34.216 -15.654 -22.818  0.00  0.00    +0.174 C 
ATOM     16  C   UNL     1      34.593 -16.902 -23.322  0.00  0.00    +0.172 C 
ATOM     17  C   UNL     1      34.628 -17.118 -24.699  0.00  0.00    +0.041 C 
ATOM     18  C   UNL     1      34.921 -16.338 -20.715  0.00  0.00    +0.253 C 
ATOM     19  C   UNL     1      34.551 -17.741 -21.158  0.00  0.00    +0.253 C 
ENDBRANCH   7  12
ENDBRANCH   1   7
BRANCH   2  20
ATOM     20  S   UNL     1      33.902  -8.229 -22.999  0.00  0.00    +0.068 S 
ATOM     21  O   UNL     1      35.293  -7.840 -23.089  0.00  0.00    -0.153 OA
ATOM     22  O   UNL     1      33.272  -8.460 -21.717  0.00  0.00    -0.153 OA
BRANCH  20  25
ATOM     23  F   UNL     1      31.006  -7.621 -22.633  0.00  0.00    -0.203 F 
ATOM     24  F   UNL     1      34.846  -6.375 -25.134  0.00  0.00    -0.203 F 
ATOM     25  C   UNL     1      32.946  -7.024 -23.865  0.00  0.00    +0.177 C 
ATOM     26  C   UNL     1      31.593  -6.865 -23.571  0.00  0.00    +0.161 C 
ATOM     27  C   UNL     1      33.546  -6.231 -24.844  0.00  0.00    +0.161 C 
ATOM     28  C   UNL     1      30.838  -5.912 -24.255  0.00  0.00    +0.031 C 
ATOM     29  C   UNL     1      32.791  -5.278 -25.528  0.00  0.00    +0.031 C 
ATOM     30  C   UNL     1      31.437  -5.119 -25.234  0.00  0.00    +0.005 C 
ENDBRANCH  20  25
ENDBRANCH   2  20
TORSDOF 4
ENDMDL
