MODEL 1
REMARK VINA RESULT:      -4.9      0.000      0.000
REMARK  Name = 5288719
REMARK  5 active torsions:
REMARK  status: ('A' for Active; 'I' for Inactive)
REMARK    1  A    between atoms: CA_1  and  N_2
REMARK    2  A    between atoms: CA_1  and  C_7
REMARK    3  A    between atoms: CA_1  and  C_8
REMARK    4  A    between atoms: C_8  and  C_9
REMARK    5  A    between atoms: C_9  and  C_10
REMARK                            x       y       z     vdW  Elec       q    Type
REMARK                         _______ _______ _______ _____ _____    ______ ____
ROOT
ATOM      1  CA  UNL     1      35.337 -18.205 -23.800  0.00  0.00    +0.001 C 
ENDROOT
BRANCH   1   2
ATOM      2  N   UNL     1      35.674 -16.951 -23.138  0.00  0.00    +0.387 N 
ATOM      3  H1  UNL     1      36.115 -17.148 -22.239  0.00  0.00    -0.089 HD
ATOM      4  H2  UNL     1      34.825 -16.407 -22.987  0.00  0.00    -0.089 HD
ATOM      5  H3  UNL     1      36.319 -16.419 -23.722  0.00  0.00    -0.089 HD
ENDBRANCH   1   2
BRANCH   1   7
ATOM      6  O   UNL     1      34.719 -16.998 -25.826  0.00  0.00    -0.291 OA
ATOM      7  C   UNL     1      34.503 -17.905 -25.029  0.00  0.00    +0.185 C 
ENDBRANCH   1   7
BRANCH   1   8
ATOM      8  C   UNL     1      34.606 -19.179 -22.866  0.00  0.00    -0.014 C 
BRANCH   8   9
ATOM      9  C   UNL     1      34.985 -19.046 -21.385  0.00  0.00    -0.002 C 
BRANCH   9  10
ATOM     10  C   UNL     1      34.374 -20.178 -20.556  0.00  0.00    -0.000 C 
ATOM     11  C   UNL     1      32.857 -20.087 -20.520  0.00  0.00    -0.000 C 
ENDBRANCH   9  10
ENDBRANCH   8   9
ENDBRANCH   1   8
TORSDOF 5
ENDMDL
MODEL 2
REMARK VINA RESULT:      -4.7      2.521      2.730
REMARK  Name = 5288719
REMARK  5 active torsions:
REMARK  status: ('A' for Active; 'I' for Inactive)
REMARK    1  A    between atoms: CA_1  and  N_2
REMARK    2  A    between atoms: CA_1  and  C_7
REMARK    3  A    between atoms: CA_1  and  C_8
REMARK    4  A    between atoms: C_8  and  C_9
REMARK    5  A    between atoms: C_9  and  C_10
REMARK                            x       y       z     vdW  Elec       q    Type
REMARK                         _______ _______ _______ _____ _____    ______ ____
ROOT
ATOM      1  CA  UNL     1      34.965 -17.333 -22.140  0.00  0.00    +0.001 C 
ENDROOT
BRANCH   1   2
ATOM      2  N   UNL     1      35.633 -17.007 -23.394  0.00  0.00    +0.387 N 
ATOM      3  H1  UNL     1      35.595 -15.998 -23.547  0.00  0.00    -0.089 HD
ATOM      4  H2  UNL     1      35.164 -17.484 -24.163  0.00  0.00    -0.089 HD
ATOM      5  H3  UNL     1      36.606 -17.307 -23.349  0.00  0.00    -0.089 HD
ENDBRANCH   1   2
BRANCH   1   7
ATOM      6  O   UNL     1      34.952 -15.767 -20.272  0.00  0.00    -0.291 OA
ATOM      7  C   UNL     1      34.615 -16.047 -21.417  0.00  0.00    +0.185 C 
ENDBRANCH   1   7
BRANCH   1   8
ATOM      8  C   UNL     1      35.814 -18.249 -21.248  0.00  0.00    -0.014 C 
BRANCH   8   9
ATOM      9  C   UNL     1      35.183 -19.618 -20.957  0.00  0.00    -0.002 C 
BRANCH   9  10
ATOM     10  C   UNL     1      33.669 -19.585 -21.181  0.00  0.00    -0.000 C 
ATOM     11  C   UNL     1      32.935 -20.424 -20.148  0.00  0.00    -0.000 C 
ENDBRANCH   9  10
ENDBRANCH   8   9
ENDBRANCH   1   8
TORSDOF 5
ENDMDL
MODEL 3
REMARK VINA RESULT:      -4.6      4.399      5.646
REMARK  Name = 5288719
REMARK  5 active torsions:
REMARK  status: ('A' for Active; 'I' for Inactive)
REMARK    1  A    between atoms: CA_1  and  N_2
REMARK    2  A    between atoms: CA_1  and  C_7
REMARK    3  A    between atoms: CA_1  and  C_8
REMARK    4  A    between atoms: C_8  and  C_9
REMARK    5  A    between atoms: C_9  and  C_10
REMARK                            x       y       z     vdW  Elec       q    Type
REMARK                         _______ _______ _______ _____ _____    ______ ____
ROOT
ATOM      1  CA  UNL     1      33.581 -21.759 -19.727  0.00  0.00    +0.001 C 
ENDROOT
BRANCH   1   2
ATOM      2  N   UNL     1      32.667 -22.133 -18.655  0.00  0.00    +0.387 N 
ATOM      3  H1  UNL     1      33.038 -21.808 -17.762  0.00  0.00    -0.089 HD
ATOM      4  H2  UNL     1      32.567 -23.147 -18.631  0.00  0.00    -0.089 HD
ATOM      5  H3  UNL     1      31.756 -21.706 -18.820  0.00  0.00    -0.089 HD
ENDBRANCH   1   2
BRANCH   1   7
ATOM      6  O   UNL     1      35.375 -22.447 -18.227  0.00  0.00    -0.291 OA
ATOM      7  C   UNL     1      35.002 -21.803 -19.201  0.00  0.00    +0.185 C 
ENDBRANCH   1   7
BRANCH   1   8
ATOM      8  C   UNL     1      33.257 -20.379 -20.314  0.00  0.00    -0.014 C 
BRANCH   8   9
ATOM      9  C   UNL     1      34.482 -19.584 -20.786  0.00  0.00    -0.002 C 
BRANCH   9  10
ATOM     10  C   UNL     1      34.447 -19.364 -22.300  0.00  0.00    -0.000 C 
ATOM     11  C   UNL     1      35.572 -18.449 -22.757  0.00  0.00    -0.000 C 
ENDBRANCH   9  10
ENDBRANCH   8   9
ENDBRANCH   1   8
TORSDOF 5
ENDMDL
MODEL 4
REMARK VINA RESULT:      -4.5      2.639      3.240
REMARK  Name = 5288719
REMARK  5 active torsions:
REMARK  status: ('A' for Active; 'I' for Inactive)
REMARK    1  A    between atoms: CA_1  and  N_2
REMARK    2  A    between atoms: CA_1  and  C_7
REMARK    3  A    between atoms: CA_1  and  C_8
REMARK    4  A    between atoms: C_8  and  C_9
REMARK    5  A    between atoms: C_9  and  C_10
REMARK                            x       y       z     vdW  Elec       q    Type
REMARK                         _______ _______ _______ _____ _____    ______ ____
ROOT
ATOM      1  CA  UNL     1      34.393 -18.795 -21.592  0.00  0.00    +0.001 C 
ENDROOT
BRANCH   1   2
ATOM      2  N   UNL     1      34.609 -19.091 -23.003  0.00  0.00    +0.387 N 
ATOM      3  H1  UNL     1      34.071 -19.919 -23.263  0.00  0.00    -0.089 HD
ATOM      4  H2  UNL     1      35.600 -19.265 -23.167  0.00  0.00    -0.089 HD
ATOM      5  H3  UNL     1      34.304 -18.299 -23.568  0.00  0.00    -0.089 HD
ENDBRANCH   1   2
BRANCH   1   7
ATOM      6  O   UNL     1      35.070 -16.717 -20.513  0.00  0.00    -0.291 OA
ATOM      7  C   UNL     1      35.365 -17.716 -21.160  0.00  0.00    +0.185 C 
ENDBRANCH   1   7
BRANCH   1   8
ATOM      8  C   UNL     1      34.530 -20.042 -20.708  0.00  0.00    -0.014 C 
BRANCH   8   9
ATOM      9  C   UNL     1      33.206 -20.559 -20.127  0.00  0.00    -0.002 C 
BRANCH   9  10
ATOM     10  C   UNL     1      33.438 -21.770 -19.220  0.00  0.00    -0.000 C 
ATOM     11  C   UNL     1      34.919 -22.073 -19.063  0.00  0.00    -0.000 C 
ENDBRANCH   9  10
ENDBRANCH   8   9
ENDBRANCH   1   8
TORSDOF 5
ENDMDL
MODEL 5
REMARK VINA RESULT:      -4.5      2.852      4.028
REMARK  Name = 5288719
REMARK  5 active torsions:
REMARK  status: ('A' for Active; 'I' for Inactive)
REMARK    1  A    between atoms: CA_1  and  N_2
REMARK    2  A    between atoms: CA_1  and  C_7
REMARK    3  A    between atoms: CA_1  and  C_8
REMARK    4  A    between atoms: C_8  and  C_9
REMARK    5  A    between atoms: C_9  and  C_10
REMARK                            x       y       z     vdW  Elec       q    Type
REMARK                         _______ _______ _______ _____ _____    ______ ____
ROOT
ATOM      1  CA  UNL     1      35.338 -18.097 -21.358  0.00  0.00    +0.001 C 
ENDROOT
BRANCH   1   2
ATOM      2  N   UNL     1      34.282 -19.019 -20.959  0.00  0.00    +0.387 N 
ATOM      3  H1  UNL     1      34.129 -18.946 -19.952  0.00  0.00    -0.089 HD
ATOM      4  H2  UNL     1      34.557 -19.973 -21.191  0.00  0.00    -0.089 HD
ATOM      5  H3  UNL     1      33.420 -18.784 -21.451  0.00  0.00    -0.089 HD
ENDBRANCH   1   2
BRANCH   1   7
ATOM      6  O   UNL     1      35.018 -16.056 -20.065  0.00  0.00    -0.291 OA
ATOM      7  C   UNL     1      34.872 -16.676 -21.113  0.00  0.00    +0.185 C 
ENDBRANCH   1   7
BRANCH   1   8
ATOM      8  C   UNL     1      35.758 -18.291 -22.821  0.00  0.00    -0.014 C 
BRANCH   8   9
ATOM      9  C   UNL     1      34.825 -19.197 -23.637  0.00  0.00    -0.002 C 
BRANCH   9  10
ATOM     10  C   UNL     1      34.422 -18.529 -24.953  0.00  0.00    -0.000 C 
ATOM     11  C   UNL     1      34.747 -17.044 -24.948  0.00  0.00    -0.000 C 
ENDBRANCH   9  10
ENDBRANCH   8   9
ENDBRANCH   1   8
TORSDOF 5
ENDMDL
MODEL 6
REMARK VINA RESULT:      -4.4      1.988      2.844
REMARK  Name = 5288719
REMARK  5 active torsions:
REMARK  status: ('A' for Active; 'I' for Inactive)
REMARK    1  A    between atoms: CA_1  and  N_2
REMARK    2  A    between atoms: CA_1  and  C_7
REMARK    3  A    between atoms: CA_1  and  C_8
REMARK    4  A    between atoms: C_8  and  C_9
REMARK    5  A    between atoms: C_9  and  C_10
REMARK                            x       y       z     vdW  Elec       q    Type
REMARK                         _______ _______ _______ _____ _____    ______ ____
ROOT
ATOM      1  CA  UNL     1      35.059 -19.145 -21.374  0.00  0.00    +0.001 C 
ENDROOT
BRANCH   1   2
ATOM      2  N   UNL     1      35.325 -17.834 -20.795  0.00  0.00    +0.387 N 
ATOM      3  H1  UNL     1      35.780 -17.949 -19.889  0.00  0.00    -0.089 HD
ATOM      4  H2  UNL     1      34.447 -17.332 -20.672  0.00  0.00    -0.089 HD
ATOM      5  H3  UNL     1      35.936 -17.304 -21.417  0.00  0.00    -0.089 HD
ENDBRANCH   1   2
BRANCH   1   7
ATOM      6  O   UNL     1      35.478 -18.824 -23.754  0.00  0.00    -0.291 OA
ATOM      7  C   UNL     1      34.683 -18.974 -22.832  0.00  0.00    +0.185 C 
ENDBRANCH   1   7
BRANCH   1   8
ATOM      8  C   UNL     1      33.967 -19.908 -20.613  0.00  0.00    -0.014 C 
BRANCH   8   9
ATOM      9  C   UNL     1      34.469 -21.132 -19.835  0.00  0.00    -0.002 C 
BRANCH   9  10
ATOM     10  C   UNL     1      35.999 -21.181 -19.813  0.00  0.00    -0.000 C 
ATOM     11  C   UNL     1      36.523 -21.590 -18.446  0.00  0.00    -0.000 C 
ENDBRANCH   9  10
ENDBRANCH   8   9
ENDBRANCH   1   8
TORSDOF 5
ENDMDL
MODEL 7
REMARK VINA RESULT:      -4.4      3.131      3.487
REMARK  Name = 5288719
REMARK  5 active torsions:
REMARK  status: ('A' for Active; 'I' for Inactive)
REMARK    1  A    between atoms: CA_1  and  N_2
REMARK    2  A    between atoms: CA_1  and  C_7
REMARK    3  A    between atoms: CA_1  and  C_8
REMARK    4  A    between atoms: C_8  and  C_9
REMARK    5  A    between atoms: C_9  and  C_10
REMARK                            x       y       z     vdW  Elec       q    Type
REMARK                         _______ _______ _______ _____ _____    ______ ____
ROOT
ATOM      1  CA  UNL     1      34.097 -16.087 -24.295  0.00  0.00    +0.001 C 
ENDROOT
BRANCH   1   2
ATOM      2  N   UNL     1      35.205 -16.833 -24.878  0.00  0.00    +0.387 N 
ATOM      3  H1  UNL     1      36.088 -16.463 -24.525  0.00  0.00    -0.089 HD
ATOM      4  H2  UNL     1      35.180 -16.741 -25.893  0.00  0.00    -0.089 HD
ATOM      5  H3  UNL     1      35.123 -17.818 -24.625  0.00  0.00    -0.089 HD
ENDBRANCH   1   2
BRANCH   1   7
ATOM      6  O   UNL     1      33.625 -15.359 -26.572  0.00  0.00    -0.291 OA
ATOM      7  C   UNL     1      33.471 -15.215 -25.364  0.00  0.00    +0.185 C 
ENDBRANCH   1   7
BRANCH   1   8
ATOM      8  C   UNL     1      34.533 -15.246 -23.088  0.00  0.00    -0.014 C 
BRANCH   8   9
ATOM      9  C   UNL     1      34.767 -16.050 -21.802  0.00  0.00    -0.002 C 
BRANCH   9  10
ATOM     10  C   UNL     1      34.380 -15.237 -20.565  0.00  0.00    -0.000 C 
ATOM     11  C   UNL     1      32.879 -15.010 -20.493  0.00  0.00    -0.000 C 
ENDBRANCH   9  10
ENDBRANCH   8   9
ENDBRANCH   1   8
TORSDOF 5
ENDMDL
MODEL 8
REMARK VINA RESULT:      -4.4     10.544     11.517
REMARK  Name = 5288719
REMARK  5 active torsions:
REMARK  status: ('A' for Active; 'I' for Inactive)
REMARK    1  A    between atoms: CA_1  and  N_2
REMARK    2  A    between atoms: CA_1  and  C_7
REMARK    3  A    between atoms: CA_1  and  C_8
REMARK    4  A    between atoms: C_8  and  C_9
REMARK    5  A    between atoms: C_9  and  C_10
REMARK                            x       y       z     vdW  Elec       q    Type
REMARK                         _______ _______ _______ _____ _____    ______ ____
ROOT
ATOM      1  CA  UNL     1      32.137  -8.305 -20.470  0.00  0.00    +0.001 C 
ENDROOT
BRANCH   1   2
ATOM      2  N   UNL     1      33.135  -7.561 -19.710  0.00  0.00    +0.387 N 
ATOM      3  H1  UNL     1      33.006  -7.740 -18.714  0.00  0.00    -0.089 HD
ATOM      4  H2  UNL     1      33.028  -6.564 -19.893  0.00  0.00    -0.089 HD
ATOM      5  H3  UNL     1      34.069  -7.861 -19.990  0.00  0.00    -0.089 HD
ENDBRANCH   1   2
BRANCH   1   7
ATOM      6  O   UNL     1      32.226  -9.980 -18.702  0.00  0.00    -0.291 OA
ATOM      7  C   UNL     1      31.988  -9.688 -19.869  0.00  0.00    +0.185 C 
ENDBRANCH   1   7
BRANCH   1   8
ATOM      8  C   UNL     1      32.486  -8.391 -21.962  0.00  0.00    -0.014 C 
BRANCH   8   9
ATOM      9  C   UNL     1      33.212  -7.158 -22.518  0.00  0.00    -0.002 C 
BRANCH   9  10
ATOM     10  C   UNL     1      34.472  -7.561 -23.287  0.00  0.00    -0.000 C 
ATOM     11  C   UNL     1      34.547  -6.866 -24.637  0.00  0.00    -0.000 C 
ENDBRANCH   9  10
ENDBRANCH   8   9
ENDBRANCH   1   8
TORSDOF 5
ENDMDL
MODEL 9
REMARK VINA RESULT:      -4.4      2.748      4.361
REMARK  Name = 5288719
REMARK  5 active torsions:
REMARK  status: ('A' for Active; 'I' for Inactive)
REMARK    1  A    between atoms: CA_1  and  N_2
REMARK    2  A    between atoms: CA_1  and  C_7
REMARK    3  A    between atoms: CA_1  and  C_8
REMARK    4  A    between atoms: C_8  and  C_9
REMARK    5  A    between atoms: C_9  and  C_10
REMARK                            x       y       z     vdW  Elec       q    Type
REMARK                         _______ _______ _______ _____ _____    ______ ____
ROOT
ATOM      1  CA  UNL     1      34.541 -19.248 -21.013  0.00  0.00    +0.001 C 
ENDROOT
BRANCH   1   2
ATOM      2  N   UNL     1      35.894 -19.348 -20.480  0.00  0.00    +0.387 N 
ATOM      3  H1  UNL     1      36.443 -19.980 -21.063  0.00  0.00    -0.089 HD
ATOM      4  H2  UNL     1      35.858 -19.710 -19.527  0.00  0.00    -0.089 HD
ATOM      5  H3  UNL     1      36.328 -18.426 -20.477  0.00  0.00    -0.089 HD
ENDBRANCH   1   2
BRANCH   1   7
ATOM      6  O   UNL     1      32.516 -20.566 -20.691  0.00  0.00    -0.291 OA
ATOM      7  C   UNL     1      33.694 -20.358 -20.424  0.00  0.00    +0.185 C 
ENDBRANCH   1   7
BRANCH   1   8
ATOM      8  C   UNL     1      34.514 -19.294 -22.547  0.00  0.00    -0.014 C 
BRANCH   8   9
ATOM      9  C   UNL     1      35.567 -18.409 -23.229  0.00  0.00    -0.002 C 
BRANCH   9  10
ATOM     10  C   UNL     1      34.960 -17.077 -23.676  0.00  0.00    -0.000 C 
ATOM     11  C   UNL     1      34.672 -17.069 -25.169  0.00  0.00    -0.000 C 
ENDBRANCH   9  10
ENDBRANCH   8   9
ENDBRANCH   1   8
TORSDOF 5
ENDMDL
