MODEL 1
REMARK VINA RESULT:      -5.6      0.000      0.000
REMARK  Name = 445052
REMARK  9 active torsions:
REMARK  status: ('A' for Active; 'I' for Inactive)
REMARK    1  A    between atoms: C_1  and  O_2
REMARK    2  A    between atoms: C_1  and  C_4
REMARK    3  A    between atoms: C_1  and  C_11
REMARK    4  A    between atoms: C_4  and  O_5
REMARK    5  A    between atoms: C_4  and  C_7
REMARK    6  A    between atoms: C_7  and  O_9
REMARK    7  A    between atoms: C_11  and  O_12
REMARK    8  A    between atoms: C_11  and  C_14
REMARK    9  A    between atoms: C_14  and  O_15
REMARK                            x       y       z     vdW  Elec       q    Type
REMARK                         _______ _______ _______ _____ _____    ______ ____
ROOT
ATOM      1  C   UNL     1      37.409 -25.759 -13.462  0.00  0.00    +0.169 C 
ENDROOT
BRANCH   1   2
ATOM      2  O   UNL     1      36.820 -26.923 -12.868  0.00  0.00    -0.379 OA
ATOM      3  H   UNL     1      36.855 -27.660 -13.496  0.00  0.00    +0.211 HD
ENDBRANCH   1   2
BRANCH   1   4
ATOM      4  C   UNL     1      36.275 -24.834 -13.940  0.00  0.00    +0.166 C 
BRANCH   4   5
ATOM      5  O   UNL     1      35.272 -25.645 -14.561  0.00  0.00    -0.379 OA
ATOM      6  H   UNL     1      34.522 -25.753 -13.954  0.00  0.00    +0.211 HD
ENDBRANCH   4   5
BRANCH   4   7
ATOM      7  C   UNL     1      35.604 -24.015 -12.822  0.00  0.00    +0.140 C 
ATOM      8  C   UNL     1      36.592 -23.291 -11.918  0.00  0.00    +0.034 C 
BRANCH   7   9
ATOM      9  O   UNL     1      34.856 -24.905 -11.988  0.00  0.00    -0.382 OA
ATOM     10  H   UNL     1      35.454 -25.335 -11.356  0.00  0.00    +0.210 HD
ENDBRANCH   7   9
ENDBRANCH   4   7
ENDBRANCH   1   4
BRANCH   1  11
ATOM     11  C   UNL     1      38.362 -26.231 -14.577  0.00  0.00    +0.169 C 
BRANCH  11  12
ATOM     12  O   UNL     1      37.569 -26.402 -15.759  0.00  0.00    -0.379 OA
ATOM     13  H   UNL     1      37.820 -25.735 -16.416  0.00  0.00    +0.211 HD
ENDBRANCH  11  12
BRANCH  11  14
ATOM     14  C   UNL     1      39.500 -25.266 -14.901  0.00  0.00    +0.169 C 
BRANCH  14  15
ATOM     15  O   UNL     1      40.330 -25.810 -15.921  0.00  0.00    -0.379 OA
ATOM     16  H   UNL     1      39.854 -25.795 -16.766  0.00  0.00    +0.211 HD
ENDBRANCH  14  15
ENDBRANCH  11  14
ENDBRANCH   1  11
TORSDOF 9
ENDMDL
MODEL 2
REMARK VINA RESULT:      -5.5      1.999      2.383
REMARK  Name = 445052
REMARK  9 active torsions:
REMARK  status: ('A' for Active; 'I' for Inactive)
REMARK    1  A    between atoms: C_1  and  O_2
REMARK    2  A    between atoms: C_1  and  C_4
REMARK    3  A    between atoms: C_1  and  C_11
REMARK    4  A    between atoms: C_4  and  O_5
REMARK    5  A    between atoms: C_4  and  C_7
REMARK    6  A    between atoms: C_7  and  O_9
REMARK    7  A    between atoms: C_11  and  O_12
REMARK    8  A    between atoms: C_11  and  C_14
REMARK    9  A    between atoms: C_14  and  O_15
REMARK                            x       y       z     vdW  Elec       q    Type
REMARK                         _______ _______ _______ _____ _____    ______ ____
ROOT
ATOM      1  C   UNL     1      37.679 -24.194 -14.923  0.00  0.00    +0.169 C 
ENDROOT
BRANCH   1   2
ATOM      2  O   UNL     1      38.500 -23.403 -15.793  0.00  0.00    -0.379 OA
ATOM      3  H   UNL     1      38.729 -22.570 -15.352  0.00  0.00    +0.211 HD
ENDBRANCH   1   2
BRANCH   1   4
ATOM      4  C   UNL     1      37.284 -23.328 -13.713  0.00  0.00    +0.166 C 
BRANCH   4   5
ATOM      5  O   UNL     1      35.872 -23.094 -13.776  0.00  0.00    -0.379 OA
ATOM      6  H   UNL     1      35.688 -22.401 -14.430  0.00  0.00    +0.211 HD
ENDBRANCH   4   5
BRANCH   4   7
ATOM      7  C   UNL     1      37.603 -23.959 -12.345  0.00  0.00    +0.140 C 
ATOM      8  C   UNL     1      36.395 -24.067 -11.426  0.00  0.00    +0.034 C 
BRANCH   7   9
ATOM      9  O   UNL     1      38.561 -23.136 -11.672  0.00  0.00    -0.382 OA
ATOM     10  H   UNL     1      39.406 -23.608 -11.611  0.00  0.00    +0.210 HD
ENDBRANCH   7   9
ENDBRANCH   4   7
ENDBRANCH   1   4
BRANCH   1  11
ATOM     11  C   UNL     1      38.466 -25.469 -14.566  0.00  0.00    +0.169 C 
BRANCH  11  12
ATOM     12  O   UNL     1      37.968 -26.517 -15.408  0.00  0.00    -0.379 OA
ATOM     13  H   UNL     1      38.706 -27.073 -15.702  0.00  0.00    +0.211 HD
ENDBRANCH  11  12
BRANCH  11  14
ATOM     14  C   UNL     1      39.976 -25.371 -14.768  0.00  0.00    +0.169 C 
BRANCH  14  15
ATOM     15  O   UNL     1      40.332 -25.863 -16.055  0.00  0.00    -0.379 OA
ATOM     16  H   UNL     1      41.129 -25.407 -16.366  0.00  0.00    +0.211 HD
ENDBRANCH  14  15
ENDBRANCH  11  14
ENDBRANCH   1  11
TORSDOF 9
ENDMDL
MODEL 3
REMARK VINA RESULT:      -5.5      0.923      4.203
REMARK  Name = 445052
REMARK  9 active torsions:
REMARK  status: ('A' for Active; 'I' for Inactive)
REMARK    1  A    between atoms: C_1  and  O_2
REMARK    2  A    between atoms: C_1  and  C_4
REMARK    3  A    between atoms: C_1  and  C_11
REMARK    4  A    between atoms: C_4  and  O_5
REMARK    5  A    between atoms: C_4  and  C_7
REMARK    6  A    between atoms: C_7  and  O_9
REMARK    7  A    between atoms: C_11  and  O_12
REMARK    8  A    between atoms: C_11  and  C_14
REMARK    9  A    between atoms: C_14  and  O_15
REMARK                            x       y       z     vdW  Elec       q    Type
REMARK                         _______ _______ _______ _____ _____    ______ ____
ROOT
ATOM      1  C   UNL     1      36.339 -24.706 -13.637  0.00  0.00    +0.169 C 
ENDROOT
BRANCH   1   2
ATOM      2  O   UNL     1      35.297 -25.380 -14.355  0.00  0.00    -0.379 OA
ATOM      3  H   UNL     1      34.459 -24.908 -14.229  0.00  0.00    +0.211 HD
ENDBRANCH   1   2
BRANCH   1   4
ATOM      4  C   UNL     1      37.435 -25.734 -13.300  0.00  0.00    +0.166 C 
BRANCH   4   5
ATOM      5  O   UNL     1      36.798 -26.915 -12.802  0.00  0.00    -0.379 OA
ATOM      6  H   UNL     1      35.844 -26.865 -12.971  0.00  0.00    +0.211 HD
ENDBRANCH   4   5
BRANCH   4   7
ATOM      7  C   UNL     1      38.323 -26.135 -14.492  0.00  0.00    +0.140 C 
ATOM      8  C   UNL     1      39.370 -25.091 -14.853  0.00  0.00    +0.034 C 
BRANCH   7   9
ATOM      9  O   UNL     1      37.493 -26.304 -15.645  0.00  0.00    -0.382 OA
ATOM     10  H   UNL     1      37.195 -25.436 -15.959  0.00  0.00    +0.210 HD
ENDBRANCH   7   9
ENDBRANCH   4   7
ENDBRANCH   1   4
BRANCH   1  11
ATOM     11  C   UNL     1      35.701 -24.026 -12.411  0.00  0.00    +0.169 C 
BRANCH  11  12
ATOM     12  O   UNL     1      34.799 -24.976 -11.829  0.00  0.00    -0.379 OA
ATOM     13  H   UNL     1      35.216 -25.387 -11.056  0.00  0.00    +0.211 HD
ENDBRANCH  11  12
BRANCH  11  14
ATOM     14  C   UNL     1      36.691 -23.587 -11.333  0.00  0.00    +0.169 C 
BRANCH  14  15
ATOM     15  O   UNL     1      36.280 -24.074 -10.061  0.00  0.00    -0.379 OA
ATOM     16  H   UNL     1      36.185 -25.038 -10.100  0.00  0.00    +0.211 HD
ENDBRANCH  14  15
ENDBRANCH  11  14
ENDBRANCH   1  11
TORSDOF 9
ENDMDL
MODEL 4
REMARK VINA RESULT:      -5.4      1.980      2.710
REMARK  Name = 445052
REMARK  9 active torsions:
REMARK  status: ('A' for Active; 'I' for Inactive)
REMARK    1  A    between atoms: C_1  and  O_2
REMARK    2  A    between atoms: C_1  and  C_4
REMARK    3  A    between atoms: C_1  and  C_11
REMARK    4  A    between atoms: C_4  and  O_5
REMARK    5  A    between atoms: C_4  and  C_7
REMARK    6  A    between atoms: C_7  and  O_9
REMARK    7  A    between atoms: C_11  and  O_12
REMARK    8  A    between atoms: C_11  and  C_14
REMARK    9  A    between atoms: C_14  and  O_15
REMARK                            x       y       z     vdW  Elec       q    Type
REMARK                         _______ _______ _______ _____ _____    ______ ____
ROOT
ATOM      1  C   UNL     1      37.904 -24.715 -14.994  0.00  0.00    +0.169 C 
ENDROOT
BRANCH   1   2
ATOM      2  O   UNL     1      38.743 -23.734 -15.619  0.00  0.00    -0.379 OA
ATOM      3  H   UNL     1      39.362 -23.373 -14.966  0.00  0.00    +0.211 HD
ENDBRANCH   1   2
BRANCH   1   4
ATOM      4  C   UNL     1      36.930 -23.986 -14.051  0.00  0.00    +0.166 C 
BRANCH   4   5
ATOM      5  O   UNL     1      37.674 -23.016 -13.306  0.00  0.00    -0.379 OA
ATOM      6  H   UNL     1      38.246 -23.468 -12.665  0.00  0.00    +0.211 HD
ENDBRANCH   4   5
BRANCH   4   7
ATOM      7  C   UNL     1      35.776 -23.258 -14.763  0.00  0.00    +0.140 C 
ATOM      8  C   UNL     1      34.400 -23.811 -14.419  0.00  0.00    +0.034 C 
BRANCH   7   9
ATOM      9  O   UNL     1      35.940 -23.410 -16.176  0.00  0.00    -0.382 OA
ATOM     10  H   UNL     1      36.586 -22.762 -16.499  0.00  0.00    +0.210 HD
ENDBRANCH   7   9
ENDBRANCH   4   7
ENDBRANCH   1   4
BRANCH   1  11
ATOM     11  C   UNL     1      38.819 -25.740 -14.298  0.00  0.00    +0.169 C 
BRANCH  11  12
ATOM     12  O   UNL     1      38.355 -27.041 -14.680  0.00  0.00    -0.379 OA
ATOM     13  H   UNL     1      37.423 -27.138 -14.430  0.00  0.00    +0.211 HD
ENDBRANCH  11  12
BRANCH  11  14
ATOM     14  C   UNL     1      40.298 -25.635 -14.665  0.00  0.00    +0.169 C 
BRANCH  14  15
ATOM     15  O   UNL     1      40.494 -26.001 -16.026  0.00  0.00    -0.379 OA
ATOM     16  H   UNL     1      41.373 -26.397 -16.131  0.00  0.00    +0.211 HD
ENDBRANCH  14  15
ENDBRANCH  11  14
ENDBRANCH   1  11
TORSDOF 9
ENDMDL
MODEL 5
REMARK VINA RESULT:      -5.3      1.963      4.314
REMARK  Name = 445052
REMARK  9 active torsions:
REMARK  status: ('A' for Active; 'I' for Inactive)
REMARK    1  A    between atoms: C_1  and  O_2
REMARK    2  A    between atoms: C_1  and  C_4
REMARK    3  A    between atoms: C_1  and  C_11
REMARK    4  A    between atoms: C_4  and  O_5
REMARK    5  A    between atoms: C_4  and  C_7
REMARK    6  A    between atoms: C_7  and  O_9
REMARK    7  A    between atoms: C_11  and  O_12
REMARK    8  A    between atoms: C_11  and  C_14
REMARK    9  A    between atoms: C_14  and  O_15
REMARK                            x       y       z     vdW  Elec       q    Type
REMARK                         _______ _______ _______ _____ _____    ______ ____
ROOT
ATOM      1  C   UNL     1      37.401 -23.601 -13.681  0.00  0.00    +0.169 C 
ENDROOT
BRANCH   1   2
ATOM      2  O   UNL     1      35.981 -23.548 -13.865  0.00  0.00    -0.379 OA
ATOM      3  H   UNL     1      35.646 -24.437 -14.060  0.00  0.00    +0.211 HD
ENDBRANCH   1   2
BRANCH   1   4
ATOM      4  C   UNL     1      37.983 -24.603 -14.695  0.00  0.00    +0.166 C 
BRANCH   4   5
ATOM      5  O   UNL     1      38.851 -23.887 -15.580  0.00  0.00    -0.379 OA
ATOM      6  H   UNL     1      39.345 -23.219 -15.078  0.00  0.00    +0.211 HD
ENDBRANCH   4   5
BRANCH   4   7
ATOM      7  C   UNL     1      38.788 -25.755 -14.065  0.00  0.00    +0.140 C 
ATOM      8  C   UNL     1      40.286 -25.665 -14.322  0.00  0.00    +0.034 C 
BRANCH   7   9
ATOM      9  O   UNL     1      38.345 -26.990 -14.634  0.00  0.00    -0.382 OA
ATOM     10  H   UNL     1      39.103 -27.462 -15.014  0.00  0.00    +0.210 HD
ENDBRANCH   7   9
ENDBRANCH   4   7
ENDBRANCH   1   4
BRANCH   1  11
ATOM     11  C   UNL     1      37.671 -23.956 -12.206  0.00  0.00    +0.169 C 
BRANCH  11  12
ATOM     12  O   UNL     1      38.403 -22.861 -11.640  0.00  0.00    -0.379 OA
ATOM     13  H   UNL     1      39.335 -22.926 -11.900  0.00  0.00    +0.211 HD
ENDBRANCH  11  12
BRANCH  11  14
ATOM     14  C   UNL     1      36.419 -24.181 -11.360  0.00  0.00    +0.169 C 
BRANCH  14  15
ATOM     15  O   UNL     1      35.923 -25.499 -11.561  0.00  0.00    -0.379 OA
ATOM     16  H   UNL     1      36.191 -25.816 -12.437  0.00  0.00    +0.211 HD
ENDBRANCH  14  15
ENDBRANCH  11  14
ENDBRANCH   1  11
TORSDOF 9
ENDMDL
MODEL 6
REMARK VINA RESULT:      -5.1      2.122      2.860
REMARK  Name = 445052
REMARK  9 active torsions:
REMARK  status: ('A' for Active; 'I' for Inactive)
REMARK    1  A    between atoms: C_1  and  O_2
REMARK    2  A    between atoms: C_1  and  C_4
REMARK    3  A    between atoms: C_1  and  C_11
REMARK    4  A    between atoms: C_4  and  O_5
REMARK    5  A    between atoms: C_4  and  C_7
REMARK    6  A    between atoms: C_7  and  O_9
REMARK    7  A    between atoms: C_11  and  O_12
REMARK    8  A    between atoms: C_11  and  C_14
REMARK    9  A    between atoms: C_14  and  O_15
REMARK                            x       y       z     vdW  Elec       q    Type
REMARK                         _______ _______ _______ _____ _____    ______ ____
ROOT
ATOM      1  C   UNL     1      35.974 -24.578 -13.712  0.00  0.00    +0.169 C 
ENDROOT
BRANCH   1   2
ATOM      2  O   UNL     1      35.757 -25.631 -12.763  0.00  0.00    -0.379 OA
ATOM      3  H   UNL     1      35.267 -25.285 -12.002  0.00  0.00    +0.211 HD
ENDBRANCH   1   2
BRANCH   1   4
ATOM      4  C   UNL     1      34.728 -23.674 -13.724  0.00  0.00    +0.166 C 
BRANCH   4   5
ATOM      5  O   UNL     1      34.993 -22.563 -14.587  0.00  0.00    -0.379 OA
ATOM      6  H   UNL     1      35.853 -22.175 -14.360  0.00  0.00    +0.211 HD
ENDBRANCH   4   5
BRANCH   4   7
ATOM      7  C   UNL     1      33.443 -24.365 -14.215  0.00  0.00    +0.140 C 
ATOM      8  C   UNL     1      32.406 -23.401 -14.774  0.00  0.00    +0.034 C 
BRANCH   7   9
ATOM      9  O   UNL     1      32.830 -25.035 -13.110  0.00  0.00    -0.382 OA
ATOM     10  H   UNL     1      32.477 -25.890 -13.405  0.00  0.00    +0.210 HD
ENDBRANCH   7   9
ENDBRANCH   4   7
ENDBRANCH   1   4
BRANCH   1  11
ATOM     11  C   UNL     1      36.304 -25.228 -15.069  0.00  0.00    +0.169 C 
BRANCH  11  12
ATOM     12  O   UNL     1      37.217 -24.352 -15.741  0.00  0.00    -0.379 OA
ATOM     13  H   UNL     1      38.119 -24.701 -15.663  0.00  0.00    +0.211 HD
ENDBRANCH  11  12
BRANCH  11  14
ATOM     14  C   UNL     1      36.948 -26.611 -14.979  0.00  0.00    +0.169 C 
BRANCH  14  15
ATOM     15  O   UNL     1      36.854 -27.278 -16.232  0.00  0.00    -0.379 OA
ATOM     16  H   UNL     1      37.041 -28.222 -16.110  0.00  0.00    +0.211 HD
ENDBRANCH  14  15
ENDBRANCH  11  14
ENDBRANCH   1  11
TORSDOF 9
ENDMDL
MODEL 7
REMARK VINA RESULT:      -5.1      2.346      3.362
REMARK  Name = 445052
REMARK  9 active torsions:
REMARK  status: ('A' for Active; 'I' for Inactive)
REMARK    1  A    between atoms: C_1  and  O_2
REMARK    2  A    between atoms: C_1  and  C_4
REMARK    3  A    between atoms: C_1  and  C_11
REMARK    4  A    between atoms: C_4  and  O_5
REMARK    5  A    between atoms: C_4  and  C_7
REMARK    6  A    between atoms: C_7  and  O_9
REMARK    7  A    between atoms: C_11  and  O_12
REMARK    8  A    between atoms: C_11  and  C_14
REMARK    9  A    between atoms: C_14  and  O_15
REMARK                            x       y       z     vdW  Elec       q    Type
REMARK                         _______ _______ _______ _____ _____    ______ ____
ROOT
ATOM      1  C   UNL     1      35.666 -24.144 -12.903  0.00  0.00    +0.169 C 
ENDROOT
BRANCH   1   2
ATOM      2  O   UNL     1      34.383 -24.707 -12.598  0.00  0.00    -0.379 OA
ATOM      3  H   UNL     1      33.982 -25.056 -13.409  0.00  0.00    +0.211 HD
ENDBRANCH   1   2
BRANCH   1   4
ATOM      4  C   UNL     1      36.011 -24.491 -14.363  0.00  0.00    +0.166 C 
BRANCH   4   5
ATOM      5  O   UNL     1      35.391 -25.742 -14.680  0.00  0.00    -0.379 OA
ATOM      6  H   UNL     1      34.488 -25.584 -14.998  0.00  0.00    +0.211 HD
ENDBRANCH   4   5
BRANCH   4   7
ATOM      7  C   UNL     1      35.542 -23.449 -15.395  0.00  0.00    +0.140 C 
ATOM      8  C   UNL     1      36.670 -22.592 -15.953  0.00  0.00    +0.034 C 
BRANCH   7   9
ATOM      9  O   UNL     1      34.621 -22.557 -14.761  0.00  0.00    -0.382 OA
ATOM     10  H   UNL     1      34.582 -22.753 -13.811  0.00  0.00    +0.210 HD
ENDBRANCH   7   9
ENDBRANCH   4   7
ENDBRANCH   1   4
BRANCH   1  11
ATOM     11  C   UNL     1      36.672 -24.675 -11.865  0.00  0.00    +0.169 C 
BRANCH  11  12
ATOM     12  O   UNL     1      36.613 -26.107 -11.920  0.00  0.00    -0.379 OA
ATOM     13  H   UNL     1      37.051 -26.479 -11.139  0.00  0.00    +0.211 HD
ENDBRANCH  11  12
BRANCH  11  14
ATOM     14  C   UNL     1      38.120 -24.248 -12.096  0.00  0.00    +0.169 C 
BRANCH  14  15
ATOM     15  O   UNL     1      38.326 -22.928 -11.608  0.00  0.00    -0.379 OA
ATOM     16  H   UNL     1      39.147 -22.899 -11.091  0.00  0.00    +0.211 HD
ENDBRANCH  14  15
ENDBRANCH  11  14
ENDBRANCH   1  11
TORSDOF 9
ENDMDL
MODEL 8
REMARK VINA RESULT:      -5.1      2.067      3.146
REMARK  Name = 445052
REMARK  9 active torsions:
REMARK  status: ('A' for Active; 'I' for Inactive)
REMARK    1  A    between atoms: C_1  and  O_2
REMARK    2  A    between atoms: C_1  and  C_4
REMARK    3  A    between atoms: C_1  and  C_11
REMARK    4  A    between atoms: C_4  and  O_5
REMARK    5  A    between atoms: C_4  and  C_7
REMARK    6  A    between atoms: C_7  and  O_9
REMARK    7  A    between atoms: C_11  and  O_12
REMARK    8  A    between atoms: C_11  and  C_14
REMARK    9  A    between atoms: C_14  and  O_15
REMARK                            x       y       z     vdW  Elec       q    Type
REMARK                         _______ _______ _______ _____ _____    ______ ____
ROOT
ATOM      1  C   UNL     1      35.993 -24.814 -13.647  0.00  0.00    +0.169 C 
ENDROOT
BRANCH   1   2
ATOM      2  O   UNL     1      35.121 -25.359 -14.646  0.00  0.00    -0.379 OA
ATOM      3  H   UNL     1      35.404 -26.260 -14.866  0.00  0.00    +0.211 HD
ENDBRANCH   1   2
BRANCH   1   4
ATOM      4  C   UNL     1      36.484 -23.438 -14.133  0.00  0.00    +0.166 C 
BRANCH   4   5
ATOM      5  O   UNL     1      37.866 -23.310 -13.782  0.00  0.00    -0.379 OA
ATOM      6  H   UNL     1      38.300 -22.695 -14.394  0.00  0.00    +0.211 HD
ENDBRANCH   4   5
BRANCH   4   7
ATOM      7  C   UNL     1      36.354 -23.214 -15.651  0.00  0.00    +0.140 C 
ATOM      8  C   UNL     1      37.296 -22.149 -16.194  0.00  0.00    +0.034 C 
BRANCH   7   9
ATOM      9  O   UNL     1      35.023 -22.773 -15.938  0.00  0.00    -0.382 OA
ATOM     10  H   UNL     1      34.441 -23.543 -16.036  0.00  0.00    +0.210 HD
ENDBRANCH   7   9
ENDBRANCH   4   7
ENDBRANCH   1   4
BRANCH   1  11
ATOM     11  C   UNL     1      37.115 -25.839 -13.392  0.00  0.00    +0.169 C 
BRANCH  11  12
ATOM     12  O   UNL     1      36.858 -26.429 -12.111  0.00  0.00    -0.379 OA
ATOM     13  H   UNL     1      37.110 -25.807 -11.411  0.00  0.00    +0.211 HD
ENDBRANCH  11  12
BRANCH  11  14
ATOM     14  C   UNL     1      37.207 -26.960 -14.425  0.00  0.00    +0.169 C 
BRANCH  14  15
ATOM     15  O   UNL     1      37.597 -26.434 -15.688  0.00  0.00    -0.379 OA
ATOM     16  H   UNL     1      38.556 -26.527 -15.795  0.00  0.00    +0.211 HD
ENDBRANCH  14  15
ENDBRANCH  11  14
ENDBRANCH   1  11
TORSDOF 9
ENDMDL
MODEL 9
REMARK VINA RESULT:      -5.0     11.377     12.110
REMARK  Name = 445052
REMARK  9 active torsions:
REMARK  status: ('A' for Active; 'I' for Inactive)
REMARK    1  A    between atoms: C_1  and  O_2
REMARK    2  A    between atoms: C_1  and  C_4
REMARK    3  A    between atoms: C_1  and  C_11
REMARK    4  A    between atoms: C_4  and  O_5
REMARK    5  A    between atoms: C_4  and  C_7
REMARK    6  A    between atoms: C_7  and  O_9
REMARK    7  A    between atoms: C_11  and  O_12
REMARK    8  A    between atoms: C_11  and  C_14
REMARK    9  A    between atoms: C_14  and  O_15
REMARK                            x       y       z     vdW  Elec       q    Type
REMARK                         _______ _______ _______ _____ _____    ______ ____
ROOT
ATOM      1  C   UNL     1      34.546 -17.505 -22.277  0.00  0.00    +0.169 C 
ENDROOT
BRANCH   1   2
ATOM      2  O   UNL     1      35.115 -16.694 -21.240  0.00  0.00    -0.379 OA
ATOM      3  H   UNL     1      36.005 -17.015 -21.030  0.00  0.00    +0.211 HD
ENDBRANCH   1   2
BRANCH   1   4
ATOM      4  C   UNL     1      35.427 -18.756 -22.449  0.00  0.00    +0.166 C 
BRANCH   4   5
ATOM      5  O   UNL     1      36.786 -18.327 -22.589  0.00  0.00    -0.379 OA
ATOM      6  H   UNL     1      37.102 -18.541 -23.481  0.00  0.00    +0.211 HD
ENDBRANCH   4   5
BRANCH   4   7
ATOM      7  C   UNL     1      35.360 -19.751 -21.275  0.00  0.00    +0.140 C 
ATOM      8  C   UNL     1      33.961 -19.923 -20.701  0.00  0.00    +0.034 C 
BRANCH   7   9
ATOM      9  O   UNL     1      36.185 -19.265 -20.213  0.00  0.00    -0.382 OA
ATOM     10  H   UNL     1      35.698 -18.597 -19.705  0.00  0.00    +0.210 HD
ENDBRANCH   7   9
ENDBRANCH   4   7
ENDBRANCH   1   4
BRANCH   1  11
ATOM     11  C   UNL     1      34.422 -16.634 -23.541  0.00  0.00    +0.169 C 
BRANCH  11  12
ATOM     12  O   UNL     1      35.617 -15.847 -23.626  0.00  0.00    -0.379 OA
ATOM     13  H   UNL     1      36.387 -16.408 -23.446  0.00  0.00    +0.211 HD
ENDBRANCH  11  12
BRANCH  11  14
ATOM     14  C   UNL     1      34.270 -17.413 -24.846  0.00  0.00    +0.169 C 
BRANCH  14  15
ATOM     15  O   UNL     1      34.907 -16.716 -25.910  0.00  0.00    -0.379 OA
ATOM     16  H   UNL     1      34.857 -17.247 -26.720  0.00  0.00    +0.211 HD
ENDBRANCH  14  15
ENDBRANCH  11  14
ENDBRANCH   1  11
TORSDOF 9
ENDMDL
