MODEL 1
REMARK VINA RESULT:      -9.9      0.000      0.000
REMARK  Name = 2170
REMARK  0 active torsions:
REMARK  status: ('A' for Active; 'I' for Inactive)
REMARK                            x       y       z     vdW  Elec       q    Type
REMARK                         _______ _______ _______ _____ _____    ______ ____
ROOT
ATOM      1 CL   UNL     1      33.378 -22.215 -19.694  0.00  0.00    -0.082 Cl
ATOM      2  O   UNL     1      36.909 -22.828 -15.035  0.00  0.00    -0.451 OA
ATOM      3  N   UNL     1      32.972 -23.894 -14.602  0.00  0.00    -0.288 N 
ATOM      4  N   UNL     1      30.122 -23.743 -14.587  0.00  0.00    +0.386 N 
ATOM      5  N   UNL     1      35.013 -24.845 -14.174  0.00  0.00    -0.388 NA
ATOM      6  C   UNL     1      32.193 -24.948 -13.956  0.00  0.00    +0.070 C 
ATOM      7  C   UNL     1      32.313 -22.592 -14.695  0.00  0.00    +0.070 C 
ATOM      8  C   UNL     1      30.807 -25.040 -14.590  0.00  0.00    -0.060 C 
ATOM      9  C   UNL     1      30.923 -22.750 -15.308  0.00  0.00    -0.060 C 
ATOM     10  C   UNL     1      34.277 -24.058 -14.916  0.00  0.00    +0.186 C 
ATOM     11  C   UNL     1      34.783 -23.309 -16.104  0.00  0.00    +0.079 C 
ATOM     12  C   UNL     1      36.049 -22.718 -16.101  0.00  0.00    +0.149 C 
ATOM     13  C   UNL     1      36.370 -25.102 -14.408  0.00  0.00    +0.149 C 
ATOM     14  C   UNL     1      33.959 -23.153 -17.226  0.00  0.00    +0.018 C 
ATOM     15  C   UNL     1      37.295 -24.123 -14.788  0.00  0.00    +0.171 C 
ATOM     16  C   UNL     1      36.477 -21.947 -17.186  0.00  0.00    +0.038 C 
ATOM     17  C   UNL     1      34.396 -22.401 -18.319  0.00  0.00    +0.058 C 
ATOM     18  C   UNL     1      35.651 -21.794 -18.296  0.00  0.00    +0.015 C 
ATOM     19  C   UNL     1      36.846 -26.397 -14.162  0.00  0.00    +0.088 C 
ATOM     20  C   UNL     1      38.658 -24.416 -14.903  0.00  0.00    +0.039 C 
ATOM     21  C   UNL     1      38.202 -26.703 -14.297  0.00  0.00    -0.018 C 
ATOM     22  C   UNL     1      39.109 -25.711 -14.664  0.00  0.00    -0.001 C 
ATOM     23  H   UNL     1      29.989 -23.435 -13.623  0.00  0.00    -0.084 HD
ATOM     24  H   UNL     1      29.218 -23.842 -15.048  0.00  0.00    -0.084 HD
ENDROOT
TORSDOF 0
ENDMDL
MODEL 2
REMARK VINA RESULT:      -9.2      1.972      5.360
REMARK  Name = 2170
REMARK  0 active torsions:
REMARK  status: ('A' for Active; 'I' for Inactive)
REMARK                            x       y       z     vdW  Elec       q    Type
REMARK                         _______ _______ _______ _____ _____    ______ ____
ROOT
ATOM      1 CL   UNL     1      37.942 -20.696 -17.210  0.00  0.00    -0.082 Cl
ATOM      2  O   UNL     1      33.057 -23.964 -17.095  0.00  0.00    -0.451 OA
ATOM      3  N   UNL     1      35.862 -24.619 -14.175  0.00  0.00    -0.288 N 
ATOM      4  N   UNL     1      38.351 -25.207 -12.909  0.00  0.00    +0.386 N 
ATOM      5  N   UNL     1      33.604 -24.239 -14.261  0.00  0.00    -0.388 NA
ATOM      6  C   UNL     1      35.899 -24.899 -12.742  0.00  0.00    +0.070 C 
ATOM      7  C   UNL     1      36.957 -25.193 -14.957  0.00  0.00    +0.070 C 
ATOM      8  C   UNL     1      37.271 -24.545 -12.172  0.00  0.00    -0.060 C 
ATOM      9  C   UNL     1      38.299 -24.831 -14.324  0.00  0.00    -0.060 C 
ATOM     10  C   UNL     1      34.794 -24.036 -14.764  0.00  0.00    +0.186 C 
ATOM     11  C   UNL     1      35.064 -23.194 -15.968  0.00  0.00    +0.079 C 
ATOM     12  C   UNL     1      34.207 -23.213 -17.071  0.00  0.00    +0.149 C 
ATOM     13  C   UNL     1      32.427 -23.680 -14.776  0.00  0.00    +0.149 C 
ATOM     14  C   UNL     1      36.221 -22.406 -16.015  0.00  0.00    +0.018 C 
ATOM     15  C   UNL     1      32.144 -23.579 -16.143  0.00  0.00    +0.171 C 
ATOM     16  C   UNL     1      34.516 -22.488 -18.225  0.00  0.00    +0.038 C 
ATOM     17  C   UNL     1      36.519 -21.663 -17.160  0.00  0.00    +0.058 C 
ATOM     18  C   UNL     1      35.670 -21.709 -18.265  0.00  0.00    +0.015 C 
ATOM     19  C   UNL     1      31.438 -23.278 -13.868  0.00  0.00    +0.088 C 
ATOM     20  C   UNL     1      30.908 -23.110 -16.597  0.00  0.00    +0.039 C 
ATOM     21  C   UNL     1      30.209 -22.786 -14.314  0.00  0.00    -0.018 C 
ATOM     22  C   UNL     1      29.942 -22.706 -15.679  0.00  0.00    -0.001 C 
ATOM     23  H   UNL     1      38.246 -26.219 -12.824  0.00  0.00    -0.084 HD
ATOM     24  H   UNL     1      39.248 -24.918 -12.519  0.00  0.00    -0.084 HD
ENDROOT
TORSDOF 0
ENDMDL
MODEL 3
REMARK VINA RESULT:      -8.0      2.629      5.848
REMARK  Name = 2170
REMARK  0 active torsions:
REMARK  status: ('A' for Active; 'I' for Inactive)
REMARK                            x       y       z     vdW  Elec       q    Type
REMARK                         _______ _______ _______ _____ _____    ______ ____
ROOT
ATOM      1 CL   UNL     1      38.077 -26.031 -14.951  0.00  0.00    -0.082 Cl
ATOM      2  O   UNL     1      33.006 -23.471 -13.437  0.00  0.00    -0.451 OA
ATOM      3  N   UNL     1      34.624 -22.500 -17.078  0.00  0.00    -0.288 N 
ATOM      4  N   UNL     1      36.476 -21.601 -19.054  0.00  0.00    +0.386 N 
ATOM      5  N   UNL     1      32.584 -23.185 -16.290  0.00  0.00    -0.388 NA
ATOM      6  C   UNL     1      34.165 -22.248 -18.442  0.00  0.00    +0.070 C 
ATOM      7  C   UNL     1      35.819 -21.763 -16.670  0.00  0.00    +0.070 C 
ATOM      8  C   UNL     1      35.321 -22.422 -19.425  0.00  0.00    -0.060 C 
ATOM      9  C   UNL     1      36.929 -21.950 -17.704  0.00  0.00    -0.060 C 
ATOM     10  C   UNL     1      33.888 -23.212 -16.194  0.00  0.00    +0.186 C 
ATOM     11  C   UNL     1      34.639 -23.982 -15.159  0.00  0.00    +0.079 C 
ATOM     12  C   UNL     1      34.182 -24.057 -13.841  0.00  0.00    +0.149 C 
ATOM     13  C   UNL     1      31.720 -23.890 -15.442  0.00  0.00    +0.149 C 
ATOM     14  C   UNL     1      35.848 -24.601 -15.499  0.00  0.00    +0.018 C 
ATOM     15  C   UNL     1      31.901 -23.999 -14.059  0.00  0.00    +0.171 C 
ATOM     16  C   UNL     1      34.937 -24.708 -12.862  0.00  0.00    +0.038 C 
ATOM     17  C   UNL     1      36.593 -25.271 -14.525  0.00  0.00    +0.058 C 
ATOM     18  C   UNL     1      36.140 -25.319 -13.207  0.00  0.00    +0.015 C 
ATOM     19  C   UNL     1      30.559 -24.445 -15.999  0.00  0.00    +0.088 C 
ATOM     20  C   UNL     1      30.950 -24.625 -13.248  0.00  0.00    +0.039 C 
ATOM     21  C   UNL     1      29.615 -25.091 -15.199  0.00  0.00    -0.018 C 
ATOM     22  C   UNL     1      29.808 -25.178 -13.822  0.00  0.00    -0.001 C 
ATOM     23  H   UNL     1      36.212 -20.616 -19.077  0.00  0.00    -0.084 HD
ATOM     24  H   UNL     1      37.234 -21.772 -19.714  0.00  0.00    -0.084 HD
ENDROOT
TORSDOF 0
ENDMDL
MODEL 4
REMARK VINA RESULT:      -7.9     14.746     16.622
REMARK  Name = 2170
REMARK  0 active torsions:
REMARK  status: ('A' for Active; 'I' for Inactive)
REMARK                            x       y       z     vdW  Elec       q    Type
REMARK                         _______ _______ _______ _____ _____    ______ ____
ROOT
ATOM      1 CL   UNL     1      31.012  -5.473 -23.192  0.00  0.00    -0.082 Cl
ATOM      2  O   UNL     1      35.307  -9.332 -24.295  0.00  0.00    -0.451 OA
ATOM      3  N   UNL     1      32.356 -10.455 -21.677  0.00  0.00    -0.288 N 
ATOM      4  N   UNL     1      30.593 -10.445 -19.433  0.00  0.00    +0.386 N 
ATOM      5  N   UNL     1      33.359 -11.341 -23.537  0.00  0.00    -0.388 NA
ATOM      6  C   UNL     1      31.575 -11.649 -21.362  0.00  0.00    +0.070 C 
ATOM      7  C   UNL     1      32.620  -9.561 -20.551  0.00  0.00    +0.070 C 
ATOM      8  C   UNL     1      30.301 -11.261 -20.615  0.00  0.00    -0.060 C 
ATOM      9  C   UNL     1      31.316  -9.232 -19.826  0.00  0.00    -0.060 C 
ATOM     10  C   UNL     1      32.955 -10.287 -22.878  0.00  0.00    +0.186 C 
ATOM     11  C   UNL     1      33.111  -8.883 -23.361  0.00  0.00    +0.079 C 
ATOM     12  C   UNL     1      34.273  -8.470 -24.019  0.00  0.00    +0.149 C 
ATOM     13  C   UNL     1      33.980 -11.293 -24.793  0.00  0.00    +0.149 C 
ATOM     14  C   UNL     1      32.099  -7.948 -23.111  0.00  0.00    +0.018 C 
ATOM     15  C   UNL     1      34.947 -10.347 -25.149  0.00  0.00    +0.171 C 
ATOM     16  C   UNL     1      34.444  -7.134 -24.389  0.00  0.00    +0.038 C 
ATOM     17  C   UNL     1      32.261  -6.616 -23.501  0.00  0.00    +0.058 C 
ATOM     18  C   UNL     1      33.434  -6.209 -24.134  0.00  0.00    +0.015 C 
ATOM     19  C   UNL     1      33.677 -12.304 -25.715  0.00  0.00    +0.088 C 
ATOM     20  C   UNL     1      35.609 -10.411 -26.379  0.00  0.00    +0.039 C 
ATOM     21  C   UNL     1      34.318 -12.363 -26.954  0.00  0.00    -0.018 C 
ATOM     22  C   UNL     1      35.288 -11.418 -27.285  0.00  0.00    -0.001 C 
ATOM     23  H   UNL     1      31.167 -10.984 -18.784  0.00  0.00    -0.084 HD
ATOM     24  H   UNL     1      29.717 -10.181 -18.984  0.00  0.00    -0.084 HD
ENDROOT
TORSDOF 0
ENDMDL
MODEL 5
REMARK VINA RESULT:      -7.7     12.332     15.021
REMARK  Name = 2170
REMARK  0 active torsions:
REMARK  status: ('A' for Active; 'I' for Inactive)
REMARK                            x       y       z     vdW  Elec       q    Type
REMARK                         _______ _______ _______ _____ _____    ______ ____
ROOT
ATOM      1 CL   UNL     1      34.007 -15.597 -20.412  0.00  0.00    -0.082 Cl
ATOM      2  O   UNL     1      32.998 -12.887 -25.531  0.00  0.00    -0.451 OA
ATOM      3  N   UNL     1      32.174 -10.825 -22.083  0.00  0.00    -0.288 N 
ATOM      4  N   UNL     1      31.067 -10.154 -19.539  0.00  0.00    +0.386 N 
ATOM      5  N   UNL     1      33.337 -10.438 -24.018  0.00  0.00    -0.388 NA
ATOM      6  C   UNL     1      32.312  -9.465 -21.567  0.00  0.00    +0.070 C 
ATOM      7  C   UNL     1      31.035 -11.582 -21.564  0.00  0.00    +0.070 C 
ATOM      8  C   UNL     1      32.265  -9.475 -20.040  0.00  0.00    -0.060 C 
ATOM      9  C   UNL     1      31.025 -11.532 -20.037  0.00  0.00    -0.060 C 
ATOM     10  C   UNL     1      32.928 -11.282 -23.108  0.00  0.00    +0.186 C 
ATOM     11  C   UNL     1      33.234 -12.743 -23.119  0.00  0.00    +0.079 C 
ATOM     12  C   UNL     1      33.233 -13.473 -24.310  0.00  0.00    +0.149 C 
ATOM     13  C   UNL     1      34.133 -10.791 -25.117  0.00  0.00    +0.149 C 
ATOM     14  C   UNL     1      33.479 -13.408 -21.911  0.00  0.00    +0.018 C 
ATOM     15  C   UNL     1      33.948 -11.955 -25.871  0.00  0.00    +0.171 C 
ATOM     16  C   UNL     1      33.436 -14.856 -24.298  0.00  0.00    +0.038 C 
ATOM     17  C   UNL     1      33.704 -14.787 -21.901  0.00  0.00    +0.058 C 
ATOM     18  C   UNL     1      33.677 -15.510 -23.092  0.00  0.00    +0.015 C 
ATOM     19  C   UNL     1      35.114  -9.883 -25.537  0.00  0.00    +0.088 C 
ATOM     20  C   UNL     1      34.703 -12.203 -27.021  0.00  0.00    +0.039 C 
ATOM     21  C   UNL     1      35.888 -10.135 -26.672  0.00  0.00    -0.018 C 
ATOM     22  C   UNL     1      35.680 -11.294 -27.417  0.00  0.00    -0.001 C 
ATOM     23  H   UNL     1      30.237  -9.654 -19.859  0.00  0.00    -0.084 HD
ATOM     24  H   UNL     1      31.092 -10.168 -18.519  0.00  0.00    -0.084 HD
ENDROOT
TORSDOF 0
ENDMDL
MODEL 6
REMARK VINA RESULT:      -7.2     12.429     14.799
REMARK  Name = 2170
REMARK  0 active torsions:
REMARK  status: ('A' for Active; 'I' for Inactive)
REMARK                            x       y       z     vdW  Elec       q    Type
REMARK                         _______ _______ _______ _____ _____    ______ ____
ROOT
ATOM      1 CL   UNL     1      36.092 -10.252 -25.830  0.00  0.00    -0.082 Cl
ATOM      2  O   UNL     1      31.173 -10.404 -22.615  0.00  0.00    -0.451 OA
ATOM      3  N   UNL     1      32.853 -13.983 -23.705  0.00  0.00    -0.288 N 
ATOM      4  N   UNL     1      33.915 -16.085 -25.317  0.00  0.00    +0.386 N 
ATOM      5  N   UNL     1      32.101 -13.017 -21.768  0.00  0.00    -0.388 NA
ATOM      6  C   UNL     1      33.095 -15.298 -23.116  0.00  0.00    +0.070 C 
ATOM      7  C   UNL     1      32.632 -13.972 -25.150  0.00  0.00    +0.070 C 
ATOM      8  C   UNL     1      34.202 -16.021 -23.881  0.00  0.00    -0.060 C 
ATOM      9  C   UNL     1      33.752 -14.733 -25.858  0.00  0.00    -0.060 C 
ATOM     10  C   UNL     1      32.657 -12.882 -22.944  0.00  0.00    +0.186 C 
ATOM     11  C   UNL     1      33.095 -11.577 -23.522  0.00  0.00    +0.079 C 
ATOM     12  C   UNL     1      32.332 -10.419 -23.352  0.00  0.00    +0.149 C 
ATOM     13  C   UNL     1      31.858 -11.953 -20.888  0.00  0.00    +0.149 C 
ATOM     14  C   UNL     1      34.265 -11.518 -24.290  0.00  0.00    +0.018 C 
ATOM     15  C   UNL     1      31.375 -10.703 -21.289  0.00  0.00    +0.171 C 
ATOM     16  C   UNL     1      32.708  -9.223 -23.970  0.00  0.00    +0.038 C 
ATOM     17  C   UNL     1      34.652 -10.317 -24.889  0.00  0.00    +0.058 C 
ATOM     18  C   UNL     1      33.871  -9.173 -24.734  0.00  0.00    +0.015 C 
ATOM     19  C   UNL     1      32.026 -12.185 -19.516  0.00  0.00    +0.088 C 
ATOM     20  C   UNL     1      31.051  -9.715 -20.355  0.00  0.00    +0.039 C 
ATOM     21  C   UNL     1      31.725 -11.195 -18.577  0.00  0.00    -0.018 C 
ATOM     22  C   UNL     1      31.234  -9.961 -18.997  0.00  0.00    -0.001 C 
ATOM     23  H   UNL     1      33.056 -16.614 -25.466  0.00  0.00    -0.084 HD
ATOM     24  H   UNL     1      34.692 -16.544 -25.792  0.00  0.00    -0.084 HD
ENDROOT
TORSDOF 0
ENDMDL
MODEL 7
REMARK VINA RESULT:      -7.2      2.596      4.516
REMARK  Name = 2170
REMARK  0 active torsions:
REMARK  status: ('A' for Active; 'I' for Inactive)
REMARK                            x       y       z     vdW  Elec       q    Type
REMARK                         _______ _______ _______ _____ _____    ______ ____
ROOT
ATOM      1 CL   UNL     1      29.744 -22.137 -15.696  0.00  0.00    -0.082 Cl
ATOM      2  O   UNL     1      34.372 -25.193 -13.747  0.00  0.00    -0.451 OA
ATOM      3  N   UNL     1      34.848 -22.980 -17.167  0.00  0.00    -0.288 N 
ATOM      4  N   UNL     1      34.446 -21.973 -19.806  0.00  0.00    +0.386 N 
ATOM      5  N   UNL     1      35.957 -23.232 -15.178  0.00  0.00    -0.388 NA
ATOM      6  C   UNL     1      35.865 -22.129 -17.782  0.00  0.00    +0.070 C 
ATOM      7  C   UNL     1      33.990 -23.710 -18.099  0.00  0.00    +0.070 C 
ATOM      8  C   UNL     1      35.223 -21.213 -18.823  0.00  0.00    -0.060 C 
ATOM      9  C   UNL     1      33.402 -22.749 -19.132  0.00  0.00    -0.060 C 
ATOM     10  C   UNL     1      34.828 -23.224 -15.837  0.00  0.00    +0.186 C 
ATOM     11  C   UNL     1      33.492 -23.475 -15.219  0.00  0.00    +0.079 C 
ATOM     12  C   UNL     1      33.324 -24.449 -14.232  0.00  0.00    +0.149 C 
ATOM     13  C   UNL     1      36.060 -23.461 -13.798  0.00  0.00    +0.149 C 
ATOM     14  C   UNL     1      32.376 -22.757 -15.667  0.00  0.00    +0.018 C 
ATOM     15  C   UNL     1      35.323 -24.432 -13.112  0.00  0.00    +0.171 C 
ATOM     16  C   UNL     1      32.053 -24.734 -13.723  0.00  0.00    +0.038 C 
ATOM     17  C   UNL     1      31.110 -23.026 -15.142  0.00  0.00    +0.058 C 
ATOM     18  C   UNL     1      30.949 -24.017 -14.175  0.00  0.00    +0.015 C 
ATOM     19  C   UNL     1      37.020 -22.734 -13.082  0.00  0.00    +0.088 C 
ATOM     20  C   UNL     1      35.544 -24.688 -11.755  0.00  0.00    +0.039 C 
ATOM     21  C   UNL     1      37.232 -22.968 -11.721  0.00  0.00    -0.018 C 
ATOM     22  C   UNL     1      36.496 -23.948 -11.058  0.00  0.00    -0.001 C 
ATOM     23  H   UNL     1      35.066 -22.607 -20.310  0.00  0.00    -0.084 HD
ATOM     24  H   UNL     1      34.009 -21.323 -20.460  0.00  0.00    -0.084 HD
ENDROOT
TORSDOF 0
ENDMDL
