MODEL 1
REMARK VINA RESULT:      -9.0      0.000      0.000
REMARK  Name = 489181
REMARK  6 active torsions:
REMARK  status: ('A' for Active; 'I' for Inactive)
REMARK    1  A    between atoms: C_1  and  C_4
REMARK    2  A    between atoms: C_1  and  O_10
REMARK    3  A    between atoms: C_1  and  C_12
REMARK    4  A    between atoms: C_1  and  C_22
REMARK    5  A    between atoms: C_12  and  N_14
REMARK    6  A    between atoms: C_22  and  N_23
REMARK                            x       y       z     vdW  Elec       q    Type
REMARK                         _______ _______ _______ _____ _____    ______ ____
ROOT
ATOM      1  C   UNL     1      33.605 -13.698 -23.555  0.00  0.00    +0.112 C 
ENDROOT
BRANCH   1   4
ATOM      2  F   UNL     1      35.167 -15.387 -21.915  0.00  0.00    -0.204 F 
ATOM      3  F   UNL     1      34.953 -18.954 -25.016  0.00  0.00    -0.204 F 
ATOM      4  C   UNL     1      33.976 -15.134 -23.951  0.00  0.00    +0.029 C 
ATOM      5  C   UNL     1      34.739 -15.877 -23.086  0.00  0.00    +0.141 C 
ATOM      6  C   UNL     1      33.524 -15.612 -25.157  0.00  0.00    +0.002 C 
ATOM      7  C   UNL     1      35.074 -17.182 -23.450  0.00  0.00    +0.059 C 
ATOM      8  C   UNL     1      33.858 -16.917 -25.521  0.00  0.00    +0.030 C 
ATOM      9  C   UNL     1      34.633 -17.701 -24.667  0.00  0.00    +0.142 C 
ENDBRANCH   1   4
BRANCH   1  10
ATOM     10  O   UNL     1      34.686 -13.105 -22.818  0.00  0.00    -0.383 OA
ATOM     11  H   UNL     1      34.618 -12.139 -22.865  0.00  0.00    +0.211 HD
ENDBRANCH   1  10
BRANCH   1  12
ATOM     12  C   UNL     1      32.347 -13.688 -22.615  0.00  0.00    -0.027 C 
ATOM     13  C   UNL     1      32.362 -14.816 -21.573  0.00  0.00    -0.020 C 
BRANCH  12  14
ATOM     14  N   UNL     1      32.224 -12.421 -21.902  0.00  0.00    +0.390 N 
ATOM     15  C   UNL     1      32.197 -12.635 -20.444  0.00  0.00    -0.073 C 
ATOM     16  C   UNL     1      31.069 -11.649 -22.363  0.00  0.00    -0.073 C 
ATOM     17  C   UNL     1      31.540 -11.497 -19.643  0.00  0.00    -0.001 C 
ATOM     18  C   UNL     1      31.119 -10.220 -21.796  0.00  0.00    -0.001 C 
ATOM     19  C   UNL     1      31.620 -10.189 -20.374  0.00  0.00    -0.048 C 
ATOM     20  C   UNL     1      32.143  -9.082 -19.826  0.00  0.00    -0.009 C 
ATOM     21  H   UNL     1      33.052 -11.865 -22.113  0.00  0.00    -0.079 HD
ENDBRANCH  12  14
ENDBRANCH   1  12
BRANCH   1  22
ATOM     22  C   UNL     1      33.355 -12.826 -24.825  0.00  0.00    +0.147 C 
BRANCH  22  23
ATOM     23  N   UNL     1      34.094 -11.561 -24.866  0.00  0.00    -0.188 N 
ATOM     24  N   UNL     1      33.955 -10.680 -23.881  0.00  0.00    -0.154 NA
ATOM     25  N   UNL     1      35.407  -9.964 -25.498  0.00  0.00    -0.203 NA
ATOM     26  C   UNL     1      34.946 -11.150 -25.822  0.00  0.00    +0.186 C 
ATOM     27  C   UNL     1      34.777  -9.720 -24.312  0.00  0.00    +0.218 C 
ENDBRANCH  22  23
ENDBRANCH   1  22
TORSDOF 6
ENDMDL
MODEL 2
REMARK VINA RESULT:      -8.4     11.319     13.444
REMARK  Name = 489181
REMARK  6 active torsions:
REMARK  status: ('A' for Active; 'I' for Inactive)
REMARK    1  A    between atoms: C_1  and  C_4
REMARK    2  A    between atoms: C_1  and  O_10
REMARK    3  A    between atoms: C_1  and  C_12
REMARK    4  A    between atoms: C_1  and  C_22
REMARK    5  A    between atoms: C_12  and  N_14
REMARK    6  A    between atoms: C_22  and  N_23
REMARK                            x       y       z     vdW  Elec       q    Type
REMARK                         _______ _______ _______ _____ _____    ______ ____
ROOT
ATOM      1  C   UNL     1      34.531 -23.812 -15.382  0.00  0.00    +0.112 C 
ENDROOT
BRANCH   1   4
ATOM      2  F   UNL     1      36.968 -22.398 -15.175  0.00  0.00    -0.204 F 
ATOM      3  F   UNL     1      39.469 -26.369 -14.571  0.00  0.00    -0.204 F 
ATOM      4  C   UNL     1      35.882 -24.508 -15.161  0.00  0.00    +0.029 C 
ATOM      5  C   UNL     1      37.012 -23.733 -15.073  0.00  0.00    +0.141 C 
ATOM      6  C   UNL     1      35.898 -25.878 -15.059  0.00  0.00    +0.002 C 
ATOM      7  C   UNL     1      38.238 -24.369 -14.872  0.00  0.00    +0.059 C 
ATOM      8  C   UNL     1      37.124 -26.513 -14.858  0.00  0.00    +0.030 C 
ATOM      9  C   UNL     1      38.293 -25.759 -14.765  0.00  0.00    +0.142 C 
ENDBRANCH   1   4
BRANCH   1  10
ATOM     10  O   UNL     1      34.690 -22.392 -15.246  0.00  0.00    -0.383 OA
ATOM     11  H   UNL     1      34.470 -22.127 -14.339  0.00  0.00    +0.211 HD
ENDBRANCH   1  10
BRANCH   1  12
ATOM     12  C   UNL     1      33.489 -24.265 -14.296  0.00  0.00    -0.027 C 
ATOM     13  C   UNL     1      33.532 -23.407 -13.023  0.00  0.00    -0.020 C 
BRANCH  12  14
ATOM     14  N   UNL     1      32.126 -24.228 -14.816  0.00  0.00    +0.390 N 
ATOM     15  C   UNL     1      31.581 -22.860 -14.773  0.00  0.00    -0.073 C 
ATOM     16  C   UNL     1      31.258 -25.186 -14.131  0.00  0.00    -0.073 C 
ATOM     17  C   UNL     1      30.044 -22.785 -14.765  0.00  0.00    -0.001 C 
ATOM     18  C   UNL     1      29.916 -25.317 -14.871  0.00  0.00    -0.001 C 
ATOM     19  C   UNL     1      29.428 -23.995 -15.405  0.00  0.00    -0.048 C 
ATOM     20  C   UNL     1      28.547 -23.914 -16.413  0.00  0.00    -0.009 C 
ATOM     21  H   UNL     1      32.161 -24.511 -15.795  0.00  0.00    -0.079 HD
ENDBRANCH  12  14
ENDBRANCH   1  12
BRANCH   1  22
ATOM     22  C   UNL     1      33.994 -24.102 -16.818  0.00  0.00    +0.147 C 
BRANCH  22  23
ATOM     23  N   UNL     1      34.179 -23.012 -17.781  0.00  0.00    -0.188 N 
ATOM     24  N   UNL     1      35.401 -22.567 -18.053  0.00  0.00    -0.154 NA
ATOM     25  N   UNL     1      33.784 -21.456 -19.230  0.00  0.00    -0.203 NA
ATOM     26  C   UNL     1      33.220 -22.365 -18.468  0.00  0.00    +0.186 C 
ATOM     27  C   UNL     1      35.110 -21.617 -18.943  0.00  0.00    +0.218 C 
ENDBRANCH  22  23
ENDBRANCH   1  22
TORSDOF 6
ENDMDL
MODEL 3
REMARK VINA RESULT:      -7.8     13.113     15.381
REMARK  Name = 489181
REMARK  6 active torsions:
REMARK  status: ('A' for Active; 'I' for Inactive)
REMARK    1  A    between atoms: C_1  and  C_4
REMARK    2  A    between atoms: C_1  and  O_10
REMARK    3  A    between atoms: C_1  and  C_12
REMARK    4  A    between atoms: C_1  and  C_22
REMARK    5  A    between atoms: C_12  and  N_14
REMARK    6  A    between atoms: C_22  and  N_23
REMARK                            x       y       z     vdW  Elec       q    Type
REMARK                         _______ _______ _______ _____ _____    ______ ____
ROOT
ATOM      1  C   UNL     1      33.992 -23.918 -14.263  0.00  0.00    +0.112 C 
ENDROOT
BRANCH   1   4
ATOM      2  F   UNL     1      32.660 -22.497 -16.310  0.00  0.00    -0.204 F 
ATOM      3  F   UNL     1      28.565 -24.718 -15.484  0.00  0.00    -0.204 F 
ATOM      4  C   UNL     1      32.509 -24.135 -14.599  0.00  0.00    +0.029 C 
ATOM      5  C   UNL     1      31.952 -23.395 -15.612  0.00  0.00    +0.141 C 
ATOM      6  C   UNL     1      31.807 -25.062 -13.868  0.00  0.00    +0.002 C 
ATOM      7  C   UNL     1      30.604 -23.594 -15.915  0.00  0.00    +0.059 C 
ATOM      8  C   UNL     1      30.459 -25.261 -14.171  0.00  0.00    +0.030 C 
ATOM      9  C   UNL     1      29.858 -24.527 -15.193  0.00  0.00    +0.142 C 
ENDBRANCH   1   4
BRANCH   1  10
ATOM     10  O   UNL     1      34.252 -22.516 -14.104  0.00  0.00    -0.383 OA
ATOM     11  H   UNL     1      33.747 -22.177 -13.348  0.00  0.00    +0.211 HD
ENDBRANCH   1  10
BRANCH   1  12
ATOM     12  C   UNL     1      34.906 -24.426 -15.435  0.00  0.00    -0.027 C 
ATOM     13  C   UNL     1      35.127 -23.372 -16.530  0.00  0.00    -0.020 C 
BRANCH  12  14
ATOM     14  N   UNL     1      36.216 -24.846 -14.947  0.00  0.00    +0.390 N 
ATOM     15  C   UNL     1      37.268 -23.913 -15.387  0.00  0.00    -0.073 C 
ATOM     16  C   UNL     1      36.517 -26.228 -15.321  0.00  0.00    -0.073 C 
ATOM     17  C   UNL     1      38.684 -24.514 -15.414  0.00  0.00    -0.001 C 
ATOM     18  C   UNL     1      37.765 -26.725 -14.573  0.00  0.00    -0.001 C 
ATOM     19  C   UNL     1      38.819 -25.655 -14.448  0.00  0.00    -0.048 C 
ATOM     20  C   UNL     1      39.773 -25.700 -13.506  0.00  0.00    -0.009 C 
ATOM     21  H   UNL     1      36.189 -24.817 -13.928  0.00  0.00    -0.079 HD
ENDBRANCH  12  14
ENDBRANCH   1  12
BRANCH   1  22
ATOM     22  C   UNL     1      34.360 -24.632 -12.925  0.00  0.00    +0.147 C 
BRANCH  22  23
ATOM     23  N   UNL     1      35.621 -24.198 -12.317  0.00  0.00    -0.188 N 
ATOM     24  N   UNL     1      36.012 -22.933 -12.430  0.00  0.00    -0.154 NA
ATOM     25  N   UNL     1      37.495 -24.203 -11.237  0.00  0.00    -0.203 NA
ATOM     26  C   UNL     1      36.486 -24.954 -11.616  0.00  0.00    +0.186 C 
ATOM     27  C   UNL     1      37.162 -22.984 -11.754  0.00  0.00    +0.218 C 
ENDBRANCH  22  23
ENDBRANCH   1  22
TORSDOF 6
ENDMDL
MODEL 4
REMARK VINA RESULT:      -7.6      2.788      6.304
REMARK  Name = 489181
REMARK  6 active torsions:
REMARK  status: ('A' for Active; 'I' for Inactive)
REMARK    1  A    between atoms: C_1  and  C_4
REMARK    2  A    between atoms: C_1  and  O_10
REMARK    3  A    between atoms: C_1  and  C_12
REMARK    4  A    between atoms: C_1  and  C_22
REMARK    5  A    between atoms: C_12  and  N_14
REMARK    6  A    between atoms: C_22  and  N_23
REMARK                            x       y       z     vdW  Elec       q    Type
REMARK                         _______ _______ _______ _____ _____    ______ ____
ROOT
ATOM      1  C   UNL     1      32.742 -13.565 -22.237  0.00  0.00    +0.112 C 
ENDROOT
BRANCH   1   4
ATOM      2  F   UNL     1      32.426 -11.073 -23.528  0.00  0.00    -0.204 F 
ATOM      3  F   UNL     1      31.179  -8.906 -19.511  0.00  0.00    -0.204 F 
ATOM      4  C   UNL     1      32.315 -12.290 -21.495  0.00  0.00    +0.029 C 
ATOM      5  C   UNL     1      32.189 -11.126 -22.211  0.00  0.00    +0.141 C 
ATOM      6  C   UNL     1      32.077 -12.374 -20.145  0.00  0.00    +0.002 C 
ATOM      7  C   UNL     1      31.801  -9.969 -21.533  0.00  0.00    +0.059 C 
ATOM      8  C   UNL     1      31.689 -11.217 -19.467  0.00  0.00    +0.030 C 
ATOM      9  C   UNL     1      31.552 -10.016 -20.161  0.00  0.00    +0.142 C 
ENDBRANCH   1   4
BRANCH   1  10
ATOM     10  O   UNL     1      31.609 -14.136 -22.909  0.00  0.00    -0.383 OA
ATOM     11  H   UNL     1      31.805 -15.056 -23.149  0.00  0.00    +0.211 HD
ENDBRANCH   1  10
BRANCH   1  12
ATOM     12  C   UNL     1      33.269 -14.646 -21.225  0.00  0.00    -0.027 C 
ATOM     13  C   UNL     1      32.216 -15.071 -20.192  0.00  0.00    -0.020 C 
BRANCH  12  14
ATOM     14  N   UNL     1      33.727 -15.846 -21.918  0.00  0.00    +0.390 N 
ATOM     15  C   UNL     1      33.280 -17.063 -21.219  0.00  0.00    -0.073 C 
ATOM     16  C   UNL     1      35.176 -15.833 -22.124  0.00  0.00    -0.073 C 
ATOM     17  C   UNL     1      34.124 -18.315 -21.514  0.00  0.00    -0.001 C 
ATOM     18  C   UNL     1      35.590 -16.963 -23.082  0.00  0.00    -0.001 C 
ATOM     19  C   UNL     1      34.800 -18.225 -22.851  0.00  0.00    -0.048 C 
ATOM     20  C   UNL     1      34.671 -19.170 -23.794  0.00  0.00    -0.009 C 
ATOM     21  H   UNL     1      33.300 -15.851 -22.844  0.00  0.00    -0.079 HD
ENDBRANCH  12  14
ENDBRANCH   1  12
BRANCH   1  22
ATOM     22  C   UNL     1      33.824 -13.237 -23.312  0.00  0.00    +0.147 C 
BRANCH  22  23
ATOM     23  N   UNL     1      33.516 -13.705 -24.666  0.00  0.00    -0.188 N 
ATOM     24  N   UNL     1      33.341 -15.002 -24.897  0.00  0.00    -0.154 NA
ATOM     25  N   UNL     1      33.100 -13.737 -26.788  0.00  0.00    -0.203 NA
ATOM     26  C   UNL     1      33.376 -12.952 -25.772  0.00  0.00    +0.186 C 
ATOM     27  C   UNL     1      33.089 -14.973 -26.207  0.00  0.00    +0.218 C 
ENDBRANCH  22  23
ENDBRANCH   1  22
TORSDOF 6
ENDMDL
MODEL 5
REMARK VINA RESULT:      -7.5      3.109      5.983
REMARK  Name = 489181
REMARK  6 active torsions:
REMARK  status: ('A' for Active; 'I' for Inactive)
REMARK    1  A    between atoms: C_1  and  C_4
REMARK    2  A    between atoms: C_1  and  O_10
REMARK    3  A    between atoms: C_1  and  C_12
REMARK    4  A    between atoms: C_1  and  C_22
REMARK    5  A    between atoms: C_12  and  N_14
REMARK    6  A    between atoms: C_22  and  N_23
REMARK                            x       y       z     vdW  Elec       q    Type
REMARK                         _______ _______ _______ _____ _____    ______ ____
ROOT
ATOM      1  C   UNL     1      33.033 -12.645 -23.260  0.00  0.00    +0.112 C 
ENDROOT
BRANCH   1   4
ATOM      2  F   UNL     1      31.057 -10.796 -22.448  0.00  0.00    -0.204 F 
ATOM      3  F   UNL     1      33.691  -7.085 -23.746  0.00  0.00    -0.204 F 
ATOM      4  C   UNL     1      33.210 -11.126 -23.391  0.00  0.00    +0.029 C 
ATOM      5  C   UNL     1      32.191 -10.308 -22.968  0.00  0.00    +0.141 C 
ATOM      6  C   UNL     1      34.383 -10.653 -23.927  0.00  0.00    +0.002 C 
ATOM      7  C   UNL     1      32.355  -8.928 -23.089  0.00  0.00    +0.059 C 
ATOM      8  C   UNL     1      34.547  -9.272 -24.049  0.00  0.00    +0.030 C 
ATOM      9  C   UNL     1      33.533  -8.411 -23.630  0.00  0.00    +0.142 C 
ENDBRANCH   1   4
BRANCH   1  10
ATOM     10  O   UNL     1      31.721 -13.021 -23.705  0.00  0.00    -0.383 OA
ATOM     11  H   UNL     1      31.771 -13.347 -24.618  0.00  0.00    +0.211 HD
ENDBRANCH   1  10
BRANCH   1  12
ATOM     12  C   UNL     1      33.153 -13.090 -21.758  0.00  0.00    -0.027 C 
ATOM     13  C   UNL     1      31.874 -12.836 -20.947  0.00  0.00    -0.020 C 
BRANCH  12  14
ATOM     14  N   UNL     1      33.480 -14.508 -21.646  0.00  0.00    +0.390 N 
ATOM     15  C   UNL     1      32.272 -15.310 -21.387  0.00  0.00    -0.073 C 
ATOM     16  C   UNL     1      34.522 -14.747 -20.646  0.00  0.00    -0.073 C 
ATOM     17  C   UNL     1      32.541 -16.673 -20.724  0.00  0.00    -0.001 C 
ATOM     18  C   UNL     1      35.033 -16.194 -20.740  0.00  0.00    -0.001 C 
ATOM     19  C   UNL     1      33.923 -17.173 -21.027  0.00  0.00    -0.048 C 
ATOM     20  C   UNL     1      34.157 -18.380 -21.563  0.00  0.00    -0.009 C 
ATOM     21  H   UNL     1      33.861 -14.809 -22.543  0.00  0.00    -0.079 HD
ENDBRANCH  12  14
ENDBRANCH   1  12
BRANCH   1  22
ATOM     22  C   UNL     1      34.076 -13.397 -24.145  0.00  0.00    +0.147 C 
BRANCH  22  23
ATOM     23  N   UNL     1      33.510 -14.143 -25.273  0.00  0.00    -0.188 N 
ATOM     24  N   UNL     1      33.002 -13.489 -26.313  0.00  0.00    -0.154 NA
ATOM     25  N   UNL     1      32.862 -15.760 -26.553  0.00  0.00    -0.203 NA
ATOM     26  C   UNL     1      33.433 -15.479 -25.404  0.00  0.00    +0.186 C 
ATOM     27  C   UNL     1      32.619 -14.520 -27.069  0.00  0.00    +0.218 C 
ENDBRANCH  22  23
ENDBRANCH   1  22
TORSDOF 6
ENDMDL
MODEL 6
REMARK VINA RESULT:      -7.3      2.705      4.848
REMARK  Name = 489181
REMARK  6 active torsions:
REMARK  status: ('A' for Active; 'I' for Inactive)
REMARK    1  A    between atoms: C_1  and  C_4
REMARK    2  A    between atoms: C_1  and  O_10
REMARK    3  A    between atoms: C_1  and  C_12
REMARK    4  A    between atoms: C_1  and  C_22
REMARK    5  A    between atoms: C_12  and  N_14
REMARK    6  A    between atoms: C_22  and  N_23
REMARK                            x       y       z     vdW  Elec       q    Type
REMARK                         _______ _______ _______ _____ _____    ______ ____
ROOT
ATOM      1  C   UNL     1      32.666 -12.714 -22.769  0.00  0.00    +0.112 C 
ENDROOT
BRANCH   1   4
ATOM      2  F   UNL     1      32.844 -13.625 -25.438  0.00  0.00    -0.204 F 
ATOM      3  F   UNL     1      35.605 -10.001 -26.717  0.00  0.00    -0.204 F 
ATOM      4  C   UNL     1      33.468 -11.975 -23.850  0.00  0.00    +0.029 C 
ATOM      5  C   UNL     1      33.494 -12.498 -25.119  0.00  0.00    +0.141 C 
ATOM      6  C   UNL     1      34.124 -10.822 -23.496  0.00  0.00    +0.002 C 
ATOM      7  C   UNL     1      34.224 -11.823 -26.099  0.00  0.00    +0.059 C 
ATOM      8  C   UNL     1      34.855 -10.148 -24.476  0.00  0.00    +0.030 C 
ATOM      9  C   UNL     1      34.904 -10.649 -25.776  0.00  0.00    +0.142 C 
ENDBRANCH   1   4
BRANCH   1  10
ATOM     10  O   UNL     1      31.923 -13.788 -23.367  0.00  0.00    -0.383 OA
ATOM     11  H   UNL     1      31.926 -14.554 -22.771  0.00  0.00    +0.211 HD
ENDBRANCH   1  10
BRANCH   1  12
ATOM     12  C   UNL     1      31.622 -11.751 -22.097  0.00  0.00    -0.027 C 
ATOM     13  C   UNL     1      31.515 -11.941 -20.577  0.00  0.00    -0.020 C 
BRANCH  12  14
ATOM     14  N   UNL     1      31.948 -10.351 -22.351  0.00  0.00    +0.390 N 
ATOM     15  C   UNL     1      32.287  -9.651 -21.100  0.00  0.00    -0.073 C 
ATOM     16  C   UNL     1      30.882  -9.672 -23.089  0.00  0.00    -0.073 C 
ATOM     17  C   UNL     1      32.109  -8.124 -21.155  0.00  0.00    -0.001 C 
ATOM     18  C   UNL     1      31.361  -8.293 -23.574  0.00  0.00    -0.001 C 
ATOM     19  C   UNL     1      32.233  -7.602 -22.557  0.00  0.00    -0.048 C 
ATOM     20  C   UNL     1      33.091  -6.628 -22.896  0.00  0.00    -0.009 C 
ATOM     21  H   UNL     1      32.776 -10.330 -22.947  0.00  0.00    -0.079 HD
ENDBRANCH  12  14
ENDBRANCH   1  12
BRANCH   1  22
ATOM     22  C   UNL     1      33.623 -13.328 -21.700  0.00  0.00    +0.147 C 
BRANCH  22  23
ATOM     23  N   UNL     1      34.028 -14.714 -21.952  0.00  0.00    -0.188 N 
ATOM     24  N   UNL     1      34.782 -15.003 -23.007  0.00  0.00    -0.154 NA
ATOM     25  N   UNL     1      34.272 -16.854 -21.763  0.00  0.00    -0.203 NA
ATOM     26  C   UNL     1      33.722 -15.795 -21.213  0.00  0.00    +0.186 C 
ATOM     27  C   UNL     1      34.905 -16.323 -22.850  0.00  0.00    +0.218 C 
ENDBRANCH  22  23
ENDBRANCH   1  22
TORSDOF 6
ENDMDL
MODEL 7
REMARK VINA RESULT:      -7.2      1.565      2.046
REMARK  Name = 489181
REMARK  6 active torsions:
REMARK  status: ('A' for Active; 'I' for Inactive)
REMARK    1  A    between atoms: C_1  and  C_4
REMARK    2  A    between atoms: C_1  and  O_10
REMARK    3  A    between atoms: C_1  and  C_12
REMARK    4  A    between atoms: C_1  and  C_22
REMARK    5  A    between atoms: C_12  and  N_14
REMARK    6  A    between atoms: C_22  and  N_23
REMARK                            x       y       z     vdW  Elec       q    Type
REMARK                         _______ _______ _______ _____ _____    ______ ____
ROOT
ATOM      1  C   UNL     1      33.355 -14.511 -22.701  0.00  0.00    +0.112 C 
ENDROOT
BRANCH   1   4
ATOM      2  F   UNL     1      35.368 -15.575 -24.373  0.00  0.00    -0.204 F 
ATOM      3  F   UNL     1      35.476 -19.668 -22.002  0.00  0.00    -0.204 F 
ATOM      4  C   UNL     1      33.937 -15.920 -22.513  0.00  0.00    +0.029 C 
ATOM      5  C   UNL     1      34.913 -16.347 -23.378  0.00  0.00    +0.141 C 
ATOM      6  C   UNL     1      33.452 -16.690 -21.484  0.00  0.00    +0.002 C 
ATOM      7  C   UNL     1      35.439 -17.628 -23.204  0.00  0.00    +0.059 C 
ATOM      8  C   UNL     1      33.978 -17.970 -21.309  0.00  0.00    +0.030 C 
ATOM      9  C   UNL     1      34.971 -18.439 -22.169  0.00  0.00    +0.142 C 
ENDBRANCH   1   4
BRANCH   1  10
ATOM     10  O   UNL     1      34.417 -13.545 -22.701  0.00  0.00    -0.383 OA
ATOM     11  H   UNL     1      34.167 -12.789 -23.255  0.00  0.00    +0.211 HD
ENDBRANCH   1  10
BRANCH   1  12
ATOM     12  C   UNL     1      32.398 -14.142 -21.511  0.00  0.00    -0.027 C 
ATOM     13  C   UNL     1      32.823 -14.770 -20.176  0.00  0.00    -0.020 C 
BRANCH  12  14
ATOM     14  N   UNL     1      32.315 -12.698 -21.321  0.00  0.00    +0.390 N 
ATOM     15  C   UNL     1      32.117 -12.362 -19.901  0.00  0.00    -0.073 C 
ATOM     16  C   UNL     1      31.290 -12.096 -22.175  0.00  0.00    -0.073 C 
ATOM     17  C   UNL     1      31.485 -10.981 -19.653  0.00  0.00    -0.001 C 
ATOM     18  C   UNL     1      31.409 -10.563 -22.155  0.00  0.00    -0.001 C 
ATOM     19  C   UNL     1      31.758 -10.036 -20.787  0.00  0.00    -0.048 C 
ATOM     20  C   UNL     1      32.319  -8.831 -20.608  0.00  0.00    -0.009 C 
ATOM     21  H   UNL     1      33.208 -12.297 -21.608  0.00  0.00    -0.079 HD
ENDBRANCH  12  14
ENDBRANCH   1  12
BRANCH   1  22
ATOM     22  C   UNL     1      32.608 -14.405 -24.067  0.00  0.00    +0.147 C 
BRANCH  22  23
ATOM     23  N   UNL     1      33.171 -13.433 -25.009  0.00  0.00    -0.188 N 
ATOM     24  N   UNL     1      33.545 -12.232 -24.579  0.00  0.00    -0.154 NA
ATOM     25  N   UNL     1      33.897 -12.506 -26.823  0.00  0.00    -0.203 NA
ATOM     26  C   UNL     1      33.374 -13.604 -26.327  0.00  0.00    +0.186 C 
ATOM     27  C   UNL     1      33.982 -11.702 -25.723  0.00  0.00    +0.218 C 
ENDBRANCH  22  23
ENDBRANCH   1  22
TORSDOF 6
ENDMDL
MODEL 8
REMARK VINA RESULT:      -7.1     11.469     14.132
REMARK  Name = 489181
REMARK  6 active torsions:
REMARK  status: ('A' for Active; 'I' for Inactive)
REMARK    1  A    between atoms: C_1  and  C_4
REMARK    2  A    between atoms: C_1  and  O_10
REMARK    3  A    between atoms: C_1  and  C_12
REMARK    4  A    between atoms: C_1  and  C_22
REMARK    5  A    between atoms: C_12  and  N_14
REMARK    6  A    between atoms: C_22  and  N_23
REMARK                            x       y       z     vdW  Elec       q    Type
REMARK                         _______ _______ _______ _____ _____    ______ ____
ROOT
ATOM      1  C   UNL     1      34.169 -23.376 -15.517  0.00  0.00    +0.112 C 
ENDROOT
BRANCH   1   4
ATOM      2  F   UNL     1      36.737 -22.200 -15.415  0.00  0.00    -0.204 F 
ATOM      3  F   UNL     1      36.732 -21.274 -20.055  0.00  0.00    -0.204 F 
ATOM      4  C   UNL     1      34.872 -22.800 -16.755  0.00  0.00    +0.029 C 
ATOM      5  C   UNL     1      36.121 -22.249 -16.604  0.00  0.00    +0.141 C 
ATOM      6  C   UNL     1      34.218 -22.864 -17.961  0.00  0.00    +0.002 C 
ATOM      7  C   UNL     1      36.756 -21.727 -17.731  0.00  0.00    +0.059 C 
ATOM      8  C   UNL     1      34.853 -22.342 -19.088  0.00  0.00    +0.030 C 
ATOM      9  C   UNL     1      36.122 -21.774 -18.973  0.00  0.00    +0.142 C 
ENDBRANCH   1   4
BRANCH   1  10
ATOM     10  O   UNL     1      34.239 -22.431 -14.438  0.00  0.00    -0.383 OA
ATOM     11  H   UNL     1      33.551 -21.757 -14.553  0.00  0.00    +0.211 HD
ENDBRANCH   1  10
BRANCH   1  12
ATOM     12  C   UNL     1      34.888 -24.685 -15.030  0.00  0.00    -0.027 C 
ATOM     13  C   UNL     1      35.500 -25.502 -16.176  0.00  0.00    -0.020 C 
BRANCH  12  14
ATOM     14  N   UNL     1      35.951 -24.386 -14.076  0.00  0.00    +0.390 N 
ATOM     15  C   UNL     1      37.180 -25.132 -14.402  0.00  0.00    -0.073 C 
ATOM     16  C   UNL     1      35.522 -24.614 -12.695  0.00  0.00    -0.073 C 
ATOM     17  C   UNL     1      38.141 -25.328 -13.217  0.00  0.00    -0.001 C 
ATOM     18  C   UNL     1      36.556 -24.041 -11.711  0.00  0.00    -0.001 C 
ATOM     19  C   UNL     1      37.971 -24.255 -12.182  0.00  0.00    -0.048 C 
ATOM     20  C   UNL     1      38.991 -23.502 -11.743  0.00  0.00    -0.009 C 
ATOM     21  H   UNL     1      36.167 -23.393 -14.155  0.00  0.00    -0.079 HD
ENDBRANCH  12  14
ENDBRANCH   1  12
BRANCH   1  22
ATOM     22  C   UNL     1      32.663 -23.650 -15.820  0.00  0.00    +0.147 C 
BRANCH  22  23
ATOM     23  N   UNL     1      31.829 -23.901 -14.641  0.00  0.00    -0.188 N 
ATOM     24  N   UNL     1      31.154 -22.903 -14.081  0.00  0.00    -0.154 NA
ATOM     25  N   UNL     1      30.824 -24.894 -13.004  0.00  0.00    -0.203 NA
ATOM     26  C   UNL     1      31.641 -25.077 -14.016  0.00  0.00    +0.186 C 
ATOM     27  C   UNL     1      30.556 -23.558 -13.084  0.00  0.00    +0.218 C 
ENDBRANCH  22  23
ENDBRANCH   1  22
TORSDOF 6
ENDMDL
MODEL 9
REMARK VINA RESULT:      -7.1     11.940     14.213
REMARK  Name = 489181
REMARK  6 active torsions:
REMARK  status: ('A' for Active; 'I' for Inactive)
REMARK    1  A    between atoms: C_1  and  C_4
REMARK    2  A    between atoms: C_1  and  O_10
REMARK    3  A    between atoms: C_1  and  C_12
REMARK    4  A    between atoms: C_1  and  C_22
REMARK    5  A    between atoms: C_12  and  N_14
REMARK    6  A    between atoms: C_22  and  N_23
REMARK                            x       y       z     vdW  Elec       q    Type
REMARK                         _______ _______ _______ _____ _____    ______ ____
ROOT
ATOM      1  C   UNL     1      34.228 -24.141 -15.494  0.00  0.00    +0.112 C 
ENDROOT
BRANCH   1   4
ATOM      2  F   UNL     1      32.280 -22.858 -17.088  0.00  0.00    -0.204 F 
ATOM      3  F   UNL     1      28.733 -24.345 -14.331  0.00  0.00    -0.204 F 
ATOM      4  C   UNL     1      32.726 -24.195 -15.179  0.00  0.00    +0.029 C 
ATOM      5  C   UNL     1      31.856 -23.538 -16.014  0.00  0.00    +0.141 C 
ATOM      6  C   UNL     1      32.320 -24.900 -14.073  0.00  0.00    +0.002 C 
ATOM      7  C   UNL     1      30.492 -23.589 -15.725  0.00  0.00    +0.059 C 
ATOM      8  C   UNL     1      30.956 -24.951 -13.783  0.00  0.00    +0.030 C 
ATOM      9  C   UNL     1      30.043 -24.296 -14.609  0.00  0.00    +0.142 C 
ENDBRANCH   1   4
BRANCH   1  10
ATOM     10  O   UNL     1      34.449 -24.519 -16.862  0.00  0.00    -0.383 OA
ATOM     11  H   UNL     1      33.977 -25.346 -17.049  0.00  0.00    +0.211 HD
ENDBRANCH   1  10
BRANCH   1  12
ATOM     12  C   UNL     1      35.019 -25.163 -14.601  0.00  0.00    -0.027 C 
ATOM     13  C   UNL     1      35.775 -26.221 -15.417  0.00  0.00    -0.020 C 
BRANCH  12  14
ATOM     14  N   UNL     1      35.985 -24.484 -13.743  0.00  0.00    +0.390 N 
ATOM     15  C   UNL     1      37.343 -25.015 -13.952  0.00  0.00    -0.073 C 
ATOM     16  C   UNL     1      35.588 -24.534 -12.335  0.00  0.00    -0.073 C 
ATOM     17  C   UNL     1      38.305 -24.791 -12.773  0.00  0.00    -0.001 C 
ATOM     18  C   UNL     1      36.469 -23.591 -11.497  0.00  0.00    -0.001 C 
ATOM     19  C   UNL     1      37.906 -23.600 -11.951  0.00  0.00    -0.048 C 
ATOM     20  C   UNL     1      38.746 -22.590 -11.682  0.00  0.00    -0.009 C 
ATOM     21  H   UNL     1      35.998 -23.500 -14.009  0.00  0.00    -0.079 HD
ENDBRANCH  12  14
ENDBRANCH   1  12
BRANCH   1  22
ATOM     22  C   UNL     1      34.777 -22.693 -15.300  0.00  0.00    +0.147 C 
BRANCH  22  23
ATOM     23  N   UNL     1      35.781 -22.273 -16.281  0.00  0.00    -0.188 N 
ATOM     24  N   UNL     1      35.457 -22.189 -17.568  0.00  0.00    -0.154 NA
ATOM     25  N   UNL     1      37.637 -21.618 -17.176  0.00  0.00    -0.203 NA
ATOM     26  C   UNL     1      37.061 -21.938 -16.040  0.00  0.00    +0.186 C 
ATOM     27  C   UNL     1      36.623 -21.785 -18.075  0.00  0.00    +0.218 C 
ENDBRANCH  22  23
ENDBRANCH   1  22
TORSDOF 6
ENDMDL
