MODEL 1
REMARK VINA RESULT:     -10.0      0.000      0.000
REMARK  Name = 35375
REMARK  11 active torsions:
REMARK  status: ('A' for Active; 'I' for Inactive)
REMARK    1  A    between atoms: C_1  and  N_17
REMARK    2  A    between atoms: C_2  and  C_8
REMARK    3  A    between atoms: C_8  and  O_9
REMARK    4  A    between atoms: O_9  and  C_10
REMARK    5  A    between atoms: C_10  and  C_11
REMARK    6  A    between atoms: C_11  and  O_12
REMARK    7  A    between atoms: O_12  and  C_13
REMARK    8  A    between atoms: C_13  and  C_14
REMARK    9  A    between atoms: C_14  and  O_15
REMARK   10  A    between atoms: N_17  and  C_19
REMARK   11  A    between atoms: C_21  and  C_28
REMARK                            x       y       z     vdW  Elec       q    Type
REMARK                         _______ _______ _______ _____ _____    ______ ____
ROOT
ATOM      1  C   UNL     1      33.226 -23.218 -16.778  0.00  0.00    +0.055 C 
ATOM      2  C   UNL     1      33.876 -23.345 -15.550  0.00  0.00    +0.089 C 
ATOM      3  C   UNL     1      31.840 -23.061 -16.819  0.00  0.00    +0.015 C 
ATOM      4  C   UNL     1      33.142 -23.315 -14.365  0.00  0.00    +0.008 C 
ATOM      5  C   UNL     1      31.105 -23.030 -15.633  0.00  0.00    +0.001 C 
ATOM      6  C   UNL     1      31.757 -23.157 -14.407  0.00  0.00    +0.000 C 
ENDROOT
BRANCH   2   8
ATOM      7  O   UNL     1      36.112 -22.607 -15.173  0.00  0.00    -0.245 OA
ATOM      8  C   UNL     1      35.322 -23.510 -15.472  0.00  0.00    +0.342 C 
BRANCH   8   9
ATOM      9  O   UNL     1      35.696 -24.791 -15.769  0.00  0.00    -0.443 OA
BRANCH   9  10
ATOM     10  C   UNL     1      36.347 -25.529 -14.729  0.00  0.00    +0.241 C 
BRANCH  10  11
ATOM     11  C   UNL     1      37.001 -26.759 -15.330  0.00  0.00    +0.190 C 
BRANCH  11  12
ATOM     12  O   UNL     1      38.266 -26.962 -14.713  0.00  0.00    -0.347 OA
BRANCH  12  13
ATOM     13  C   UNL     1      38.821 -25.739 -14.247  0.00  0.00    +0.174 C 
BRANCH  13  14
ATOM     14  C   UNL     1      40.282 -25.674 -14.651  0.00  0.00    +0.169 C 
BRANCH  14  15
ATOM     15  O   UNL     1      40.394 -25.961 -16.038  0.00  0.00    -0.379 OA
ATOM     16  H   UNL     1      40.288 -26.914 -16.182  0.00  0.00    +0.211 HD
ENDBRANCH  14  15
ENDBRANCH  13  14
ENDBRANCH  12  13
ENDBRANCH  11  12
ENDBRANCH  10  11
ENDBRANCH   9  10
ENDBRANCH   8   9
ENDBRANCH   2   8
BRANCH   1  17
ATOM     17  N   UNL     1      33.951 -23.245 -17.990  0.00  0.00    -0.312 N 
ATOM     18  H   UNL     1      34.069 -24.149 -18.360  0.00  0.00    +0.152 HD
BRANCH  17  19
ATOM     19  C   UNL     1      34.538 -22.232 -18.770  0.00  0.00    +0.048 C 
ATOM     20  C   UNL     1      33.742 -21.444 -19.603  0.00  0.00    +0.018 C 
ATOM     21  C   UNL     1      34.324 -20.440 -20.375  0.00  0.00    +0.073 C 
ATOM     22  C   UNL     1      35.914 -22.015 -18.711  0.00  0.00    +0.015 C 
ATOM     23  C   UNL     1      35.702 -20.223 -20.317  0.00  0.00    +0.004 C 
ATOM     24  C   UNL     1      36.496 -21.010 -19.484  0.00  0.00    +0.001 C 
BRANCH  21  28
ATOM     25  F   UNL     1      33.381 -18.295 -20.864  0.00  0.00    -0.166 F 
ATOM     26  F   UNL     1      33.923 -19.540 -22.556  0.00  0.00    -0.166 F 
ATOM     27  F   UNL     1      32.189 -20.049 -21.346  0.00  0.00    -0.166 F 
ATOM     28  C   UNL     1      33.476 -19.597 -21.266  0.00  0.00    +0.419 C 
ENDBRANCH  21  28
ENDBRANCH  17  19
ENDBRANCH   1  17
TORSDOF 11
ENDMDL
MODEL 2
REMARK VINA RESULT:      -9.7      3.561      6.375
REMARK  Name = 35375
REMARK  11 active torsions:
REMARK  status: ('A' for Active; 'I' for Inactive)
REMARK    1  A    between atoms: C_1  and  N_17
REMARK    2  A    between atoms: C_2  and  C_8
REMARK    3  A    between atoms: C_8  and  O_9
REMARK    4  A    between atoms: O_9  and  C_10
REMARK    5  A    between atoms: C_10  and  C_11
REMARK    6  A    between atoms: C_11  and  O_12
REMARK    7  A    between atoms: O_12  and  C_13
REMARK    8  A    between atoms: C_13  and  C_14
REMARK    9  A    between atoms: C_14  and  O_15
REMARK   10  A    between atoms: N_17  and  C_19
REMARK   11  A    between atoms: C_21  and  C_28
REMARK                            x       y       z     vdW  Elec       q    Type
REMARK                         _______ _______ _______ _____ _____    ______ ____
ROOT
ATOM      1  C   UNL     1      33.634 -23.416 -16.361  0.00  0.00    +0.055 C 
ATOM      2  C   UNL     1      32.467 -23.349 -15.600  0.00  0.00    +0.089 C 
ATOM      3  C   UNL     1      34.849 -23.729 -15.750  0.00  0.00    +0.015 C 
ATOM      4  C   UNL     1      32.514 -23.596 -14.228  0.00  0.00    +0.008 C 
ATOM      5  C   UNL     1      34.895 -23.976 -14.377  0.00  0.00    +0.001 C 
ATOM      6  C   UNL     1      33.728 -23.910 -13.617  0.00  0.00    +0.000 C 
ENDROOT
BRANCH   2   8
ATOM      7  O   UNL     1      31.052 -22.412 -17.274  0.00  0.00    -0.245 OA
ATOM      8  C   UNL     1      31.183 -23.024 -16.208  0.00  0.00    +0.342 C 
BRANCH   8   9
ATOM      9  O   UNL     1      30.141 -23.485 -15.454  0.00  0.00    -0.443 OA
BRANCH   9  10
ATOM     10  C   UNL     1      28.826 -23.094 -15.863  0.00  0.00    +0.241 C 
BRANCH  10  11
ATOM     11  C   UNL     1      28.321 -24.073 -16.906  0.00  0.00    +0.190 C 
BRANCH  11  12
ATOM     12  O   UNL     1      27.381 -23.415 -17.745  0.00  0.00    -0.347 OA
BRANCH  12  13
ATOM     13  C   UNL     1      27.066 -22.117 -17.259  0.00  0.00    +0.174 C 
BRANCH  13  14
ATOM     14  C   UNL     1      26.126 -21.437 -18.236  0.00  0.00    +0.169 C 
BRANCH  14  15
ATOM     15  O   UNL     1      26.006 -20.064 -17.887  0.00  0.00    -0.379 OA
ATOM     16  H   UNL     1      26.887 -19.693 -17.724  0.00  0.00    +0.211 HD
ENDBRANCH  14  15
ENDBRANCH  13  14
ENDBRANCH  12  13
ENDBRANCH  11  12
ENDBRANCH  10  11
ENDBRANCH   9  10
ENDBRANCH   8   9
ENDBRANCH   2   8
BRANCH   1  17
ATOM     17  N   UNL     1      33.609 -23.170 -17.752  0.00  0.00    -0.312 N 
ATOM     18  H   UNL     1      32.988 -23.753 -18.246  0.00  0.00    +0.152 HD
BRANCH  17  19
ATOM     19  C   UNL     1      34.298 -22.256 -18.569  0.00  0.00    +0.048 C 
ATOM     20  C   UNL     1      33.592 -21.448 -19.462  0.00  0.00    +0.018 C 
ATOM     21  C   UNL     1      34.275 -20.541 -20.271  0.00  0.00    +0.073 C 
ATOM     22  C   UNL     1      35.687 -22.155 -18.486  0.00  0.00    +0.015 C 
ATOM     23  C   UNL     1      35.665 -20.441 -20.189  0.00  0.00    +0.004 C 
ATOM     24  C   UNL     1      36.370 -21.247 -19.296  0.00  0.00    +0.001 C 
BRANCH  21  28
ATOM     25  F   UNL     1      32.221 -20.055 -21.396  0.00  0.00    -0.166 F 
ATOM     26  F   UNL     1      33.467 -18.365 -20.852  0.00  0.00    -0.166 F 
ATOM     27  F   UNL     1      34.069 -19.679 -22.477  0.00  0.00    -0.166 F 
ATOM     28  C   UNL     1      33.522 -19.678 -21.226  0.00  0.00    +0.419 C 
ENDBRANCH  21  28
ENDBRANCH  17  19
ENDBRANCH   1  17
TORSDOF 11
ENDMDL
MODEL 3
REMARK VINA RESULT:      -9.5      1.558      2.135
REMARK  Name = 35375
REMARK  11 active torsions:
REMARK  status: ('A' for Active; 'I' for Inactive)
REMARK    1  A    between atoms: C_1  and  N_17
REMARK    2  A    between atoms: C_2  and  C_8
REMARK    3  A    between atoms: C_8  and  O_9
REMARK    4  A    between atoms: O_9  and  C_10
REMARK    5  A    between atoms: C_10  and  C_11
REMARK    6  A    between atoms: C_11  and  O_12
REMARK    7  A    between atoms: O_12  and  C_13
REMARK    8  A    between atoms: C_13  and  C_14
REMARK    9  A    between atoms: C_14  and  O_15
REMARK   10  A    between atoms: N_17  and  C_19
REMARK   11  A    between atoms: C_21  and  C_28
REMARK                            x       y       z     vdW  Elec       q    Type
REMARK                         _______ _______ _______ _____ _____    ______ ____
ROOT
ATOM      1  C   UNL     1      32.779 -23.207 -16.794  0.00  0.00    +0.055 C 
ATOM      2  C   UNL     1      33.604 -23.444 -15.694  0.00  0.00    +0.089 C 
ATOM      3  C   UNL     1      31.410 -23.016 -16.610  0.00  0.00    +0.015 C 
ATOM      4  C   UNL     1      33.059 -23.489 -14.411  0.00  0.00    +0.008 C 
ATOM      5  C   UNL     1      30.865 -23.060 -15.326  0.00  0.00    +0.001 C 
ATOM      6  C   UNL     1      31.690 -23.296 -14.227  0.00  0.00    +0.000 C 
ENDROOT
BRANCH   2   8
ATOM      7  O   UNL     1      35.860 -22.735 -15.998  0.00  0.00    -0.245 OA
ATOM      8  C   UNL     1      35.038 -23.647 -15.852  0.00  0.00    +0.342 C 
BRANCH   8   9
ATOM      9  O   UNL     1      35.362 -24.975 -15.816  0.00  0.00    -0.443 OA
BRANCH   9  10
ATOM     10  C   UNL     1      36.286 -25.386 -14.803  0.00  0.00    +0.241 C 
BRANCH  10  11
ATOM     11  C   UNL     1      36.853 -26.743 -15.171  0.00  0.00    +0.190 C 
BRANCH  11  12
ATOM     12  O   UNL     1      38.187 -26.837 -14.687  0.00  0.00    -0.347 OA
BRANCH  12  13
ATOM     13  C   UNL     1      38.784 -25.555 -14.551  0.00  0.00    +0.174 C 
BRANCH  13  14
ATOM     14  C   UNL     1      40.286 -25.688 -14.721  0.00  0.00    +0.169 C 
BRANCH  14  15
ATOM     15  O   UNL     1      40.573 -26.013 -16.074  0.00  0.00    -0.379 OA
ATOM     16  H   UNL     1      40.528 -25.210 -16.617  0.00  0.00    +0.211 HD
ENDBRANCH  14  15
ENDBRANCH  13  14
ENDBRANCH  12  13
ENDBRANCH  11  12
ENDBRANCH  10  11
ENDBRANCH   9  10
ENDBRANCH   8   9
ENDBRANCH   2   8
BRANCH   1  17
ATOM     17  N   UNL     1      33.310 -23.158 -18.102  0.00  0.00    -0.312 N 
ATOM     18  H   UNL     1      33.456 -24.044 -18.504  0.00  0.00    +0.152 HD
BRANCH  17  19
ATOM     19  C   UNL     1      33.673 -22.089 -18.941  0.00  0.00    +0.048 C 
ATOM     20  C   UNL     1      35.020 -21.768 -19.120  0.00  0.00    +0.018 C 
ATOM     21  C   UNL     1      35.379 -20.710 -19.953  0.00  0.00    +0.073 C 
ATOM     22  C   UNL     1      32.688 -21.350 -19.595  0.00  0.00    +0.015 C 
ATOM     23  C   UNL     1      34.393 -19.969 -20.607  0.00  0.00    +0.004 C 
ATOM     24  C   UNL     1      33.048 -20.290 -20.428  0.00  0.00    +0.001 C 
BRANCH  21  28
ATOM     25  F   UNL     1      37.601 -21.439 -20.460  0.00  0.00    -0.166 F 
ATOM     26  F   UNL     1      37.036 -19.460 -21.145  0.00  0.00    -0.166 F 
ATOM     27  F   UNL     1      37.379 -19.819 -19.027  0.00  0.00    -0.166 F 
ATOM     28  C   UNL     1      36.817 -20.366 -20.145  0.00  0.00    +0.419 C 
ENDBRANCH  21  28
ENDBRANCH  17  19
ENDBRANCH   1  17
TORSDOF 11
ENDMDL
MODEL 4
REMARK VINA RESULT:      -9.3      6.082     10.402
REMARK  Name = 35375
REMARK  11 active torsions:
REMARK  status: ('A' for Active; 'I' for Inactive)
REMARK    1  A    between atoms: C_1  and  N_17
REMARK    2  A    between atoms: C_2  and  C_8
REMARK    3  A    between atoms: C_8  and  O_9
REMARK    4  A    between atoms: O_9  and  C_10
REMARK    5  A    between atoms: C_10  and  C_11
REMARK    6  A    between atoms: C_11  and  O_12
REMARK    7  A    between atoms: O_12  and  C_13
REMARK    8  A    between atoms: C_13  and  C_14
REMARK    9  A    between atoms: C_14  and  O_15
REMARK   10  A    between atoms: N_17  and  C_19
REMARK   11  A    between atoms: C_21  and  C_28
REMARK                            x       y       z     vdW  Elec       q    Type
REMARK                         _______ _______ _______ _____ _____    ______ ____
ROOT
ATOM      1  C   UNL     1      34.342 -18.167 -22.643  0.00  0.00    +0.055 C 
ATOM      2  C   UNL     1      34.673 -16.811 -22.668  0.00  0.00    +0.089 C 
ATOM      3  C   UNL     1      34.322 -18.901 -23.829  0.00  0.00    +0.015 C 
ATOM      4  C   UNL     1      34.983 -16.191 -23.878  0.00  0.00    +0.008 C 
ATOM      5  C   UNL     1      34.634 -18.281 -25.039  0.00  0.00    +0.001 C 
ATOM      6  C   UNL     1      34.965 -16.926 -25.063  0.00  0.00    +0.000 C 
ENDROOT
BRANCH   2   8
ATOM      7  O   UNL     1      35.099 -16.434 -20.352  0.00  0.00    -0.245 OA
ATOM      8  C   UNL     1      34.702 -16.016 -21.447  0.00  0.00    +0.342 C 
BRANCH   8   9
ATOM      9  O   UNL     1      34.239 -14.749 -21.664  0.00  0.00    -0.443 OA
BRANCH   9  10
ATOM     10  C   UNL     1      32.819 -14.571 -21.653  0.00  0.00    +0.241 C 
BRANCH  10  11
ATOM     11  C   UNL     1      32.455 -13.439 -22.595  0.00  0.00    +0.190 C 
BRANCH  11  12
ATOM     12  O   UNL     1      33.637 -12.956 -23.220  0.00  0.00    -0.347 OA
BRANCH  12  13
ATOM     13  C   UNL     1      33.498 -12.908 -24.633  0.00  0.00    +0.174 C 
BRANCH  13  14
ATOM     14  C   UNL     1      33.980 -11.559 -25.132  0.00  0.00    +0.169 C 
BRANCH  14  15
ATOM     15  O   UNL     1      34.660 -10.890 -24.078  0.00  0.00    -0.379 OA
ATOM     16  H   UNL     1      35.542 -11.277 -23.964  0.00  0.00    +0.211 HD
ENDBRANCH  14  15
ENDBRANCH  13  14
ENDBRANCH  12  13
ENDBRANCH  11  12
ENDBRANCH  10  11
ENDBRANCH   9  10
ENDBRANCH   8   9
ENDBRANCH   2   8
BRANCH   1  17
ATOM     17  N   UNL     1      34.024 -18.814 -21.428  0.00  0.00    -0.312 N 
ATOM     18  H   UNL     1      33.170 -18.522 -21.036  0.00  0.00    +0.152 HD
BRANCH  17  19
ATOM     19  C   UNL     1      34.690 -19.794 -20.670  0.00  0.00    +0.048 C 
ATOM     20  C   UNL     1      33.956 -20.733 -19.945  0.00  0.00    +0.018 C 
ATOM     21  C   UNL     1      34.616 -21.706 -19.194  0.00  0.00    +0.073 C 
ATOM     22  C   UNL     1      36.084 -19.828 -20.644  0.00  0.00    +0.015 C 
ATOM     23  C   UNL     1      36.011 -21.739 -19.167  0.00  0.00    +0.004 C 
ATOM     24  C   UNL     1      36.745 -20.800 -19.892  0.00  0.00    +0.001 C 
BRANCH  21  28
ATOM     25  F   UNL     1      34.406 -23.051 -17.227  0.00  0.00    -0.166 F 
ATOM     26  F   UNL     1      32.571 -22.293 -18.100  0.00  0.00    -0.166 F 
ATOM     27  F   UNL     1      33.670 -23.884 -19.095  0.00  0.00    -0.166 F 
ATOM     28  C   UNL     1      33.832 -22.710 -18.419  0.00  0.00    +0.419 C 
ENDBRANCH  21  28
ENDBRANCH  17  19
ENDBRANCH   1  17
TORSDOF 11
ENDMDL
MODEL 5
REMARK VINA RESULT:      -9.3      3.104      5.832
REMARK  Name = 35375
REMARK  11 active torsions:
REMARK  status: ('A' for Active; 'I' for Inactive)
REMARK    1  A    between atoms: C_1  and  N_17
REMARK    2  A    between atoms: C_2  and  C_8
REMARK    3  A    between atoms: C_8  and  O_9
REMARK    4  A    between atoms: O_9  and  C_10
REMARK    5  A    between atoms: C_10  and  C_11
REMARK    6  A    between atoms: C_11  and  O_12
REMARK    7  A    between atoms: O_12  and  C_13
REMARK    8  A    between atoms: C_13  and  C_14
REMARK    9  A    between atoms: C_14  and  O_15
REMARK   10  A    between atoms: N_17  and  C_19
REMARK   11  A    between atoms: C_21  and  C_28
REMARK                            x       y       z     vdW  Elec       q    Type
REMARK                         _______ _______ _______ _____ _____    ______ ____
ROOT
ATOM      1  C   UNL     1      35.721 -22.268 -17.790  0.00  0.00    +0.055 C 
ATOM      2  C   UNL     1      34.952 -22.848 -16.781  0.00  0.00    +0.089 C 
ATOM      3  C   UNL     1      36.990 -21.767 -17.499  0.00  0.00    +0.015 C 
ATOM      4  C   UNL     1      35.451 -22.927 -15.482  0.00  0.00    +0.008 C 
ATOM      5  C   UNL     1      37.490 -21.847 -16.199  0.00  0.00    +0.001 C 
ATOM      6  C   UNL     1      36.720 -22.427 -15.190  0.00  0.00    +0.000 C 
ENDROOT
BRANCH   2   8
ATOM      7  O   UNL     1      33.305 -23.966 -18.095  0.00  0.00    -0.245 OA
ATOM      8  C   UNL     1      33.622 -23.380 -17.053  0.00  0.00    +0.342 C 
BRANCH   8   9
ATOM      9  O   UNL     1      32.769 -23.153 -16.009  0.00  0.00    -0.443 OA
BRANCH   9  10
ATOM     10  C   UNL     1      31.370 -23.288 -16.279  0.00  0.00    +0.241 C 
BRANCH  10  11
ATOM     11  C   UNL     1      30.656 -23.687 -15.002  0.00  0.00    +0.190 C 
BRANCH  11  12
ATOM     12  O   UNL     1      29.375 -23.071 -14.973  0.00  0.00    -0.347 OA
BRANCH  12  13
ATOM     13  C   UNL     1      28.484 -23.675 -15.901  0.00  0.00    +0.174 C 
BRANCH  13  14
ATOM     14  C   UNL     1      27.804 -22.589 -16.713  0.00  0.00    +0.169 C 
BRANCH  14  15
ATOM     15  O   UNL     1      27.503 -23.096 -18.006  0.00  0.00    -0.379 OA
ATOM     16  H   UNL     1      28.181 -22.802 -18.635  0.00  0.00    +0.211 HD
ENDBRANCH  14  15
ENDBRANCH  13  14
ENDBRANCH  12  13
ENDBRANCH  11  12
ENDBRANCH  10  11
ENDBRANCH   9  10
ENDBRANCH   8   9
ENDBRANCH   2   8
BRANCH   1  17
ATOM     17  N   UNL     1      35.234 -22.179 -19.114  0.00  0.00    -0.312 N 
ATOM     18  H   UNL     1      35.272 -23.029 -19.608  0.00  0.00    +0.152 HD
BRANCH  17  19
ATOM     19  C   UNL     1      34.707 -21.111 -19.863  0.00  0.00    +0.048 C 
ATOM     20  C   UNL     1      35.556 -20.309 -20.626  0.00  0.00    +0.018 C 
ATOM     21  C   UNL     1      35.033 -19.252 -21.370  0.00  0.00    +0.073 C 
ATOM     22  C   UNL     1      33.336 -20.855 -19.843  0.00  0.00    +0.015 C 
ATOM     23  C   UNL     1      33.662 -18.994 -21.350  0.00  0.00    +0.004 C 
ATOM     24  C   UNL     1      32.814 -19.796 -20.587  0.00  0.00    +0.001 C 
BRANCH  21  28
ATOM     25  F   UNL     1      35.669 -17.058 -22.085  0.00  0.00    -0.166 F 
ATOM     26  F   UNL     1      37.258 -18.516 -21.852  0.00  0.00    -0.166 F 
ATOM     27  F   UNL     1      35.872 -18.679 -23.520  0.00  0.00    -0.166 F 
ATOM     28  C   UNL     1      35.939 -18.393 -22.186  0.00  0.00    +0.419 C 
ENDBRANCH  21  28
ENDBRANCH  17  19
ENDBRANCH   1  17
TORSDOF 11
ENDMDL
MODEL 6
REMARK VINA RESULT:      -9.3      3.057      4.934
REMARK  Name = 35375
REMARK  11 active torsions:
REMARK  status: ('A' for Active; 'I' for Inactive)
REMARK    1  A    between atoms: C_1  and  N_17
REMARK    2  A    between atoms: C_2  and  C_8
REMARK    3  A    between atoms: C_8  and  O_9
REMARK    4  A    between atoms: O_9  and  C_10
REMARK    5  A    between atoms: C_10  and  C_11
REMARK    6  A    between atoms: C_11  and  O_12
REMARK    7  A    between atoms: O_12  and  C_13
REMARK    8  A    between atoms: C_13  and  C_14
REMARK    9  A    between atoms: C_14  and  O_15
REMARK   10  A    between atoms: N_17  and  C_19
REMARK   11  A    between atoms: C_21  and  C_28
REMARK                            x       y       z     vdW  Elec       q    Type
REMARK                         _______ _______ _______ _____ _____    ______ ____
ROOT
ATOM      1  C   UNL     1      35.730 -22.272 -17.819  0.00  0.00    +0.055 C 
ATOM      2  C   UNL     1      34.932 -22.894 -16.859  0.00  0.00    +0.089 C 
ATOM      3  C   UNL     1      36.976 -21.755 -17.462  0.00  0.00    +0.015 C 
ATOM      4  C   UNL     1      35.379 -22.999 -15.542  0.00  0.00    +0.008 C 
ATOM      5  C   UNL     1      37.423 -21.861 -16.144  0.00  0.00    +0.001 C 
ATOM      6  C   UNL     1      36.625 -22.483 -15.185  0.00  0.00    +0.000 C 
ENDROOT
BRANCH   2   8
ATOM      7  O   UNL     1      33.367 -24.016 -18.265  0.00  0.00    -0.245 OA
ATOM      8  C   UNL     1      33.626 -23.444 -17.200  0.00  0.00    +0.342 C 
BRANCH   8   9
ATOM      9  O   UNL     1      32.723 -23.252 -16.192  0.00  0.00    -0.443 OA
BRANCH   9  10
ATOM     10  C   UNL     1      31.373 -22.974 -16.580  0.00  0.00    +0.241 C 
BRANCH  10  11
ATOM     11  C   UNL     1      30.430 -23.633 -15.592  0.00  0.00    +0.190 C 
BRANCH  11  12
ATOM     12  O   UNL     1      30.596 -23.030 -14.316  0.00  0.00    -0.347 OA
BRANCH  12  13
ATOM     13  C   UNL     1      30.624 -24.001 -13.278  0.00  0.00    +0.174 C 
BRANCH  13  14
ATOM     14  C   UNL     1      31.502 -25.160 -13.709  0.00  0.00    +0.169 C 
BRANCH  14  15
ATOM     15  O   UNL     1      32.855 -24.862 -13.391  0.00  0.00    -0.379 OA
ATOM     16  H   UNL     1      33.394 -24.906 -14.196  0.00  0.00    +0.211 HD
ENDBRANCH  14  15
ENDBRANCH  13  14
ENDBRANCH  12  13
ENDBRANCH  11  12
ENDBRANCH  10  11
ENDBRANCH   9  10
ENDBRANCH   8   9
ENDBRANCH   2   8
BRANCH   1  17
ATOM     17  N   UNL     1      35.296 -22.155 -19.159  0.00  0.00    -0.312 N 
ATOM     18  H   UNL     1      35.400 -22.983 -19.682  0.00  0.00    +0.152 HD
BRANCH  17  19
ATOM     19  C   UNL     1      34.747 -21.088 -19.891  0.00  0.00    +0.048 C 
ATOM     20  C   UNL     1      35.576 -20.269 -20.659  0.00  0.00    +0.018 C 
ATOM     21  C   UNL     1      35.031 -19.211 -21.386  0.00  0.00    +0.073 C 
ATOM     22  C   UNL     1      33.374 -20.847 -19.850  0.00  0.00    +0.015 C 
ATOM     23  C   UNL     1      33.657 -18.970 -21.344  0.00  0.00    +0.004 C 
ATOM     24  C   UNL     1      32.829 -19.788 -20.577  0.00  0.00    +0.001 C 
BRANCH  21  28
ATOM     25  F   UNL     1      35.791 -18.535 -23.551  0.00  0.00    -0.166 F 
ATOM     26  F   UNL     1      35.689 -17.000 -22.023  0.00  0.00    -0.166 F 
ATOM     27  F   UNL     1      37.240 -18.522 -21.931  0.00  0.00    -0.166 F 
ATOM     28  C   UNL     1      35.916 -18.335 -22.206  0.00  0.00    +0.419 C 
ENDBRANCH  21  28
ENDBRANCH  17  19
ENDBRANCH   1  17
TORSDOF 11
ENDMDL
MODEL 7
REMARK VINA RESULT:      -9.2      1.789      2.534
REMARK  Name = 35375
REMARK  11 active torsions:
REMARK  status: ('A' for Active; 'I' for Inactive)
REMARK    1  A    between atoms: C_1  and  N_17
REMARK    2  A    between atoms: C_2  and  C_8
REMARK    3  A    between atoms: C_8  and  O_9
REMARK    4  A    between atoms: O_9  and  C_10
REMARK    5  A    between atoms: C_10  and  C_11
REMARK    6  A    between atoms: C_11  and  O_12
REMARK    7  A    between atoms: O_12  and  C_13
REMARK    8  A    between atoms: C_13  and  C_14
REMARK    9  A    between atoms: C_14  and  O_15
REMARK   10  A    between atoms: N_17  and  C_19
REMARK   11  A    between atoms: C_21  and  C_28
REMARK                            x       y       z     vdW  Elec       q    Type
REMARK                         _______ _______ _______ _____ _____    ______ ____
ROOT
ATOM      1  C   UNL     1      32.721 -23.243 -16.681  0.00  0.00    +0.055 C 
ATOM      2  C   UNL     1      33.293 -23.545 -15.445  0.00  0.00    +0.089 C 
ATOM      3  C   UNL     1      31.382 -22.858 -16.754  0.00  0.00    +0.015 C 
ATOM      4  C   UNL     1      32.527 -23.461 -14.282  0.00  0.00    +0.008 C 
ATOM      5  C   UNL     1      30.615 -22.773 -15.591  0.00  0.00    +0.001 C 
ATOM      6  C   UNL     1      31.188 -23.075 -14.355  0.00  0.00    +0.000 C 
ENDROOT
BRANCH   2   8
ATOM      7  O   UNL     1      35.169 -24.950 -15.881  0.00  0.00    -0.245 OA
ATOM      8  C   UNL     1      34.688 -23.951 -15.334  0.00  0.00    +0.342 C 
BRANCH   8   9
ATOM      9  O   UNL     1      35.401 -23.085 -14.553  0.00  0.00    -0.443 OA
BRANCH   9  10
ATOM     10  C   UNL     1      36.787 -22.922 -14.870  0.00  0.00    +0.241 C 
BRANCH  10  11
ATOM     11  C   UNL     1      37.619 -23.290 -13.656  0.00  0.00    +0.190 C 
BRANCH  11  12
ATOM     12  O   UNL     1      36.911 -24.248 -12.880  0.00  0.00    -0.347 OA
BRANCH  12  13
ATOM     13  C   UNL     1      36.825 -23.855 -11.517  0.00  0.00    +0.174 C 
BRANCH  13  14
ATOM     14  C   UNL     1      35.573 -24.455 -10.907  0.00  0.00    +0.169 C 
BRANCH  14  15
ATOM     15  O   UNL     1      34.736 -24.941 -11.948  0.00  0.00    -0.379 OA
ATOM     16  H   UNL     1      35.104 -24.683 -12.807  0.00  0.00    +0.211 HD
ENDBRANCH  14  15
ENDBRANCH  13  14
ENDBRANCH  12  13
ENDBRANCH  11  12
ENDBRANCH  10  11
ENDBRANCH   9  10
ENDBRANCH   8   9
ENDBRANCH   2   8
BRANCH   1  17
ATOM     17  N   UNL     1      33.479 -23.321 -17.870  0.00  0.00    -0.312 N 
ATOM     18  H   UNL     1      33.513 -24.225 -18.260  0.00  0.00    +0.152 HD
BRANCH  17  19
ATOM     19  C   UNL     1      34.196 -22.360 -18.605  0.00  0.00    +0.048 C 
ATOM     20  C   UNL     1      33.527 -21.526 -19.503  0.00  0.00    +0.018 C 
ATOM     21  C   UNL     1      34.238 -20.573 -20.230  0.00  0.00    +0.073 C 
ATOM     22  C   UNL     1      35.576 -22.240 -18.438  0.00  0.00    +0.015 C 
ATOM     23  C   UNL     1      35.619 -20.453 -20.064  0.00  0.00    +0.004 C 
ATOM     24  C   UNL     1      36.287 -21.287 -19.167  0.00  0.00    +0.001 C 
BRANCH  21  28
ATOM     25  F   UNL     1      34.036 -19.717 -22.456  0.00  0.00    -0.166 F 
ATOM     26  F   UNL     1      32.199 -19.979 -21.332  0.00  0.00    -0.166 F 
ATOM     27  F   UNL     1      33.567 -18.369 -20.816  0.00  0.00    -0.166 F 
ATOM     28  C   UNL     1      33.525 -19.681 -21.190  0.00  0.00    +0.419 C 
ENDBRANCH  21  28
ENDBRANCH  17  19
ENDBRANCH   1  17
TORSDOF 11
ENDMDL
MODEL 8
REMARK VINA RESULT:      -9.2      6.093     10.420
REMARK  Name = 35375
REMARK  11 active torsions:
REMARK  status: ('A' for Active; 'I' for Inactive)
REMARK    1  A    between atoms: C_1  and  N_17
REMARK    2  A    between atoms: C_2  and  C_8
REMARK    3  A    between atoms: C_8  and  O_9
REMARK    4  A    between atoms: O_9  and  C_10
REMARK    5  A    between atoms: C_10  and  C_11
REMARK    6  A    between atoms: C_11  and  O_12
REMARK    7  A    between atoms: O_12  and  C_13
REMARK    8  A    between atoms: C_13  and  C_14
REMARK    9  A    between atoms: C_14  and  O_15
REMARK   10  A    between atoms: N_17  and  C_19
REMARK   11  A    between atoms: C_21  and  C_28
REMARK                            x       y       z     vdW  Elec       q    Type
REMARK                         _______ _______ _______ _____ _____    ______ ____
ROOT
ATOM      1  C   UNL     1      34.338 -18.081 -22.577  0.00  0.00    +0.055 C 
ATOM      2  C   UNL     1      34.604 -16.713 -22.612  0.00  0.00    +0.089 C 
ATOM      3  C   UNL     1      34.363 -18.827 -23.756  0.00  0.00    +0.015 C 
ATOM      4  C   UNL     1      34.896 -16.090 -23.825  0.00  0.00    +0.008 C 
ATOM      5  C   UNL     1      34.657 -18.204 -24.970  0.00  0.00    +0.001 C 
ATOM      6  C   UNL     1      34.923 -16.835 -25.004  0.00  0.00    +0.000 C 
ENDROOT
BRANCH   2   8
ATOM      7  O   UNL     1      35.062 -16.264 -20.316  0.00  0.00    -0.245 OA
ATOM      8  C   UNL     1      34.585 -15.906 -21.399  0.00  0.00    +0.342 C 
BRANCH   8   9
ATOM      9  O   UNL     1      33.976 -14.700 -21.609  0.00  0.00    -0.443 OA
BRANCH   9  10
ATOM     10  C   UNL     1      32.829 -14.408 -20.804  0.00  0.00    +0.241 C 
BRANCH  10  11
ATOM     11  C   UNL     1      32.204 -13.113 -21.284  0.00  0.00    +0.190 C 
BRANCH  11  12
ATOM     12  O   UNL     1      31.976 -12.264 -20.166  0.00  0.00    -0.347 OA
BRANCH  12  13
ATOM     13  C   UNL     1      31.048 -11.233 -20.474  0.00  0.00    +0.174 C 
BRANCH  13  14
ATOM     14  C   UNL     1      31.713  -9.887 -20.255  0.00  0.00    +0.169 C 
BRANCH  14  15
ATOM     15  O   UNL     1      32.333  -9.878 -18.976  0.00  0.00    -0.379 OA
ATOM     16  H   UNL     1      31.931  -9.187 -18.426  0.00  0.00    +0.211 HD
ENDBRANCH  14  15
ENDBRANCH  13  14
ENDBRANCH  12  13
ENDBRANCH  11  12
ENDBRANCH  10  11
ENDBRANCH   9  10
ENDBRANCH   8   9
ENDBRANCH   2   8
BRANCH   1  17
ATOM     17  N   UNL     1      34.040 -18.732 -21.359  0.00  0.00    -0.312 N 
ATOM     18  H   UNL     1      33.208 -18.419 -20.937  0.00  0.00    +0.152 HD
BRANCH  17  19
ATOM     19  C   UNL     1      34.700 -19.739 -20.632  0.00  0.00    +0.048 C 
ATOM     20  C   UNL     1      33.961 -20.682 -19.916  0.00  0.00    +0.018 C 
ATOM     21  C   UNL     1      34.616 -21.681 -19.197  0.00  0.00    +0.073 C 
ATOM     22  C   UNL     1      36.094 -19.796 -20.627  0.00  0.00    +0.015 C 
ATOM     23  C   UNL     1      36.011 -21.737 -19.191  0.00  0.00    +0.004 C 
ATOM     24  C   UNL     1      36.749 -20.795 -19.906  0.00  0.00    +0.001 C 
BRANCH  21  28
ATOM     25  F   UNL     1      33.703 -23.889 -19.071  0.00  0.00    -0.166 F 
ATOM     26  F   UNL     1      34.361 -22.989 -17.210  0.00  0.00    -0.166 F 
ATOM     27  F   UNL     1      32.551 -22.274 -18.181  0.00  0.00    -0.166 F 
ATOM     28  C   UNL     1      33.828 -22.688 -18.431  0.00  0.00    +0.419 C 
ENDBRANCH  21  28
ENDBRANCH  17  19
ENDBRANCH   1  17
TORSDOF 11
ENDMDL
MODEL 9
REMARK VINA RESULT:      -9.1      6.722     11.061
REMARK  Name = 35375
REMARK  11 active torsions:
REMARK  status: ('A' for Active; 'I' for Inactive)
REMARK    1  A    between atoms: C_1  and  N_17
REMARK    2  A    between atoms: C_2  and  C_8
REMARK    3  A    between atoms: C_8  and  O_9
REMARK    4  A    between atoms: O_9  and  C_10
REMARK    5  A    between atoms: C_10  and  C_11
REMARK    6  A    between atoms: C_11  and  O_12
REMARK    7  A    between atoms: O_12  and  C_13
REMARK    8  A    between atoms: C_13  and  C_14
REMARK    9  A    between atoms: C_14  and  O_15
REMARK   10  A    between atoms: N_17  and  C_19
REMARK   11  A    between atoms: C_21  and  C_28
REMARK                            x       y       z     vdW  Elec       q    Type
REMARK                         _______ _______ _______ _____ _____    ______ ____
ROOT
ATOM      1  C   UNL     1      34.746 -16.801 -23.084  0.00  0.00    +0.055 C 
ATOM      2  C   UNL     1      34.069 -15.601 -22.866  0.00  0.00    +0.089 C 
ATOM      3  C   UNL     1      34.889 -17.295 -24.381  0.00  0.00    +0.015 C 
ATOM      4  C   UNL     1      33.535 -14.896 -23.944  0.00  0.00    +0.008 C 
ATOM      5  C   UNL     1      34.356 -16.589 -25.460  0.00  0.00    +0.001 C 
ATOM      6  C   UNL     1      33.679 -15.389 -25.241  0.00  0.00    +0.000 C 
ENDROOT
BRANCH   2   8
ATOM      7  O   UNL     1      34.821 -14.924 -20.707  0.00  0.00    -0.245 OA
ATOM      8  C   UNL     1      33.902 -15.059 -21.524  0.00  0.00    +0.342 C 
BRANCH   8   9
ATOM      9  O   UNL     1      32.602 -14.714 -21.281  0.00  0.00    -0.443 OA
BRANCH   9  10
ATOM     10  C   UNL     1      32.380 -13.468 -20.612  0.00  0.00    +0.241 C 
BRANCH  10  11
ATOM     11  C   UNL     1      31.844 -12.460 -21.610  0.00  0.00    +0.190 C 
BRANCH  11  12
ATOM     12  O   UNL     1      30.899 -11.619 -20.960  0.00  0.00    -0.347 OA
BRANCH  12  13
ATOM     13  C   UNL     1      31.497 -10.879 -19.905  0.00  0.00    +0.174 C 
BRANCH  13  14
ATOM     14  C   UNL     1      31.942  -9.530 -20.437  0.00  0.00    +0.169 C 
BRANCH  14  15
ATOM     15  O   UNL     1      32.710  -8.868 -19.441  0.00  0.00    -0.379 OA
ATOM     16  H   UNL     1      32.455  -9.194 -18.564  0.00  0.00    +0.211 HD
ENDBRANCH  14  15
ENDBRANCH  13  14
ENDBRANCH  12  13
ENDBRANCH  11  12
ENDBRANCH  10  11
ENDBRANCH   9  10
ENDBRANCH   8   9
ENDBRANCH   2   8
BRANCH   1  17
ATOM     17  N   UNL     1      35.295 -17.532 -22.007  0.00  0.00    -0.312 N 
ATOM     18  H   UNL     1      36.155 -17.176 -21.684  0.00  0.00    +0.152 HD
BRANCH  17  19
ATOM     19  C   UNL     1      34.854 -18.668 -21.305  0.00  0.00    +0.048 C 
ATOM     20  C   UNL     1      35.772 -19.463 -20.617  0.00  0.00    +0.018 C 
ATOM     21  C   UNL     1      35.333 -20.589 -19.921  0.00  0.00    +0.073 C 
ATOM     22  C   UNL     1      33.499 -19.000 -21.296  0.00  0.00    +0.015 C 
ATOM     23  C   UNL     1      33.978 -20.922 -19.913  0.00  0.00    +0.004 C 
ATOM     24  C   UNL     1      33.061 -20.127 -20.600  0.00  0.00    +0.001 C 
BRANCH  21  28
ATOM     25  F   UNL     1      36.983 -20.776 -18.198  0.00  0.00    -0.166 F 
ATOM     26  F   UNL     1      35.747 -22.519 -18.569  0.00  0.00    -0.166 F 
ATOM     27  F   UNL     1      37.280 -21.951 -20.003  0.00  0.00    -0.166 F 
ATOM     28  C   UNL     1      36.313 -21.440 -19.186  0.00  0.00    +0.419 C 
ENDBRANCH  21  28
ENDBRANCH  17  19
ENDBRANCH   1  17
TORSDOF 11
ENDMDL
