MODEL 1
REMARK VINA RESULT:      -9.5      0.000      0.000
REMARK  Name = 447766
REMARK  5 active torsions:
REMARK  status: ('A' for Active; 'I' for Inactive)
REMARK    1  A    between atoms: C_7  and  C_17
REMARK    2  A    between atoms: C_9  and  N_22
REMARK    3  A    between atoms: N_22  and  C_24
REMARK    4  A    between atoms: C_24  and  C_25
REMARK    5  A    between atoms: C_25  and  N_26
REMARK                            x       y       z     vdW  Elec       q    Type
REMARK                         _______ _______ _______ _____ _____    ______ ____
ROOT
ATOM      1  F   UNL     1      37.108 -22.308 -17.529  0.00  0.00    -0.204 F 
ATOM      2  O   UNL     1      31.922 -24.177 -13.096  0.00  0.00    -0.270 OA
ATOM      3  N   UNL     1      34.259 -23.848 -13.093  0.00  0.00    -0.280 N 
ATOM      4  C   UNL     1      34.475 -23.266 -15.251  0.00  0.00    +0.021 C 
ATOM      5  C   UNL     1      33.141 -23.505 -15.055  0.00  0.00    +0.056 C 
ATOM      6  C   UNL     1      35.047 -22.876 -16.455  0.00  0.00    +0.042 C 
ATOM      7  C   UNL     1      32.247 -23.365 -16.095  0.00  0.00    +0.019 C 
ATOM      8  C   UNL     1      35.163 -23.466 -14.086  0.00  0.00    +0.051 C 
ATOM      9  C   UNL     1      34.144 -22.727 -17.531  0.00  0.00    +0.047 C 
ATOM     10  C   UNL     1      32.762 -22.972 -17.342  0.00  0.00    +0.016 C 
ATOM     11  C   UNL     1      32.972 -23.891 -13.637  0.00  0.00    +0.250 C 
ATOM     12  C   UNL     1      36.444 -22.684 -16.426  0.00  0.00    +0.141 C 
ATOM     13  C   UNL     1      36.528 -23.284 -14.039  0.00  0.00    +0.017 C 
ATOM     14  C   UNL     1      37.168 -22.888 -15.227  0.00  0.00    +0.031 C 
ATOM     15  H   UNL     1      34.491 -24.053 -12.160  0.00  0.00    +0.155 HD
ENDROOT
BRANCH   7  17
ATOM     16  N   UNL     1      30.340 -24.835 -15.585  0.00  0.00    -0.312 N 
ATOM     17  C   UNL     1      30.836 -23.605 -15.936  0.00  0.00    +0.049 C 
ATOM     18  C   UNL     1      29.764 -22.749 -16.085  0.00  0.00    +0.016 C 
ATOM     19  C   UNL     1      28.973 -24.776 -15.506  0.00  0.00    +0.062 C 
ATOM     20  C   UNL     1      28.587 -23.490 -15.814  0.00  0.00    +0.017 C 
ATOM     21  H   UNL     1      30.883 -25.638 -15.414  0.00  0.00    +0.152 HD
ENDBRANCH   7  17
BRANCH   9  22
ATOM     22  N   UNL     1      34.598 -22.336 -18.810  0.00  0.00    -0.335 N 
ATOM     23  H   UNL     1      35.514 -22.576 -19.079  0.00  0.00    +0.147 HD
BRANCH  22  24
ATOM     24  C   UNL     1      33.784 -21.605 -19.729  0.00  0.00    +0.063 C 
BRANCH  24  25
ATOM     25  C   UNL     1      34.570 -20.420 -20.277  0.00  0.00    -0.065 C 
BRANCH  25  26
ATOM     26  N   UNL     1      35.952 -20.473 -19.819  0.00  0.00    +0.382 N 
ATOM     27  H   UNL     1      35.980 -20.357 -18.806  0.00  0.00    -0.089 HD
ATOM     28  H   UNL     1      36.487 -19.725 -20.262  0.00  0.00    -0.089 HD
ATOM     29  H   UNL     1      36.360 -21.375 -20.069  0.00  0.00    -0.089 HD
ENDBRANCH  25  26
ENDBRANCH  24  25
ENDBRANCH  22  24
ENDBRANCH   9  22
TORSDOF 5
ENDMDL
MODEL 2
REMARK VINA RESULT:      -9.2      6.992     10.728
REMARK  Name = 447766
REMARK  5 active torsions:
REMARK  status: ('A' for Active; 'I' for Inactive)
REMARK    1  A    between atoms: C_7  and  C_17
REMARK    2  A    between atoms: C_9  and  N_22
REMARK    3  A    between atoms: N_22  and  C_24
REMARK    4  A    between atoms: C_24  and  C_25
REMARK    5  A    between atoms: C_25  and  N_26
REMARK                            x       y       z     vdW  Elec       q    Type
REMARK                         _______ _______ _______ _____ _____    ______ ____
ROOT
ATOM      1  F   UNL     1      32.964 -12.727 -23.494  0.00  0.00    -0.204 F 
ATOM      2  O   UNL     1      35.054 -19.450 -24.189  0.00  0.00    -0.270 OA
ATOM      3  N   UNL     1      34.375 -17.629 -25.529  0.00  0.00    -0.280 N 
ATOM      4  C   UNL     1      34.027 -16.158 -23.870  0.00  0.00    +0.021 C 
ATOM      5  C   UNL     1      34.440 -17.317 -23.268  0.00  0.00    +0.056 C 
ATOM      6  C   UNL     1      33.703 -14.984 -23.202  0.00  0.00    +0.042 C 
ATOM      7  C   UNL     1      34.562 -17.386 -21.897  0.00  0.00    +0.019 C 
ATOM      8  C   UNL     1      33.982 -16.325 -25.226  0.00  0.00    +0.051 C 
ATOM      9  C   UNL     1      33.823 -15.038 -21.796  0.00  0.00    +0.047 C 
ATOM     10  C   UNL     1      34.249 -16.230 -21.161  0.00  0.00    +0.016 C 
ATOM     11  C   UNL     1      34.677 -18.305 -24.343  0.00  0.00    +0.250 C 
ATOM     12  C   UNL     1      33.302 -13.911 -24.025  0.00  0.00    +0.141 C 
ATOM     13  C   UNL     1      33.593 -15.288 -26.046  0.00  0.00    +0.017 C 
ATOM     14  C   UNL     1      33.252 -14.071 -25.431  0.00  0.00    +0.031 C 
ATOM     15  H   UNL     1      34.432 -18.012 -26.433  0.00  0.00    +0.155 HD
ENDROOT
BRANCH   7  17
ATOM     16  N   UNL     1      36.305 -18.799 -20.885  0.00  0.00    -0.312 N 
ATOM     17  C   UNL     1      34.993 -18.582 -21.220  0.00  0.00    +0.049 C 
ATOM     18  C   UNL     1      34.266 -19.675 -20.796  0.00  0.00    +0.016 C 
ATOM     19  C   UNL     1      36.427 -20.009 -20.255  0.00  0.00    +0.062 C 
ATOM     20  C   UNL     1      35.173 -20.578 -20.186  0.00  0.00    +0.017 C 
ATOM     21  H   UNL     1      37.047 -18.179 -21.069  0.00  0.00    +0.152 HD
ENDBRANCH   7  17
BRANCH   9  22
ATOM     22  N   UNL     1      33.523 -13.912 -20.998  0.00  0.00    -0.335 N 
ATOM     23  H   UNL     1      34.234 -13.253 -20.825  0.00  0.00    +0.147 HD
BRANCH  22  24
ATOM     24  C   UNL     1      32.231 -13.688 -20.429  0.00  0.00    +0.063 C 
BRANCH  24  25
ATOM     25  C   UNL     1      31.947 -12.192 -20.377  0.00  0.00    -0.065 C 
BRANCH  25  26
ATOM     26  N   UNL     1      30.916 -11.839 -21.345  0.00  0.00    +0.382 N 
ATOM     27  H   UNL     1      30.103 -11.464 -20.855  0.00  0.00    -0.089 HD
ATOM     28  H   UNL     1      30.643 -12.670 -21.871  0.00  0.00    -0.089 HD
ATOM     29  H   UNL     1      31.279 -11.135 -21.988  0.00  0.00    -0.089 HD
ENDBRANCH  25  26
ENDBRANCH  24  25
ENDBRANCH  22  24
ENDBRANCH   9  22
TORSDOF 5
ENDMDL
MODEL 3
REMARK VINA RESULT:      -8.9      2.384      5.409
REMARK  Name = 447766
REMARK  5 active torsions:
REMARK  status: ('A' for Active; 'I' for Inactive)
REMARK    1  A    between atoms: C_7  and  C_17
REMARK    2  A    between atoms: C_9  and  N_22
REMARK    3  A    between atoms: N_22  and  C_24
REMARK    4  A    between atoms: C_24  and  C_25
REMARK    5  A    between atoms: C_25  and  N_26
REMARK                            x       y       z     vdW  Elec       q    Type
REMARK                         _______ _______ _______ _____ _____    ______ ____
ROOT
ATOM      1  F   UNL     1      32.642 -22.183 -19.089  0.00  0.00    -0.204 F 
ATOM      2  O   UNL     1      38.110 -23.175 -14.711  0.00  0.00    -0.270 OA
ATOM      3  N   UNL     1      37.655 -22.278 -16.846  0.00  0.00    -0.280 N 
ATOM      4  C   UNL     1      35.447 -22.682 -16.869  0.00  0.00    +0.021 C 
ATOM      5  C   UNL     1      35.905 -23.150 -15.666  0.00  0.00    +0.056 C 
ATOM      6  C   UNL     1      34.125 -22.734 -17.294  0.00  0.00    +0.042 C 
ATOM      7  C   UNL     1      35.036 -23.728 -14.766  0.00  0.00    +0.019 C 
ATOM      8  C   UNL     1      36.481 -22.155 -17.592  0.00  0.00    +0.051 C 
ATOM      9  C   UNL     1      33.221 -23.322 -16.382  0.00  0.00    +0.047 C 
ATOM     10  C   UNL     1      33.682 -23.811 -15.135  0.00  0.00    +0.016 C 
ATOM     11  C   UNL     1      37.361 -22.895 -15.627  0.00  0.00    +0.250 C 
ATOM     12  C   UNL     1      33.879 -22.189 -18.572  0.00  0.00    +0.141 C 
ATOM     13  C   UNL     1      36.260 -21.620 -18.842  0.00  0.00    +0.017 C 
ATOM     14  C   UNL     1      34.941 -21.640 -19.329  0.00  0.00    +0.031 C 
ATOM     15  H   UNL     1      38.546 -21.978 -17.133  0.00  0.00    +0.155 HD
ENDROOT
BRANCH   7  17
ATOM     16  N   UNL     1      36.302 -25.320 -13.381  0.00  0.00    -0.312 N 
ATOM     17  C   UNL     1      35.472 -24.234 -13.489  0.00  0.00    +0.049 C 
ATOM     18  C   UNL     1      35.187 -23.795 -12.213  0.00  0.00    +0.016 C 
ATOM     19  C   UNL     1      36.552 -25.579 -12.059  0.00  0.00    +0.062 C 
ATOM     20  C   UNL     1      35.870 -24.646 -11.309  0.00  0.00    +0.017 C 
ATOM     21  H   UNL     1      36.664 -25.836 -14.137  0.00  0.00    +0.152 HD
ENDBRANCH   7  17
BRANCH   9  22
ATOM     22  N   UNL     1      31.849 -23.437 -16.692  0.00  0.00    -0.335 N 
ATOM     23  H   UNL     1      31.585 -23.544 -17.635  0.00  0.00    +0.147 HD
BRANCH  22  24
ATOM     24  C   UNL     1      30.824 -23.402 -15.697  0.00  0.00    +0.063 C 
BRANCH  24  25
ATOM     25  C   UNL     1      30.097 -24.740 -15.663  0.00  0.00    -0.065 C 
BRANCH  25  26
ATOM     26  N   UNL     1      30.109 -25.288 -14.312  0.00  0.00    +0.382 N 
ATOM     27  H   UNL     1      30.471 -26.242 -14.335  0.00  0.00    -0.089 HD
ATOM     28  H   UNL     1      29.159 -25.295 -13.939  0.00  0.00    -0.089 HD
ATOM     29  H   UNL     1      30.704 -24.713 -13.716  0.00  0.00    -0.089 HD
ENDBRANCH  25  26
ENDBRANCH  24  25
ENDBRANCH  22  24
ENDBRANCH   9  22
TORSDOF 5
ENDMDL
MODEL 4
REMARK VINA RESULT:      -8.5     12.159     15.605
REMARK  Name = 447766
REMARK  5 active torsions:
REMARK  status: ('A' for Active; 'I' for Inactive)
REMARK    1  A    between atoms: C_7  and  C_17
REMARK    2  A    between atoms: C_9  and  N_22
REMARK    3  A    between atoms: N_22  and  C_24
REMARK    4  A    between atoms: C_24  and  C_25
REMARK    5  A    between atoms: C_25  and  N_26
REMARK                            x       y       z     vdW  Elec       q    Type
REMARK                         _______ _______ _______ _____ _____    ______ ____
ROOT
ATOM      1  F   UNL     1      31.820 -13.146 -20.944  0.00  0.00    -0.204 F 
ATOM      2  O   UNL     1      32.486  -6.112 -21.306  0.00  0.00    -0.270 OA
ATOM      3  N   UNL     1      31.921  -7.787 -19.743  0.00  0.00    -0.280 N 
ATOM      4  C   UNL     1      32.153  -9.553 -21.109  0.00  0.00    +0.021 C 
ATOM      5  C   UNL     1      32.449  -8.449 -21.863  0.00  0.00    +0.056 C 
ATOM      6  C   UNL     1      32.174 -10.863 -21.570  0.00  0.00    +0.042 C 
ATOM      7  C   UNL     1      32.802  -8.584 -23.189  0.00  0.00    +0.019 C 
ATOM      8  C   UNL     1      31.834  -9.178 -19.833  0.00  0.00    +0.051 C 
ATOM      9  C   UNL     1      32.535 -11.019 -22.927  0.00  0.00    +0.047 C 
ATOM     10  C   UNL     1      32.843  -9.886 -23.718  0.00  0.00    +0.016 C 
ATOM     11  C   UNL     1      32.303  -7.269 -20.983  0.00  0.00    +0.250 C 
ATOM     12  C   UNL     1      31.835 -11.845 -20.616  0.00  0.00    +0.141 C 
ATOM     13  C   UNL     1      31.499 -10.123 -18.889  0.00  0.00    +0.017 C 
ATOM     14  C   UNL     1      31.503 -11.469 -19.292  0.00  0.00    +0.031 C 
ATOM     15  H   UNL     1      31.743  -7.257 -18.934  0.00  0.00    +0.155 HD
ENDROOT
BRANCH   7  17
ATOM     16  N   UNL     1      32.170  -6.548 -24.418  0.00  0.00    -0.312 N 
ATOM     17  C   UNL     1      33.121  -7.453 -24.021  0.00  0.00    +0.049 C 
ATOM     18  C   UNL     1      34.327  -7.055 -24.559  0.00  0.00    +0.016 C 
ATOM     19  C   UNL     1      32.750  -5.581 -25.197  0.00  0.00    +0.062 C 
ATOM     20  C   UNL     1      34.092  -5.872 -25.302  0.00  0.00    +0.017 C 
ATOM     21  H   UNL     1      31.216  -6.585 -24.179  0.00  0.00    +0.152 HD
ENDBRANCH   7  17
BRANCH   9  22
ATOM     22  N   UNL     1      32.594 -12.299 -23.519  0.00  0.00    -0.335 N 
ATOM     23  H   UNL     1      31.767 -12.831 -23.577  0.00  0.00    +0.147 HD
BRANCH  22  24
ATOM     24  C   UNL     1      33.803 -12.858 -24.037  0.00  0.00    +0.063 C 
BRANCH  24  25
ATOM     25  C   UNL     1      33.908 -14.321 -23.626  0.00  0.00    -0.065 C 
BRANCH  25  26
ATOM     26  N   UNL     1      34.456 -14.430 -22.279  0.00  0.00    +0.382 N 
ATOM     27  H   UNL     1      34.687 -13.500 -21.929  0.00  0.00    -0.089 HD
ATOM     28  H   UNL     1      35.299 -15.004 -22.300  0.00  0.00    -0.089 HD
ATOM     29  H   UNL     1      33.766 -14.863 -21.665  0.00  0.00    -0.089 HD
ENDBRANCH  25  26
ENDBRANCH  24  25
ENDBRANCH  22  24
ENDBRANCH   9  22
TORSDOF 5
ENDMDL
MODEL 5
REMARK VINA RESULT:      -8.4      9.735     12.250
REMARK  Name = 447766
REMARK  5 active torsions:
REMARK  status: ('A' for Active; 'I' for Inactive)
REMARK    1  A    between atoms: C_7  and  C_17
REMARK    2  A    between atoms: C_9  and  N_22
REMARK    3  A    between atoms: N_22  and  C_24
REMARK    4  A    between atoms: C_24  and  C_25
REMARK    5  A    between atoms: C_25  and  N_26
REMARK                            x       y       z     vdW  Elec       q    Type
REMARK                         _______ _______ _______ _____ _____    ______ ____
ROOT
ATOM      1  F   UNL     1      32.214 -10.024 -23.239  0.00  0.00    -0.204 F 
ATOM      2  O   UNL     1      33.296 -16.641 -20.981  0.00  0.00    -0.270 OA
ATOM      3  N   UNL     1      32.356 -14.613 -20.224  0.00  0.00    -0.280 N 
ATOM      4  C   UNL     1      32.759 -13.396 -22.067  0.00  0.00    +0.021 C 
ATOM      5  C   UNL     1      33.251 -14.648 -22.324  0.00  0.00    +0.056 C 
ATOM      6  C   UNL     1      32.801 -12.326 -22.951  0.00  0.00    +0.042 C 
ATOM      7  C   UNL     1      33.847 -14.929 -23.536  0.00  0.00    +0.019 C 
ATOM      8  C   UNL     1      32.217 -13.354 -20.812  0.00  0.00    +0.051 C 
ATOM      9  C   UNL     1      33.407 -12.597 -24.197  0.00  0.00    +0.047 C 
ATOM     10  C   UNL     1      33.921 -13.886 -24.476  0.00  0.00    +0.016 C 
ATOM     11  C   UNL     1      32.997 -15.471 -21.122  0.00  0.00    +0.250 C 
ATOM     12  C   UNL     1      32.231 -11.126 -22.475  0.00  0.00    +0.141 C 
ATOM     13  C   UNL     1      31.657 -12.192 -20.330  0.00  0.00    +0.017 C 
ATOM     14  C   UNL     1      31.667 -11.071 -21.178  0.00  0.00    +0.031 C 
ATOM     15  H   UNL     1      32.051 -14.857 -19.321  0.00  0.00    +0.155 HD
ENDROOT
BRANCH   7  17
ATOM     16  N   UNL     1      35.328 -16.837 -23.070  0.00  0.00    -0.312 N 
ATOM     17  C   UNL     1      34.378 -16.230 -23.851  0.00  0.00    +0.049 C 
ATOM     18  C   UNL     1      34.091 -17.079 -24.899  0.00  0.00    +0.016 C 
ATOM     19  C   UNL     1      35.650 -18.059 -23.602  0.00  0.00    +0.062 C 
ATOM     20  C   UNL     1      34.895 -18.235 -24.741  0.00  0.00    +0.017 C 
ATOM     21  H   UNL     1      35.720 -16.456 -22.252  0.00  0.00    +0.152 HD
ENDBRANCH   7  17
BRANCH   9  22
ATOM     22  N   UNL     1      33.515 -11.593 -25.185  0.00  0.00    -0.335 N 
ATOM     23  H   UNL     1      32.815 -10.901 -25.233  0.00  0.00    +0.147 HD
BRANCH  22  24
ATOM     24  C   UNL     1      34.594 -11.540 -26.120  0.00  0.00    +0.063 C 
BRANCH  24  25
ATOM     25  C   UNL     1      35.471 -10.330 -25.822  0.00  0.00    -0.065 C 
BRANCH  25  26
ATOM     26  N   UNL     1      35.271  -9.886 -24.448  0.00  0.00    +0.382 N 
ATOM     27  H   UNL     1      35.987 -10.298 -23.849  0.00  0.00    -0.089 HD
ATOM     28  H   UNL     1      34.348 -10.180 -24.126  0.00  0.00    -0.089 HD
ATOM     29  H   UNL     1      35.337  -8.869 -24.406  0.00  0.00    -0.089 HD
ENDBRANCH  25  26
ENDBRANCH  24  25
ENDBRANCH  22  24
ENDBRANCH   9  22
TORSDOF 5
ENDMDL
MODEL 6
REMARK VINA RESULT:      -8.3      2.501      5.901
REMARK  Name = 447766
REMARK  5 active torsions:
REMARK  status: ('A' for Active; 'I' for Inactive)
REMARK    1  A    between atoms: C_7  and  C_17
REMARK    2  A    between atoms: C_9  and  N_22
REMARK    3  A    between atoms: N_22  and  C_24
REMARK    4  A    between atoms: C_24  and  C_25
REMARK    5  A    between atoms: C_25  and  N_26
REMARK                            x       y       z     vdW  Elec       q    Type
REMARK                         _______ _______ _______ _____ _____    ______ ____
ROOT
ATOM      1  F   UNL     1      34.621 -24.711 -12.361  0.00  0.00    -0.204 F 
ATOM      2  O   UNL     1      32.648 -22.256 -18.696  0.00  0.00    -0.270 OA
ATOM      3  N   UNL     1      31.696 -23.224 -16.766  0.00  0.00    -0.280 N 
ATOM      4  C   UNL     1      33.594 -23.464 -15.591  0.00  0.00    +0.021 C 
ATOM      5  C   UNL     1      33.956 -22.898 -16.785  0.00  0.00    +0.056 C 
ATOM      6  C   UNL     1      34.470 -23.784 -14.562  0.00  0.00    +0.042 C 
ATOM      7  C   UNL     1      35.277 -22.600 -17.044  0.00  0.00    +0.019 C 
ATOM      8  C   UNL     1      32.242 -23.667 -15.560  0.00  0.00    +0.051 C 
ATOM      9  C   UNL     1      35.828 -23.485 -14.811  0.00  0.00    +0.047 C 
ATOM     10  C   UNL     1      36.216 -22.900 -16.041  0.00  0.00    +0.016 C 
ATOM     11  C   UNL     1      32.719 -22.729 -17.579  0.00  0.00    +0.250 C 
ATOM     12  C   UNL     1      33.876 -24.359 -13.420  0.00  0.00    +0.141 C 
ATOM     13  C   UNL     1      31.644 -24.228 -14.453  0.00  0.00    +0.017 C 
ATOM     14  C   UNL     1      32.477 -24.574 -13.375  0.00  0.00    +0.031 C 
ATOM     15  H   UNL     1      30.742 -23.254 -17.005  0.00  0.00    +0.155 HD
ENDROOT
BRANCH   7  17
ATOM     16  N   UNL     1      35.140 -22.343 -19.487  0.00  0.00    -0.312 N 
ATOM     17  C   UNL     1      35.704 -22.005 -18.284  0.00  0.00    +0.049 C 
ATOM     18  C   UNL     1      36.678 -21.059 -18.528  0.00  0.00    +0.016 C 
ATOM     19  C   UNL     1      35.736 -21.627 -20.493  0.00  0.00    +0.062 C 
ATOM     20  C   UNL     1      36.698 -20.821 -19.925  0.00  0.00    +0.017 C 
ATOM     21  H   UNL     1      34.416 -22.998 -19.611  0.00  0.00    +0.152 HD
ENDBRANCH   7  17
BRANCH   9  22
ATOM     22  N   UNL     1      36.821 -23.761 -13.846  0.00  0.00    -0.335 N 
ATOM     23  H   UNL     1      36.812 -23.254 -13.002  0.00  0.00    +0.147 HD
BRANCH  22  24
ATOM     24  C   UNL     1      37.839 -24.744 -14.043  0.00  0.00    +0.063 C 
BRANCH  24  25
ATOM     25  C   UNL     1      37.577 -25.941 -13.137  0.00  0.00    -0.065 C 
BRANCH  25  26
ATOM     26  N   UNL     1      36.759 -26.930 -13.827  0.00  0.00    +0.382 N 
ATOM     27  H   UNL     1      35.880 -26.501 -14.120  0.00  0.00    -0.089 HD
ATOM     28  H   UNL     1      36.563 -27.709 -13.198  0.00  0.00    -0.089 HD
ATOM     29  H   UNL     1      37.259 -27.273 -14.647  0.00  0.00    -0.089 HD
ENDBRANCH  25  26
ENDBRANCH  24  25
ENDBRANCH  22  24
ENDBRANCH   9  22
TORSDOF 5
ENDMDL
MODEL 7
REMARK VINA RESULT:      -8.3     12.754     15.024
REMARK  Name = 447766
REMARK  5 active torsions:
REMARK  status: ('A' for Active; 'I' for Inactive)
REMARK    1  A    between atoms: C_7  and  C_17
REMARK    2  A    between atoms: C_9  and  N_22
REMARK    3  A    between atoms: N_22  and  C_24
REMARK    4  A    between atoms: C_24  and  C_25
REMARK    5  A    between atoms: C_25  and  N_26
REMARK                            x       y       z     vdW  Elec       q    Type
REMARK                         _______ _______ _______ _____ _____    ______ ____
ROOT
ATOM      1  F   UNL     1      31.829  -8.060 -21.041  0.00  0.00    -0.204 F 
ATOM      2  O   UNL     1      35.250 -11.540 -26.162  0.00  0.00    -0.270 OA
ATOM      3  N   UNL     1      35.135  -9.378 -25.224  0.00  0.00    -0.280 N 
ATOM      4  C   UNL     1      33.585  -9.818 -23.661  0.00  0.00    +0.021 C 
ATOM      5  C   UNL     1      33.791 -10.995 -24.332  0.00  0.00    +0.056 C 
ATOM      6  C   UNL     1      32.698  -9.647 -22.607  0.00  0.00    +0.042 C 
ATOM      7  C   UNL     1      33.094 -12.130 -23.980  0.00  0.00    +0.019 C 
ATOM      8  C   UNL     1      34.381  -8.836 -24.181  0.00  0.00    +0.051 C 
ATOM      9  C   UNL     1      31.976 -10.802 -22.233  0.00  0.00    +0.047 C 
ATOM     10  C   UNL     1      32.179 -12.024 -22.918  0.00  0.00    +0.016 C 
ATOM     11  C   UNL     1      34.811 -10.730 -25.370  0.00  0.00    +0.250 C 
ATOM     12  C   UNL     1      32.649  -8.347 -22.063  0.00  0.00    +0.141 C 
ATOM     13  C   UNL     1      34.347  -7.560 -23.663  0.00  0.00    +0.017 C 
ATOM     14  C   UNL     1      33.469  -7.321 -22.592  0.00  0.00    +0.031 C 
ATOM     15  H   UNL     1      35.789  -8.886 -25.769  0.00  0.00    +0.155 HD
ENDROOT
BRANCH   7  17
ATOM     16  N   UNL     1      32.979 -13.552 -25.985  0.00  0.00    -0.312 N 
ATOM     17  C   UNL     1      33.278 -13.389 -24.657  0.00  0.00    +0.049 C 
ATOM     18  C   UNL     1      33.745 -14.596 -24.180  0.00  0.00    +0.016 C 
ATOM     19  C   UNL     1      33.250 -14.842 -26.363  0.00  0.00    +0.062 C 
ATOM     20  C   UNL     1      33.726 -15.514 -25.260  0.00  0.00    +0.017 C 
ATOM     21  H   UNL     1      32.626 -12.851 -26.578  0.00  0.00    +0.152 HD
ENDBRANCH   7  17
BRANCH   9  22
ATOM     22  N   UNL     1      31.041 -10.763 -21.175  0.00  0.00    -0.335 N 
ATOM     23  H   UNL     1      30.230 -10.214 -21.282  0.00  0.00    +0.147 HD
BRANCH  22  24
ATOM     24  C   UNL     1      31.221 -11.483 -19.955  0.00  0.00    +0.063 C 
BRANCH  24  25
ATOM     25  C   UNL     1      31.295 -10.505 -18.789  0.00  0.00    -0.065 C 
BRANCH  25  26
ATOM     26  N   UNL     1      32.585  -9.828 -18.777  0.00  0.00    +0.382 N 
ATOM     27  H   UNL     1      33.319 -10.488 -19.035  0.00  0.00    -0.089 HD
ATOM     28  H   UNL     1      32.770  -9.463 -17.842  0.00  0.00    -0.089 HD
ATOM     29  H   UNL     1      32.572  -9.057 -19.446  0.00  0.00    -0.089 HD
ENDBRANCH  25  26
ENDBRANCH  24  25
ENDBRANCH  22  24
ENDBRANCH   9  22
TORSDOF 5
ENDMDL
MODEL 8
REMARK VINA RESULT:      -8.1     10.913     13.969
REMARK  Name = 447766
REMARK  5 active torsions:
REMARK  status: ('A' for Active; 'I' for Inactive)
REMARK    1  A    between atoms: C_7  and  C_17
REMARK    2  A    between atoms: C_9  and  N_22
REMARK    3  A    between atoms: N_22  and  C_24
REMARK    4  A    between atoms: C_24  and  C_25
REMARK    5  A    between atoms: C_25  and  N_26
REMARK                            x       y       z     vdW  Elec       q    Type
REMARK                         _______ _______ _______ _____ _____    ______ ____
ROOT
ATOM      1  F   UNL     1      34.177 -14.810 -24.162  0.00  0.00    -0.204 F 
ATOM      2  O   UNL     1      31.089  -9.939 -20.065  0.00  0.00    -0.270 OA
ATOM      3  N   UNL     1      31.624 -12.237 -20.036  0.00  0.00    -0.280 N 
ATOM      4  C   UNL     1      32.596 -12.338 -22.056  0.00  0.00    +0.021 C 
ATOM      5  C   UNL     1      32.206 -11.036 -21.888  0.00  0.00    +0.056 C 
ATOM      6  C   UNL     1      33.243 -12.838 -23.179  0.00  0.00    +0.042 C 
ATOM      7  C   UNL     1      32.446 -10.103 -22.874  0.00  0.00    +0.019 C 
ATOM      8  C   UNL     1      32.256 -13.075 -20.956  0.00  0.00    +0.051 C 
ATOM      9  C   UNL     1      33.497 -11.894 -24.199  0.00  0.00    +0.047 C 
ATOM     10  C   UNL     1      33.099 -10.545 -24.038  0.00  0.00    +0.016 C 
ATOM     11  C   UNL     1      31.561 -10.943 -20.560  0.00  0.00    +0.250 C 
ATOM     12  C   UNL     1      33.553 -14.214 -23.136  0.00  0.00    +0.141 C 
ATOM     13  C   UNL     1      32.550 -14.420 -20.896  0.00  0.00    +0.017 C 
ATOM     14  C   UNL     1      33.207 -14.987 -22.002  0.00  0.00    +0.031 C 
ATOM     15  H   UNL     1      31.278 -12.514 -19.157  0.00  0.00    +0.155 HD
ENDROOT
BRANCH   7  17
ATOM     16  N   UNL     1      32.632  -7.886 -21.822  0.00  0.00    -0.312 N 
ATOM     17  C   UNL     1      32.054  -8.723 -22.742  0.00  0.00    +0.049 C 
ATOM     18  C   UNL     1      31.106  -7.997 -23.432  0.00  0.00    +0.016 C 
ATOM     19  C   UNL     1      32.070  -6.640 -21.916  0.00  0.00    +0.062 C 
ATOM     20  C   UNL     1      31.117  -6.680 -22.909  0.00  0.00    +0.017 C 
ATOM     21  H   UNL     1      33.342  -8.141 -21.191  0.00  0.00    +0.152 HD
ENDBRANCH   7  17
BRANCH   9  22
ATOM     22  N   UNL     1      34.148 -12.274 -25.393  0.00  0.00    -0.335 N 
ATOM     23  H   UNL     1      35.103 -12.515 -25.354  0.00  0.00    +0.147 HD
BRANCH  22  24
ATOM     24  C   UNL     1      33.483 -12.321 -26.656  0.00  0.00    +0.063 C 
BRANCH  24  25
ATOM     25  C   UNL     1      33.383 -13.766 -27.129  0.00  0.00    -0.065 C 
BRANCH  25  26
ATOM     26  N   UNL     1      32.224 -14.416 -26.531  0.00  0.00    +0.382 N 
ATOM     27  H   UNL     1      31.659 -14.845 -27.264  0.00  0.00    -0.089 HD
ATOM     28  H   UNL     1      31.665 -13.723 -26.032  0.00  0.00    -0.089 HD
ATOM     29  H   UNL     1      32.536 -15.135 -25.878  0.00  0.00    -0.089 HD
ENDBRANCH  25  26
ENDBRANCH  24  25
ENDBRANCH  22  24
ENDBRANCH   9  22
TORSDOF 5
ENDMDL
MODEL 9
REMARK VINA RESULT:      -8.1     16.028     19.808
REMARK  Name = 447766
REMARK  5 active torsions:
REMARK  status: ('A' for Active; 'I' for Inactive)
REMARK    1  A    between atoms: C_7  and  C_17
REMARK    2  A    between atoms: C_9  and  N_22
REMARK    3  A    between atoms: N_22  and  C_24
REMARK    4  A    between atoms: C_24  and  C_25
REMARK    5  A    between atoms: C_25  and  N_26
REMARK                            x       y       z     vdW  Elec       q    Type
REMARK                         _______ _______ _______ _____ _____    ______ ____
ROOT
ATOM      1  F   UNL     1      33.127  -8.083 -21.462  0.00  0.00    -0.204 F 
ATOM      2  O   UNL     1      31.353  -3.180 -26.244  0.00  0.00    -0.270 OA
ATOM      3  N   UNL     1      30.628  -3.998 -24.152  0.00  0.00    -0.280 N 
ATOM      4  C   UNL     1      32.204  -5.576 -23.892  0.00  0.00    +0.021 C 
ATOM      5  C   UNL     1      32.467  -4.972 -25.093  0.00  0.00    +0.056 C 
ATOM      6  C   UNL     1      32.944  -6.614 -23.342  0.00  0.00    +0.042 C 
ATOM      7  C   UNL     1      33.535  -5.383 -25.861  0.00  0.00    +0.019 C 
ATOM      8  C   UNL     1      31.105  -5.006 -23.311  0.00  0.00    +0.051 C 
ATOM      9  C   UNL     1      34.043  -7.047 -24.117  0.00  0.00    +0.047 C 
ATOM     10  C   UNL     1      34.326  -6.432 -25.361  0.00  0.00    +0.016 C 
ATOM     11  C   UNL     1      31.440  -3.925 -25.288  0.00  0.00    +0.250 C 
ATOM     12  C   UNL     1      32.492  -7.083 -22.091  0.00  0.00    +0.141 C 
ATOM     13  C   UNL     1      30.648  -5.451 -22.090  0.00  0.00    +0.017 C 
ATOM     14  C   UNL     1      31.356  -6.501 -21.480  0.00  0.00    +0.031 C 
ATOM     15  H   UNL     1      29.847  -3.429 -23.973  0.00  0.00    +0.155 HD
ENDROOT
BRANCH   7  17
ATOM     16  N   UNL     1      32.978  -4.808 -28.188  0.00  0.00    -0.312 N 
ATOM     17  C   UNL     1      33.850  -4.778 -27.130  0.00  0.00    +0.049 C 
ATOM     18  C   UNL     1      34.980  -4.101 -27.538  0.00  0.00    +0.016 C 
ATOM     19  C   UNL     1      33.533  -4.160 -29.261  0.00  0.00    +0.062 C 
ATOM     20  C   UNL     1      34.779  -3.712 -28.885  0.00  0.00    +0.017 C 
ATOM     21  H   UNL     1      32.088  -5.229 -28.179  0.00  0.00    +0.152 HD
ENDBRANCH   7  17
BRANCH   9  22
ATOM     22  N   UNL     1      34.877  -8.096 -23.672  0.00  0.00    -0.335 N 
ATOM     23  H   UNL     1      35.403  -7.964 -22.850  0.00  0.00    +0.147 HD
BRANCH  22  24
ATOM     24  C   UNL     1      34.992  -9.341 -24.364  0.00  0.00    +0.063 C 
BRANCH  24  25
ATOM     25  C   UNL     1      33.816 -10.239 -24.000  0.00  0.00    -0.065 C 
BRANCH  25  26
ATOM     26  N   UNL     1      34.210 -11.640 -24.064  0.00  0.00    +0.382 N 
ATOM     27  H   UNL     1      35.214 -11.704 -24.237  0.00  0.00    -0.089 HD
ATOM     28  H   UNL     1      33.705 -12.103 -24.820  0.00  0.00    -0.089 HD
ATOM     29  H   UNL     1      33.989 -12.097 -23.179  0.00  0.00    -0.089 HD
ENDBRANCH  25  26
ENDBRANCH  24  25
ENDBRANCH  22  24
ENDBRANCH   9  22
TORSDOF 5
ENDMDL
