MODEL 1
REMARK VINA RESULT:      -7.9      0.000      0.000
REMARK  Name = 19266
REMARK  3 active torsions:
REMARK  status: ('A' for Active; 'I' for Inactive)
REMARK    1  A    between atoms: C_1  and  N_8
REMARK    2  A    between atoms: C_2  and  C_13
REMARK    3  A    between atoms: C_13  and  O_14
REMARK                            x       y       z     vdW  Elec       q    Type
REMARK                         _______ _______ _______ _____ _____    ______ ____
ROOT
ATOM      1  C   UNL     1      34.446 -19.147 -21.124  0.00  0.00    +0.050 C 
ATOM      2  C   UNL     1      34.384 -21.484 -19.601  0.00  0.00    +0.076 C 
ATOM      3  C   UNL     1      33.224 -19.674 -20.704  0.00  0.00    +0.015 C 
ATOM      4  C   UNL     1      35.636 -19.789 -20.783  0.00  0.00    +0.015 C 
ATOM      5  C   UNL     1      33.193 -20.842 -19.942  0.00  0.00    +0.008 C 
ATOM      6  C   UNL     1      35.606 -20.958 -20.021  0.00  0.00    +0.008 C 
ENDROOT
BRANCH   1   8
ATOM      7  O   UNL     1      35.076 -16.311 -20.332  0.00  0.00    -0.275 OA
ATOM      8  N   UNL     1      34.476 -17.980 -21.886  0.00  0.00    -0.284 N 
ATOM      9  C   UNL     1      34.777 -16.677 -21.465  0.00  0.00    +0.227 C 
ATOM     10  C   UNL     1      34.700 -15.689 -22.600  0.00  0.00    +0.095 C 
ATOM     11  H   UNL     1      34.259 -18.083 -22.841  0.00  0.00    +0.155 HD
ENDBRANCH   1   8
BRANCH   2  13
ATOM     12  O   UNL     1      34.670 -22.790 -17.617  0.00  0.00    -0.245 OA
ATOM     13  C   UNL     1      34.352 -22.702 -18.807  0.00  0.00    +0.338 C 
BRANCH  13  14
ATOM     14  O   UNL     1      33.922 -23.777 -19.523  0.00  0.00    -0.477 OA
ATOM     15  H   UNL     1      33.761 -23.695 -20.443  0.00  0.00    +0.295 HD
ENDBRANCH  13  14
ENDBRANCH   2  13
TORSDOF 3
ENDMDL
MODEL 2
REMARK VINA RESULT:      -7.9      0.018      1.341
REMARK  Name = 19266
REMARK  3 active torsions:
REMARK  status: ('A' for Active; 'I' for Inactive)
REMARK    1  A    between atoms: C_1  and  N_8
REMARK    2  A    between atoms: C_2  and  C_13
REMARK    3  A    between atoms: C_13  and  O_14
REMARK                            x       y       z     vdW  Elec       q    Type
REMARK                         _______ _______ _______ _____ _____    ______ ____
ROOT
ATOM      1  C   UNL     1      34.435 -19.133 -21.123  0.00  0.00    +0.050 C 
ATOM      2  C   UNL     1      34.374 -21.474 -19.606  0.00  0.00    +0.076 C 
ATOM      3  C   UNL     1      35.625 -19.780 -20.790  0.00  0.00    +0.015 C 
ATOM      4  C   UNL     1      33.214 -19.657 -20.696  0.00  0.00    +0.015 C 
ATOM      5  C   UNL     1      35.595 -20.951 -20.032  0.00  0.00    +0.008 C 
ATOM      6  C   UNL     1      33.183 -20.828 -19.938  0.00  0.00    +0.008 C 
ENDROOT
BRANCH   1   8
ATOM      7  O   UNL     1      35.084 -16.304 -20.322  0.00  0.00    -0.275 OA
ATOM      8  N   UNL     1      34.466 -17.963 -21.880  0.00  0.00    -0.284 N 
ATOM      9  C   UNL     1      34.775 -16.664 -21.454  0.00  0.00    +0.227 C 
ATOM     10  C   UNL     1      34.695 -15.670 -22.585  0.00  0.00    +0.095 C 
ATOM     11  H   UNL     1      34.242 -18.060 -22.834  0.00  0.00    +0.155 HD
ENDBRANCH   1   8
BRANCH   2  13
ATOM     12  O   UNL     1      34.663 -22.785 -17.626  0.00  0.00    -0.245 OA
ATOM     13  C   UNL     1      34.342 -22.694 -18.815  0.00  0.00    +0.338 C 
BRANCH  13  14
ATOM     14  O   UNL     1      33.906 -23.767 -19.531  0.00  0.00    -0.477 OA
ATOM     15  H   UNL     1      33.193 -23.672 -20.131  0.00  0.00    +0.295 HD
ENDBRANCH  13  14
ENDBRANCH   2  13
TORSDOF 3
ENDMDL
MODEL 3
REMARK VINA RESULT:      -7.6      1.842      1.853
REMARK  Name = 19266
REMARK  3 active torsions:
REMARK  status: ('A' for Active; 'I' for Inactive)
REMARK    1  A    between atoms: C_1  and  N_8
REMARK    2  A    between atoms: C_2  and  C_13
REMARK    3  A    between atoms: C_13  and  O_14
REMARK                            x       y       z     vdW  Elec       q    Type
REMARK                         _______ _______ _______ _____ _____    ______ ____
ROOT
ATOM      1  C   UNL     1      34.434 -19.279 -21.358  0.00  0.00    +0.050 C 
ATOM      2  C   UNL     1      34.053 -21.326 -19.502  0.00  0.00    +0.076 C 
ATOM      3  C   UNL     1      33.143 -19.626 -20.958  0.00  0.00    +0.015 C 
ATOM      4  C   UNL     1      35.534 -19.956 -20.830  0.00  0.00    +0.015 C 
ATOM      5  C   UNL     1      32.953 -20.650 -20.030  0.00  0.00    +0.008 C 
ATOM      6  C   UNL     1      35.343 -20.980 -19.902  0.00  0.00    +0.008 C 
ENDROOT
BRANCH   1   8
ATOM      7  O   UNL     1      34.796 -19.393 -24.345  0.00  0.00    -0.275 OA
ATOM      8  N   UNL     1      34.625 -18.256 -22.287  0.00  0.00    -0.284 N 
ATOM      9  C   UNL     1      34.790 -18.366 -23.674  0.00  0.00    +0.227 C 
ATOM     10  C   UNL     1      34.970 -17.018 -24.325  0.00  0.00    +0.095 C 
ATOM     11  H   UNL     1      34.647 -17.341 -21.922  0.00  0.00    +0.155 HD
ENDBRANCH   1   8
BRANCH   2  13
ATOM     12  O   UNL     1      34.750 -23.069 -18.018  0.00  0.00    -0.245 OA
ATOM     13  C   UNL     1      33.853 -22.394 -18.535  0.00  0.00    +0.338 C 
BRANCH  13  14
ATOM     14  O   UNL     1      32.539 -22.588 -18.238  0.00  0.00    -0.477 OA
ATOM     15  H   UNL     1      31.875 -22.176 -18.755  0.00  0.00    +0.295 HD
ENDBRANCH  13  14
ENDBRANCH   2  13
TORSDOF 3
ENDMDL
MODEL 4
REMARK VINA RESULT:      -7.1      2.622      6.006
REMARK  Name = 19266
REMARK  3 active torsions:
REMARK  status: ('A' for Active; 'I' for Inactive)
REMARK    1  A    between atoms: C_1  and  N_8
REMARK    2  A    between atoms: C_2  and  C_13
REMARK    3  A    between atoms: C_13  and  O_14
REMARK                            x       y       z     vdW  Elec       q    Type
REMARK                         _______ _______ _______ _____ _____    ______ ____
ROOT
ATOM      1  C   UNL     1      35.362 -18.990 -21.564  0.00  0.00    +0.050 C 
ATOM      2  C   UNL     1      34.678 -17.158 -23.554  0.00  0.00    +0.076 C 
ATOM      3  C   UNL     1      35.094 -19.434 -22.860  0.00  0.00    +0.015 C 
ATOM      4  C   UNL     1      35.287 -17.630 -21.263  0.00  0.00    +0.015 C 
ATOM      5  C   UNL     1      34.752 -18.518 -23.854  0.00  0.00    +0.008 C 
ATOM      6  C   UNL     1      34.945 -16.713 -22.259  0.00  0.00    +0.008 C 
ENDROOT
BRANCH   1   8
ATOM      7  O   UNL     1      33.669 -20.998 -20.093  0.00  0.00    -0.275 OA
ATOM      8  N   UNL     1      35.703 -19.906 -20.569  0.00  0.00    -0.284 N 
ATOM      9  C   UNL     1      34.870 -20.823 -19.914  0.00  0.00    +0.227 C 
ATOM     10  C   UNL     1      35.626 -21.639 -18.897  0.00  0.00    +0.095 C 
ATOM     11  H   UNL     1      36.648 -19.910 -20.293  0.00  0.00    +0.155 HD
ENDBRANCH   1   8
BRANCH   2  13
ATOM     12  O   UNL     1      33.712 -15.143 -24.409  0.00  0.00    -0.245 OA
ATOM     13  C   UNL     1      34.321 -16.203 -24.590  0.00  0.00    +0.338 C 
BRANCH  13  14
ATOM     14  O   UNL     1      34.737 -16.596 -25.826  0.00  0.00    -0.477 OA
ATOM     15  H   UNL     1      35.502 -17.130 -25.915  0.00  0.00    +0.295 HD
ENDBRANCH  13  14
ENDBRANCH   2  13
TORSDOF 3
ENDMDL
MODEL 5
REMARK VINA RESULT:      -7.1      3.180      6.754
REMARK  Name = 19266
REMARK  3 active torsions:
REMARK  status: ('A' for Active; 'I' for Inactive)
REMARK    1  A    between atoms: C_1  and  N_8
REMARK    2  A    between atoms: C_2  and  C_13
REMARK    3  A    between atoms: C_13  and  O_14
REMARK                            x       y       z     vdW  Elec       q    Type
REMARK                         _______ _______ _______ _____ _____    ______ ____
ROOT
ATOM      1  C   UNL     1      35.360 -17.800 -22.797  0.00  0.00    +0.050 C 
ATOM      2  C   UNL     1      34.113 -16.087 -24.613  0.00  0.00    +0.076 C 
ATOM      3  C   UNL     1      35.073 -18.241 -24.090  0.00  0.00    +0.015 C 
ATOM      4  C   UNL     1      35.022 -16.502 -22.413  0.00  0.00    +0.015 C 
ATOM      5  C   UNL     1      34.450 -17.385 -24.997  0.00  0.00    +0.008 C 
ATOM      6  C   UNL     1      34.398 -15.645 -23.321  0.00  0.00    +0.008 C 
ENDROOT
BRANCH   1   8
ATOM      7  O   UNL     1      34.194 -19.876 -20.955  0.00  0.00    -0.275 OA
ATOM      8  N   UNL     1      35.982 -18.656 -21.889  0.00  0.00    -0.284 N 
ATOM      9  C   UNL     1      35.388 -19.609 -21.051  0.00  0.00    +0.227 C 
ATOM     10  C   UNL     1      36.411 -20.334 -20.215  0.00  0.00    +0.095 C 
ATOM     11  H   UNL     1      36.962 -18.582 -21.830  0.00  0.00    +0.155 HD
ENDBRANCH   1   8
BRANCH   2  13
ATOM     12  O   UNL     1      33.491 -15.311 -26.789  0.00  0.00    -0.245 OA
ATOM     13  C   UNL     1      33.462 -15.195 -25.559  0.00  0.00    +0.338 C 
BRANCH  13  14
ATOM     14  O   UNL     1      32.791 -14.183 -24.943  0.00  0.00    -0.477 OA
ATOM     15  H   UNL     1      33.118 -13.306 -24.993  0.00  0.00    +0.295 HD
ENDBRANCH  13  14
ENDBRANCH   2  13
TORSDOF 3
ENDMDL
MODEL 6
REMARK VINA RESULT:      -7.0      2.602      6.823
REMARK  Name = 19266
REMARK  3 active torsions:
REMARK  status: ('A' for Active; 'I' for Inactive)
REMARK    1  A    between atoms: C_1  and  N_8
REMARK    2  A    between atoms: C_2  and  C_13
REMARK    3  A    between atoms: C_13  and  O_14
REMARK                            x       y       z     vdW  Elec       q    Type
REMARK                         _______ _______ _______ _____ _____    ______ ____
ROOT
ATOM      1  C   UNL     1      35.101 -16.952 -21.432  0.00  0.00    +0.050 C 
ATOM      2  C   UNL     1      34.004 -14.598 -22.451  0.00  0.00    +0.076 C 
ATOM      3  C   UNL     1      35.166 -16.687 -22.800  0.00  0.00    +0.015 C 
ATOM      4  C   UNL     1      34.485 -16.041 -20.573  0.00  0.00    +0.015 C 
ATOM      5  C   UNL     1      34.618 -15.510 -23.309  0.00  0.00    +0.008 C 
ATOM      6  C   UNL     1      33.937 -14.863 -21.083  0.00  0.00    +0.008 C 
ENDROOT
BRANCH   1   8
ATOM      7  O   UNL     1      34.050 -19.774 -21.472  0.00  0.00    -0.275 OA
ATOM      8  N   UNL     1      35.648 -18.130 -20.923  0.00  0.00    -0.284 N 
ATOM      9  C   UNL     1      35.113 -19.424 -20.969  0.00  0.00    +0.227 C 
ATOM     10  C   UNL     1      36.018 -20.428 -20.301  0.00  0.00    +0.095 C 
ATOM     11  H   UNL     1      36.520 -18.041 -20.475  0.00  0.00    +0.155 HD
ENDBRANCH   1   8
BRANCH   2  13
ATOM     12  O   UNL     1      32.323 -12.912 -22.687  0.00  0.00    -0.245 OA
ATOM     13  C   UNL     1      33.431 -13.371 -22.982  0.00  0.00    +0.338 C 
BRANCH  13  14
ATOM     14  O   UNL     1      34.260 -12.750 -23.865  0.00  0.00    -0.477 OA
ATOM     15  H   UNL     1      34.030 -11.911 -24.214  0.00  0.00    +0.295 HD
ENDBRANCH  13  14
ENDBRANCH   2  13
TORSDOF 3
ENDMDL
MODEL 7
REMARK VINA RESULT:      -6.8      7.837      8.902
REMARK  Name = 19266
REMARK  3 active torsions:
REMARK  status: ('A' for Active; 'I' for Inactive)
REMARK    1  A    between atoms: C_1  and  N_8
REMARK    2  A    between atoms: C_2  and  C_13
REMARK    3  A    between atoms: C_13  and  O_14
REMARK                            x       y       z     vdW  Elec       q    Type
REMARK                         _______ _______ _______ _____ _____    ______ ____
ROOT
ATOM      1  C   UNL     1      35.894 -24.769 -14.875  0.00  0.00    +0.050 C 
ATOM      2  C   UNL     1      38.665 -25.090 -14.953  0.00  0.00    +0.076 C 
ATOM      3  C   UNL     1      36.460 -26.019 -14.618  0.00  0.00    +0.015 C 
ATOM      4  C   UNL     1      36.714 -23.680 -15.172  0.00  0.00    +0.015 C 
ATOM      5  C   UNL     1      37.845 -26.179 -14.657  0.00  0.00    +0.008 C 
ATOM      6  C   UNL     1      38.100 -23.841 -15.211  0.00  0.00    +0.008 C 
ENDROOT
BRANCH   1   8
ATOM      7  O   UNL     1      34.070 -24.062 -12.586  0.00  0.00    -0.275 OA
ATOM      8  N   UNL     1      34.509 -24.609 -14.837  0.00  0.00    -0.284 N 
ATOM      9  C   UNL     1      33.706 -24.279 -13.737  0.00  0.00    +0.227 C 
ATOM     10  C   UNL     1      32.247 -24.202 -14.113  0.00  0.00    +0.095 C 
ATOM     11  H   UNL     1      34.036 -24.746 -15.689  0.00  0.00    +0.155 HD
ENDBRANCH   1   8
BRANCH   2  13
ATOM     12  O   UNL     1      40.907 -24.795 -14.172  0.00  0.00    -0.245 OA
ATOM     13  C   UNL     1      40.109 -25.257 -14.994  0.00  0.00    +0.338 C 
BRANCH  13  14
ATOM     14  O   UNL     1      40.516 -25.999 -16.061  0.00  0.00    -0.477 OA
ATOM     15  H   UNL     1      41.337 -25.816 -16.473  0.00  0.00    +0.295 HD
ENDBRANCH  13  14
ENDBRANCH   2  13
TORSDOF 3
ENDMDL
MODEL 8
REMARK VINA RESULT:      -6.8      6.110      7.878
REMARK  Name = 19266
REMARK  3 active torsions:
REMARK  status: ('A' for Active; 'I' for Inactive)
REMARK    1  A    between atoms: C_1  and  N_8
REMARK    2  A    between atoms: C_2  and  C_13
REMARK    3  A    between atoms: C_13  and  O_14
REMARK                            x       y       z     vdW  Elec       q    Type
REMARK                         _______ _______ _______ _____ _____    ______ ____
ROOT
ATOM      1  C   UNL     1      35.798 -24.132 -15.292  0.00  0.00    +0.050 C 
ATOM      2  C   UNL     1      38.499 -24.802 -15.096  0.00  0.00    +0.076 C 
ATOM      3  C   UNL     1      36.776 -23.179 -15.578  0.00  0.00    +0.015 C 
ATOM      4  C   UNL     1      36.171 -25.420 -14.907  0.00  0.00    +0.015 C 
ATOM      5  C   UNL     1      38.126 -23.513 -15.480  0.00  0.00    +0.008 C 
ATOM      6  C   UNL     1      37.523 -25.755 -14.809  0.00  0.00    +0.008 C 
ENDROOT
BRANCH   1   8
ATOM      7  O   UNL     1      34.084 -23.605 -17.711  0.00  0.00    -0.275 OA
ATOM      8  N   UNL     1      34.448 -23.797 -15.389  0.00  0.00    -0.284 N 
ATOM      9  C   UNL     1      33.695 -23.561 -16.548  0.00  0.00    +0.227 C 
ATOM     10  C   UNL     1      32.262 -23.224 -16.225  0.00  0.00    +0.095 C 
ATOM     11  H   UNL     1      33.961 -23.717 -14.537  0.00  0.00    +0.155 HD
ENDBRANCH   1   8
BRANCH   2  13
ATOM     12  O   UNL     1      40.664 -24.809 -14.078  0.00  0.00    -0.245 OA
ATOM     13  C   UNL     1      39.907 -25.150 -14.992  0.00  0.00    +0.338 C 
BRANCH  13  14
ATOM     14  O   UNL     1      40.331 -25.918 -16.034  0.00  0.00    -0.477 OA
ATOM     15  H   UNL     1      40.042 -26.806 -16.109  0.00  0.00    +0.295 HD
ENDBRANCH  13  14
ENDBRANCH   2  13
TORSDOF 3
ENDMDL
MODEL 9
REMARK VINA RESULT:      -6.8      2.177      5.450
REMARK  Name = 19266
REMARK  3 active torsions:
REMARK  status: ('A' for Active; 'I' for Inactive)
REMARK    1  A    between atoms: C_1  and  N_8
REMARK    2  A    between atoms: C_2  and  C_13
REMARK    3  A    between atoms: C_13  and  O_14
REMARK                            x       y       z     vdW  Elec       q    Type
REMARK                         _______ _______ _______ _____ _____    ______ ____
ROOT
ATOM      1  C   UNL     1      33.652 -21.057 -19.753  0.00  0.00    +0.050 C 
ATOM      2  C   UNL     1      34.800 -19.253 -21.545  0.00  0.00    +0.076 C 
ATOM      3  C   UNL     1      32.842 -20.177 -20.473  0.00  0.00    +0.015 C 
ATOM      4  C   UNL     1      35.036 -21.034 -19.929  0.00  0.00    +0.015 C 
ATOM      5  C   UNL     1      33.416 -19.276 -21.368  0.00  0.00    +0.008 C 
ATOM      6  C   UNL     1      35.610 -20.132 -20.825  0.00  0.00    +0.008 C 
ENDROOT
BRANCH   1   8
ATOM      7  O   UNL     1      34.920 -22.791 -17.643  0.00  0.00    -0.275 OA
ATOM      8  N   UNL     1      33.078 -21.957 -18.856  0.00  0.00    -0.284 N 
ATOM      9  C   UNL     1      33.719 -22.745 -17.889  0.00  0.00    +0.227 C 
ATOM     10  C   UNL     1      32.739 -23.591 -17.117  0.00  0.00    +0.095 C 
ATOM     11  H   UNL     1      32.099 -22.053 -18.908  0.00  0.00    +0.155 HD
ENDBRANCH   1   8
BRANCH   2  13
ATOM     12  O   UNL     1      34.776 -17.550 -23.225  0.00  0.00    -0.245 OA
ATOM     13  C   UNL     1      35.399 -18.313 -22.479  0.00  0.00    +0.338 C 
BRANCH  13  14
ATOM     14  O   UNL     1      36.759 -18.349 -22.453  0.00  0.00    -0.477 OA
ATOM     15  H   UNL     1      37.217 -19.074 -22.831  0.00  0.00    +0.295 HD
ENDBRANCH  13  14
ENDBRANCH   2  13
TORSDOF 3
ENDMDL
