MODEL 1
REMARK VINA RESULT:      -6.4      0.000      0.000
REMARK  Name = 5289313
REMARK  10 active torsions:
REMARK  status: ('A' for Active; 'I' for Inactive)
REMARK    1  A    between atoms: C_1  and  O_2
REMARK    2  A    between atoms: C_1  and  C_4
REMARK    3  A    between atoms: C_1  and  C_12
REMARK    4  A    between atoms: C_4  and  C_5
REMARK    5  A    between atoms: C_5  and  O_6
REMARK    6  A    between atoms: C_5  and  C_9
REMARK    7  A    between atoms: C_9  and  O_10
REMARK    8  A    between atoms: C_12  and  O_13
REMARK    9  A    between atoms: C_12  and  C_15
REMARK   10  A    between atoms: C_15  and  O_16
REMARK                            x       y       z     vdW  Elec       q    Type
REMARK                         _______ _______ _______ _____ _____    ______ ____
ROOT
ATOM      1  C   UNL     1      37.032 -25.017 -12.772  0.00  0.00    +0.143 C 
ENDROOT
BRANCH   1   2
ATOM      2  O   UNL     1      36.741 -26.177 -11.994  0.00  0.00    -0.382 OA
ATOM      3  H   UNL     1      37.173 -26.102 -11.128  0.00  0.00    +0.210 HD
ENDBRANCH   1   2
BRANCH   1   4
ATOM      4  C   UNL     1      38.520 -25.014 -13.176  0.00  0.00    +0.073 C 
BRANCH   4   5
ATOM      5  C   UNL     1      38.814 -25.600 -14.563  0.00  0.00    +0.212 C 
BRANCH   5   6
ATOM      6  O   UNL     1      38.532 -26.992 -14.565  0.00  0.00    -0.374 OA
ATOM      7  H   UNL     1      37.595 -27.132 -14.774  0.00  0.00    +0.211 HD
ENDBRANCH   5   6
BRANCH   5   9
ATOM      8  O   UNL     1      41.072 -24.719 -14.388  0.00  0.00    -0.248 OA
ATOM      9  C   UNL     1      40.252 -25.392 -14.998  0.00  0.00    +0.341 C 
BRANCH   9  10
ATOM     10  O   UNL     1      40.534 -26.022 -16.167  0.00  0.00    -0.479 OA
ATOM     11  H   UNL     1      41.078 -25.603 -16.806  0.00  0.00    +0.295 HD
ENDBRANCH   9  10
ENDBRANCH   5   9
ENDBRANCH   4   5
ENDBRANCH   1   4
BRANCH   1  12
ATOM     12  C   UNL     1      36.644 -23.756 -11.980  0.00  0.00    +0.166 C 
BRANCH  12  13
ATOM     13  O   UNL     1      37.797 -23.268 -11.292  0.00  0.00    -0.379 OA
ATOM     14  H   UNL     1      37.520 -22.651 -10.596  0.00  0.00    +0.211 HD
ENDBRANCH  12  13
BRANCH  12  15
ATOM     15  C   UNL     1      35.543 -24.035 -10.957  0.00  0.00    +0.169 C 
BRANCH  15  16
ATOM     16  O   UNL     1      36.115 -24.222  -9.667  0.00  0.00    -0.379 OA
ATOM     17  H   UNL     1      36.862 -24.837  -9.731  0.00  0.00    +0.211 HD
ENDBRANCH  15  16
ENDBRANCH  12  15
ENDBRANCH   1  12
TORSDOF 10
ENDMDL
MODEL 2
REMARK VINA RESULT:      -6.2      1.491      5.225
REMARK  Name = 5289313
REMARK  10 active torsions:
REMARK  status: ('A' for Active; 'I' for Inactive)
REMARK    1  A    between atoms: C_1  and  O_2
REMARK    2  A    between atoms: C_1  and  C_4
REMARK    3  A    between atoms: C_1  and  C_12
REMARK    4  A    between atoms: C_4  and  C_5
REMARK    5  A    between atoms: C_5  and  O_6
REMARK    6  A    between atoms: C_5  and  C_9
REMARK    7  A    between atoms: C_9  and  O_10
REMARK    8  A    between atoms: C_12  and  O_13
REMARK    9  A    between atoms: C_12  and  C_15
REMARK   10  A    between atoms: C_15  and  O_16
REMARK                            x       y       z     vdW  Elec       q    Type
REMARK                         _______ _______ _______ _____ _____    ______ ____
ROOT
ATOM      1  C   UNL     1      37.798 -25.958 -14.442  0.00  0.00    +0.143 C 
ENDROOT
BRANCH   1   2
ATOM      2  O   UNL     1      37.457 -26.377 -15.763  0.00  0.00    -0.382 OA
ATOM      3  H   UNL     1      37.309 -27.336 -15.769  0.00  0.00    +0.210 HD
ENDBRANCH   1   2
BRANCH   1   4
ATOM      4  C   UNL     1      36.571 -25.321 -13.760  0.00  0.00    +0.073 C 
BRANCH   4   5
ATOM      5  C   UNL     1      36.671 -25.202 -12.233  0.00  0.00    +0.212 C 
BRANCH   5   6
ATOM      6  O   UNL     1      36.951 -26.476 -11.671  0.00  0.00    -0.374 OA
ATOM      7  H   UNL     1      36.264 -26.702 -11.024  0.00  0.00    +0.211 HD
ENDBRANCH   5   6
BRANCH   5   9
ATOM      8  O   UNL     1      34.610 -23.915 -12.163  0.00  0.00    -0.248 OA
ATOM      9  C   UNL     1      35.404 -24.658 -11.601  0.00  0.00    +0.341 C 
BRANCH   9  10
ATOM     10  O   UNL     1      35.251 -25.068 -10.316  0.00  0.00    -0.479 OA
ATOM     11  H   UNL     1      34.429 -24.951  -9.881  0.00  0.00    +0.295 HD
ENDBRANCH   9  10
ENDBRANCH   5   9
ENDBRANCH   4   5
ENDBRANCH   1   4
BRANCH   1  12
ATOM     12  C   UNL     1      38.993 -24.991 -14.502  0.00  0.00    +0.166 C 
BRANCH  12  13
ATOM     13  O   UNL     1      38.794 -24.072 -15.577  0.00  0.00    -0.379 OA
ATOM     14  H   UNL     1      39.475 -23.382 -15.543  0.00  0.00    +0.211 HD
ENDBRANCH  12  13
BRANCH  12  15
ATOM     15  C   UNL     1      40.316 -25.725 -14.723  0.00  0.00    +0.169 C 
BRANCH  15  16
ATOM     16  O   UNL     1      40.503 -25.982 -16.111  0.00  0.00    -0.379 OA
ATOM     17  H   UNL     1      39.763 -25.605 -16.612  0.00  0.00    +0.211 HD
ENDBRANCH  15  16
ENDBRANCH  12  15
ENDBRANCH   1  12
TORSDOF 10
ENDMDL
MODEL 3
REMARK VINA RESULT:      -6.2      1.768      4.965
REMARK  Name = 5289313
REMARK  10 active torsions:
REMARK  status: ('A' for Active; 'I' for Inactive)
REMARK    1  A    between atoms: C_1  and  O_2
REMARK    2  A    between atoms: C_1  and  C_4
REMARK    3  A    between atoms: C_1  and  C_12
REMARK    4  A    between atoms: C_4  and  C_5
REMARK    5  A    between atoms: C_5  and  O_6
REMARK    6  A    between atoms: C_5  and  C_9
REMARK    7  A    between atoms: C_9  and  O_10
REMARK    8  A    between atoms: C_12  and  O_13
REMARK    9  A    between atoms: C_12  and  C_15
REMARK   10  A    between atoms: C_15  and  O_16
REMARK                            x       y       z     vdW  Elec       q    Type
REMARK                         _______ _______ _______ _____ _____    ______ ____
ROOT
ATOM      1  C   UNL     1      37.343 -24.198 -14.426  0.00  0.00    +0.143 C 
ENDROOT
BRANCH   1   2
ATOM      2  O   UNL     1      38.529 -24.025 -15.200  0.00  0.00    -0.382 OA
ATOM      3  H   UNL     1      38.369 -23.367 -15.894  0.00  0.00    +0.210 HD
ENDBRANCH   1   2
BRANCH   1   4
ATOM      4  C   UNL     1      37.688 -24.176 -12.923  0.00  0.00    +0.073 C 
BRANCH   4   5
ATOM      5  C   UNL     1      36.730 -23.351 -12.052  0.00  0.00    +0.212 C 
BRANCH   5   6
ATOM      6  O   UNL     1      37.466 -22.390 -11.310  0.00  0.00    -0.374 OA
ATOM      7  H   UNL     1      37.933 -21.798 -11.920  0.00  0.00    +0.211 HD
ENDBRANCH   5   6
BRANCH   5   9
ATOM      8  O   UNL     1      36.095 -24.229  -9.877  0.00  0.00    -0.248 OA
ATOM      9  C   UNL     1      35.928 -24.204 -11.089  0.00  0.00    +0.341 C 
BRANCH   9  10
ATOM     10  O   UNL     1      35.003 -24.968 -11.724  0.00  0.00    -0.479 OA
ATOM     11  H   UNL     1      34.164 -25.112 -11.332  0.00  0.00    +0.295 HD
ENDBRANCH   9  10
ENDBRANCH   5   9
ENDBRANCH   4   5
ENDBRANCH   1   4
BRANCH   1  12
ATOM     12  C   UNL     1      36.644 -25.504 -14.839  0.00  0.00    +0.166 C 
BRANCH  12  13
ATOM     13  O   UNL     1      35.257 -25.415 -14.505  0.00  0.00    -0.379 OA
ATOM     14  H   UNL     1      34.878 -24.621 -14.913  0.00  0.00    +0.211 HD
ENDBRANCH  12  13
BRANCH  12  15
ATOM     15  C   UNL     1      37.240 -26.724 -14.137  0.00  0.00    +0.169 C 
BRANCH  15  16
ATOM     16  O   UNL     1      38.505 -27.042 -14.707  0.00  0.00    -0.379 OA
ATOM     17  H   UNL     1      38.876 -27.818 -14.259  0.00  0.00    +0.211 HD
ENDBRANCH  15  16
ENDBRANCH  12  15
ENDBRANCH   1  12
TORSDOF 10
ENDMDL
MODEL 4
REMARK VINA RESULT:      -6.2      1.385      1.728
REMARK  Name = 5289313
REMARK  10 active torsions:
REMARK  status: ('A' for Active; 'I' for Inactive)
REMARK    1  A    between atoms: C_1  and  O_2
REMARK    2  A    between atoms: C_1  and  C_4
REMARK    3  A    between atoms: C_1  and  C_12
REMARK    4  A    between atoms: C_4  and  C_5
REMARK    5  A    between atoms: C_5  and  O_6
REMARK    6  A    between atoms: C_5  and  C_9
REMARK    7  A    between atoms: C_9  and  O_10
REMARK    8  A    between atoms: C_12  and  O_13
REMARK    9  A    between atoms: C_12  and  C_15
REMARK   10  A    between atoms: C_15  and  O_16
REMARK                            x       y       z     vdW  Elec       q    Type
REMARK                         _______ _______ _______ _____ _____    ______ ____
ROOT
ATOM      1  C   UNL     1      36.727 -25.597 -12.808  0.00  0.00    +0.143 C 
ENDROOT
BRANCH   1   2
ATOM      2  O   UNL     1      36.971 -26.697 -11.934  0.00  0.00    -0.382 OA
ATOM      3  H   UNL     1      36.174 -27.248 -11.877  0.00  0.00    +0.210 HD
ENDBRANCH   1   2
BRANCH   1   4
ATOM      4  C   UNL     1      38.063 -25.038 -13.336  0.00  0.00    +0.073 C 
BRANCH   4   5
ATOM      5  C   UNL     1      38.562 -25.678 -14.639  0.00  0.00    +0.212 C 
BRANCH   5   6
ATOM      6  O   UNL     1      38.316 -27.076 -14.610  0.00  0.00    -0.374 OA
ATOM      7  H   UNL     1      37.586 -27.264 -13.998  0.00  0.00    +0.211 HD
ENDBRANCH   5   6
BRANCH   5   9
ATOM      8  O   UNL     1      40.783 -24.841 -14.119  0.00  0.00    -0.248 OA
ATOM      9  C   UNL     1      40.040 -25.447 -14.880  0.00  0.00    +0.341 C 
BRANCH   9  10
ATOM     10  O   UNL     1      40.459 -25.971 -16.061  0.00  0.00    -0.479 OA
ATOM     11  H   UNL     1      39.957 -26.642 -16.480  0.00  0.00    +0.295 HD
ENDBRANCH   9  10
ENDBRANCH   5   9
ENDBRANCH   4   5
ENDBRANCH   1   4
BRANCH   1  12
ATOM     12  C   UNL     1      35.903 -24.527 -12.071  0.00  0.00    +0.166 C 
BRANCH  12  13
ATOM     13  O   UNL     1      35.397 -25.085 -10.857  0.00  0.00    -0.379 OA
ATOM     14  H   UNL     1      36.096 -25.084 -10.185  0.00  0.00    +0.211 HD
ENDBRANCH  12  13
BRANCH  12  15
ATOM     15  C   UNL     1      34.727 -24.027 -12.909  0.00  0.00    +0.169 C 
BRANCH  15  16
ATOM     16  O   UNL     1      35.170 -23.025 -13.819  0.00  0.00    -0.379 OA
ATOM     17  H   UNL     1      34.922 -22.150 -13.483  0.00  0.00    +0.211 HD
ENDBRANCH  15  16
ENDBRANCH  12  15
ENDBRANCH   1  12
TORSDOF 10
ENDMDL
MODEL 5
REMARK VINA RESULT:      -6.2      1.018      5.191
REMARK  Name = 5289313
REMARK  10 active torsions:
REMARK  status: ('A' for Active; 'I' for Inactive)
REMARK    1  A    between atoms: C_1  and  O_2
REMARK    2  A    between atoms: C_1  and  C_4
REMARK    3  A    between atoms: C_1  and  C_12
REMARK    4  A    between atoms: C_4  and  C_5
REMARK    5  A    between atoms: C_5  and  O_6
REMARK    6  A    between atoms: C_5  and  C_9
REMARK    7  A    between atoms: C_9  and  O_10
REMARK    8  A    between atoms: C_12  and  O_13
REMARK    9  A    between atoms: C_12  and  C_15
REMARK   10  A    between atoms: C_15  and  O_16
REMARK                            x       y       z     vdW  Elec       q    Type
REMARK                         _______ _______ _______ _____ _____    ______ ____
ROOT
ATOM      1  C   UNL     1      37.670 -25.267 -13.457  0.00  0.00    +0.143 C 
ENDROOT
BRANCH   1   2
ATOM      2  O   UNL     1      36.943 -26.479 -13.263  0.00  0.00    -0.382 OA
ATOM      3  H   UNL     1      37.365 -27.193 -13.767  0.00  0.00    +0.210 HD
ENDBRANCH   1   2
BRANCH   1   4
ATOM      4  C   UNL     1      36.718 -24.059 -13.346  0.00  0.00    +0.073 C 
BRANCH   4   5
ATOM      5  C   UNL     1      36.652 -23.414 -11.955  0.00  0.00    +0.212 C 
BRANCH   5   6
ATOM      6  O   UNL     1      37.965 -23.244 -11.443  0.00  0.00    -0.374 OA
ATOM      7  H   UNL     1      38.308 -24.101 -11.141  0.00  0.00    +0.211 HD
ENDBRANCH   5   6
BRANCH   5   9
ATOM      8  O   UNL     1      36.032 -24.243  -9.756  0.00  0.00    -0.248 OA
ATOM      9  C   UNL     1      35.844 -24.230 -10.965  0.00  0.00    +0.341 C 
BRANCH   9  10
ATOM     10  O   UNL     1      34.887 -24.977 -11.573  0.00  0.00    -0.479 OA
ATOM     11  H   UNL     1      33.993 -24.909 -11.297  0.00  0.00    +0.295 HD
ENDBRANCH   9  10
ENDBRANCH   5   9
ENDBRANCH   4   5
ENDBRANCH   1   4
BRANCH   1  12
ATOM     12  C   UNL     1      38.392 -25.311 -14.815  0.00  0.00    +0.166 C 
BRANCH  12  13
ATOM     13  O   UNL     1      37.737 -26.260 -15.658  0.00  0.00    -0.379 OA
ATOM     14  H   UNL     1      37.481 -27.034 -15.135  0.00  0.00    +0.211 HD
ENDBRANCH  12  13
BRANCH  12  15
ATOM     15  C   UNL     1      39.861 -25.711 -14.672  0.00  0.00    +0.169 C 
BRANCH  15  16
ATOM     16  O   UNL     1      40.429 -25.935 -15.958  0.00  0.00    -0.379 OA
ATOM     17  H   UNL     1      40.018 -26.715 -16.363  0.00  0.00    +0.211 HD
ENDBRANCH  15  16
ENDBRANCH  12  15
ENDBRANCH   1  12
TORSDOF 10
ENDMDL
MODEL 6
REMARK VINA RESULT:      -5.9      1.845      4.851
REMARK  Name = 5289313
REMARK  10 active torsions:
REMARK  status: ('A' for Active; 'I' for Inactive)
REMARK    1  A    between atoms: C_1  and  O_2
REMARK    2  A    between atoms: C_1  and  C_4
REMARK    3  A    between atoms: C_1  and  C_12
REMARK    4  A    between atoms: C_4  and  C_5
REMARK    5  A    between atoms: C_5  and  O_6
REMARK    6  A    between atoms: C_5  and  C_9
REMARK    7  A    between atoms: C_9  and  O_10
REMARK    8  A    between atoms: C_12  and  O_13
REMARK    9  A    between atoms: C_12  and  C_15
REMARK   10  A    between atoms: C_15  and  O_16
REMARK                            x       y       z     vdW  Elec       q    Type
REMARK                         _______ _______ _______ _____ _____    ______ ____
ROOT
ATOM      1  C   UNL     1      37.827 -25.901 -14.225  0.00  0.00    +0.143 C 
ENDROOT
BRANCH   1   2
ATOM      2  O   UNL     1      38.880 -26.802 -14.566  0.00  0.00    -0.382 OA
ATOM      3  H   UNL     1      39.186 -26.615 -15.467  0.00  0.00    +0.210 HD
ENDBRANCH   1   2
BRANCH   1   4
ATOM      4  C   UNL     1      37.685 -25.815 -12.692  0.00  0.00    +0.073 C 
BRANCH   4   5
ATOM      5  C   UNL     1      37.273 -24.436 -12.158  0.00  0.00    +0.212 C 
BRANCH   5   6
ATOM      6  O   UNL     1      38.363 -23.843 -11.469  0.00  0.00    -0.374 OA
ATOM      7  H   UNL     1      38.039 -23.112 -10.919  0.00  0.00    +0.211 HD
ENDBRANCH   5   6
BRANCH   5   9
ATOM      8  O   UNL     1      34.968 -24.902 -11.541  0.00  0.00    -0.248 OA
ATOM      9  C   UNL     1      36.080 -24.499 -11.224  0.00  0.00    +0.341 C 
BRANCH   9  10
ATOM     10  O   UNL     1      36.371 -24.033  -9.983  0.00  0.00    -0.479 OA
ATOM     11  H   UNL     1      36.664 -23.150  -9.870  0.00  0.00    +0.295 HD
ENDBRANCH   9  10
ENDBRANCH   5   9
ENDBRANCH   4   5
ENDBRANCH   1   4
BRANCH   1  12
ATOM     12  C   UNL     1      36.522 -26.354 -14.902  0.00  0.00    +0.166 C 
BRANCH  12  13
ATOM     13  O   UNL     1      36.843 -27.063 -16.101  0.00  0.00    -0.379 OA
ATOM     14  H   UNL     1      36.028 -27.253 -16.591  0.00  0.00    +0.211 HD
ENDBRANCH  12  13
BRANCH  12  15
ATOM     15  C   UNL     1      35.619 -25.173 -15.257  0.00  0.00    +0.169 C 
BRANCH  15  16
ATOM     16  O   UNL     1      34.489 -25.149 -14.392  0.00  0.00    -0.379 OA
ATOM     17  H   UNL     1      34.142 -24.245 -14.337  0.00  0.00    +0.211 HD
ENDBRANCH  15  16
ENDBRANCH  12  15
ENDBRANCH   1  12
TORSDOF 10
ENDMDL
MODEL 7
REMARK VINA RESULT:      -5.8      1.645      5.005
REMARK  Name = 5289313
REMARK  10 active torsions:
REMARK  status: ('A' for Active; 'I' for Inactive)
REMARK    1  A    between atoms: C_1  and  O_2
REMARK    2  A    between atoms: C_1  and  C_4
REMARK    3  A    between atoms: C_1  and  C_12
REMARK    4  A    between atoms: C_4  and  C_5
REMARK    5  A    between atoms: C_5  and  O_6
REMARK    6  A    between atoms: C_5  and  C_9
REMARK    7  A    between atoms: C_9  and  O_10
REMARK    8  A    between atoms: C_12  and  O_13
REMARK    9  A    between atoms: C_12  and  C_15
REMARK   10  A    between atoms: C_15  and  O_16
REMARK                            x       y       z     vdW  Elec       q    Type
REMARK                         _______ _______ _______ _____ _____    ______ ____
ROOT
ATOM      1  C   UNL     1      37.649 -25.913 -13.093  0.00  0.00    +0.143 C 
ENDROOT
BRANCH   1   2
ATOM      2  O   UNL     1      36.995 -26.744 -12.135  0.00  0.00    -0.382 OA
ATOM      3  H   UNL     1      37.216 -26.442 -11.241  0.00  0.00    +0.210 HD
ENDBRANCH   1   2
BRANCH   1   4
ATOM      4  C   UNL     1      36.858 -24.603 -13.280  0.00  0.00    +0.073 C 
BRANCH   4   5
ATOM      5  C   UNL     1      35.796 -24.331 -12.206  0.00  0.00    +0.212 C 
BRANCH   5   6
ATOM      6  O   UNL     1      34.838 -23.408 -12.702  0.00  0.00    -0.374 OA
ATOM      7  H   UNL     1      34.131 -23.891 -13.160  0.00  0.00    +0.211 HD
ENDBRANCH   5   6
BRANCH   5   9
ATOM      8  O   UNL     1      36.095 -24.174  -9.799  0.00  0.00    -0.248 OA
ATOM      9  C   UNL     1      36.385 -23.781 -10.922  0.00  0.00    +0.341 C 
BRANCH   9  10
ATOM     10  O   UNL     1      37.267 -22.774 -11.148  0.00  0.00    -0.479 OA
ATOM     11  H   UNL     1      38.188 -22.937 -11.096  0.00  0.00    +0.295 HD
ENDBRANCH   9  10
ENDBRANCH   5   9
ENDBRANCH   4   5
ENDBRANCH   1   4
BRANCH   1  12
ATOM     12  C   UNL     1      37.815 -26.683 -14.415  0.00  0.00    +0.166 C 
BRANCH  12  13
ATOM     13  O   UNL     1      38.897 -26.111 -15.153  0.00  0.00    -0.379 OA
ATOM     14  H   UNL     1      39.550 -25.746 -14.536  0.00  0.00    +0.211 HD
ENDBRANCH  12  13
BRANCH  12  15
ATOM     15  C   UNL     1      36.552 -26.628 -15.274  0.00  0.00    +0.169 C 
BRANCH  15  16
ATOM     16  O   UNL     1      36.740 -27.390 -16.462  0.00  0.00    -0.379 OA
ATOM     17  H   UNL     1      36.777 -26.793 -17.227  0.00  0.00    +0.211 HD
ENDBRANCH  15  16
ENDBRANCH  12  15
ENDBRANCH   1  12
TORSDOF 10
ENDMDL
MODEL 8
REMARK VINA RESULT:      -5.7      2.306      4.989
REMARK  Name = 5289313
REMARK  10 active torsions:
REMARK  status: ('A' for Active; 'I' for Inactive)
REMARK    1  A    between atoms: C_1  and  O_2
REMARK    2  A    between atoms: C_1  and  C_4
REMARK    3  A    between atoms: C_1  and  C_12
REMARK    4  A    between atoms: C_4  and  C_5
REMARK    5  A    between atoms: C_5  and  O_6
REMARK    6  A    between atoms: C_5  and  C_9
REMARK    7  A    between atoms: C_9  and  O_10
REMARK    8  A    between atoms: C_12  and  O_13
REMARK    9  A    between atoms: C_12  and  C_15
REMARK   10  A    between atoms: C_15  and  O_16
REMARK                            x       y       z     vdW  Elec       q    Type
REMARK                         _______ _______ _______ _____ _____    ______ ____
ROOT
ATOM      1  C   UNL     1      37.363 -25.268 -14.716  0.00  0.00    +0.143 C 
ENDROOT
BRANCH   1   2
ATOM      2  O   UNL     1      37.020 -26.279 -15.662  0.00  0.00    -0.382 OA
ATOM      3  H   UNL     1      37.504 -26.125 -16.489  0.00  0.00    +0.210 HD
ENDBRANCH   1   2
BRANCH   1   4
ATOM      4  C   UNL     1      37.042 -25.754 -13.288  0.00  0.00    +0.073 C 
BRANCH   4   5
ATOM      5  C   UNL     1      36.771 -24.637 -12.271  0.00  0.00    +0.212 C 
BRANCH   5   6
ATOM      6  O   UNL     1      37.814 -24.601 -11.309  0.00  0.00    -0.374 OA
ATOM      7  H   UNL     1      38.261 -25.462 -11.284  0.00  0.00    +0.211 HD
ENDBRANCH   5   6
BRANCH   5   9
ATOM      8  O   UNL     1      35.331 -25.041 -10.355  0.00  0.00    -0.248 OA
ATOM      9  C   UNL     1      35.447 -24.806 -11.550  0.00  0.00    +0.341 C 
BRANCH   9  10
ATOM     10  O   UNL     1      34.385 -24.692 -12.388  0.00  0.00    -0.479 OA
ATOM     11  H   UNL     1      34.259 -23.905 -12.882  0.00  0.00    +0.295 HD
ENDBRANCH   9  10
ENDBRANCH   5   9
ENDBRANCH   4   5
ENDBRANCH   1   4
BRANCH   1  12
ATOM     12  C   UNL     1      36.621 -23.966 -15.063  0.00  0.00    +0.166 C 
BRANCH  12  13
ATOM     13  O   UNL     1      35.510 -24.274 -15.907  0.00  0.00    -0.379 OA
ATOM     14  H   UNL     1      34.844 -23.573 -15.833  0.00  0.00    +0.211 HD
ENDBRANCH  12  13
BRANCH  12  15
ATOM     15  C   UNL     1      37.523 -22.965 -15.785  0.00  0.00    +0.169 C 
BRANCH  15  16
ATOM     16  O   UNL     1      38.825 -23.517 -15.952  0.00  0.00    -0.379 OA
ATOM     17  H   UNL     1      38.751 -24.462 -16.158  0.00  0.00    +0.211 HD
ENDBRANCH  15  16
ENDBRANCH  12  15
ENDBRANCH   1  12
TORSDOF 10
ENDMDL
MODEL 9
REMARK VINA RESULT:      -5.6      1.814      2.554
REMARK  Name = 5289313
REMARK  10 active torsions:
REMARK  status: ('A' for Active; 'I' for Inactive)
REMARK    1  A    between atoms: C_1  and  O_2
REMARK    2  A    between atoms: C_1  and  C_4
REMARK    3  A    between atoms: C_1  and  C_12
REMARK    4  A    between atoms: C_4  and  C_5
REMARK    5  A    between atoms: C_5  and  O_6
REMARK    6  A    between atoms: C_5  and  C_9
REMARK    7  A    between atoms: C_9  and  O_10
REMARK    8  A    between atoms: C_12  and  O_13
REMARK    9  A    between atoms: C_12  and  C_15
REMARK   10  A    between atoms: C_15  and  O_16
REMARK                            x       y       z     vdW  Elec       q    Type
REMARK                         _______ _______ _______ _____ _____    ______ ____
ROOT
ATOM      1  C   UNL     1      37.534 -23.966 -13.595  0.00  0.00    +0.143 C 
ENDROOT
BRANCH   1   2
ATOM      2  O   UNL     1      38.028 -23.215 -14.703  0.00  0.00    -0.382 OA
ATOM      3  H   UNL     1      37.943 -23.740 -15.514  0.00  0.00    +0.210 HD
ENDBRANCH   1   2
BRANCH   1   4
ATOM      4  C   UNL     1      36.293 -24.776 -14.021  0.00  0.00    +0.073 C 
BRANCH   4   5
ATOM      5  C   UNL     1      36.458 -26.300 -13.941  0.00  0.00    +0.212 C 
BRANCH   5   6
ATOM      6  O   UNL     1      36.908 -26.666 -12.646  0.00  0.00    -0.374 OA
ATOM      7  H   UNL     1      37.863 -26.841 -12.673  0.00  0.00    +0.211 HD
ENDBRANCH   5   6
BRANCH   5   9
ATOM      8  O   UNL     1      38.633 -26.989 -14.779  0.00  0.00    -0.248 OA
ATOM      9  C   UNL     1      37.433 -26.841 -14.969  0.00  0.00    +0.341 C 
BRANCH   9  10
ATOM     10  O   UNL     1      36.830 -27.128 -16.151  0.00  0.00    -0.479 OA
ATOM     11  H   UNL     1      36.240 -27.853 -16.213  0.00  0.00    +0.295 HD
ENDBRANCH   9  10
ENDBRANCH   5   9
ENDBRANCH   4   5
ENDBRANCH   1   4
BRANCH   1  12
ATOM     12  C   UNL     1      37.231 -23.017 -12.423  0.00  0.00    +0.166 C 
BRANCH  12  13
ATOM     13  O   UNL     1      38.405 -22.882 -11.620  0.00  0.00    -0.379 OA
ATOM     14  H   UNL     1      39.000 -23.629 -11.789  0.00  0.00    +0.211 HD
ENDBRANCH  12  13
BRANCH  12  15
ATOM     15  C   UNL     1      36.092 -23.533 -11.545  0.00  0.00    +0.169 C 
BRANCH  15  16
ATOM     16  O   UNL     1      36.610 -24.383 -10.527  0.00  0.00    -0.379 OA
ATOM     17  H   UNL     1      37.148 -23.861  -9.912  0.00  0.00    +0.211 HD
ENDBRANCH  15  16
ENDBRANCH  12  15
ENDBRANCH   1  12
TORSDOF 10
ENDMDL
