MODEL 1
REMARK VINA RESULT:     -10.3      0.000      0.000
REMARK  Name = 17749735
REMARK  3 active torsions:
REMARK  status: ('A' for Active; 'I' for Inactive)
REMARK    1  A    between atoms: C_1  and  C_11
REMARK    2  A    between atoms: C_4  and  C_19
REMARK    3  A    between atoms: C_22  and  O_25
REMARK                            x       y       z     vdW  Elec       q    Type
REMARK                         _______ _______ _______ _____ _____    ______ ____
ROOT
ATOM      1  C   UNL     1      35.644 -22.950 -16.313  0.00  0.00    -0.002 C 
ATOM      2  C   UNL     1      34.933 -22.383 -17.370  0.00  0.00    -0.002 C 
ATOM      3  C   UNL     1      37.019 -22.737 -16.203  0.00  0.00    -0.002 C 
ATOM      4  C   UNL     1      35.596 -21.603 -18.319  0.00  0.00    -0.000 C 
ATOM      5  C   UNL     1      37.681 -21.957 -17.151  0.00  0.00    -0.000 C 
ATOM      6  C   UNL     1      36.970 -21.390 -18.209  0.00  0.00    -0.000 C 
ENDROOT
BRANCH   1  11
ATOM      7  O   UNL     1      37.511 -23.206 -12.910  0.00  0.00    -0.274 OA
ATOM      8  N   UNL     1      35.104 -25.258 -15.478  0.00  0.00    -0.243 NA
ATOM      9  N   UNL     1      37.060 -25.150 -14.143  0.00  0.00    -0.231 N 
ATOM     10  N   UNL     1      36.379 -27.167 -15.250  0.00  0.00    -0.331 N 
ATOM     11  C   UNL     1      34.915 -23.810 -15.268  0.00  0.00    +0.114 C 
ATOM     12  C   UNL     1      35.323 -23.492 -13.823  0.00  0.00    +0.112 C 
ATOM     13  C   UNL     1      33.402 -23.561 -15.422  0.00  0.00    +0.029 C 
ATOM     14  C   UNL     1      36.755 -23.900 -13.586  0.00  0.00    +0.234 C 
ATOM     15  C   UNL     1      36.150 -25.839 -14.971  0.00  0.00    +0.184 C 
ATOM     16  C   UNL     1      38.359 -25.740 -13.828  0.00  0.00    +0.123 C 
ATOM     17  H   UNL     1      35.755 -27.663 -15.826  0.00  0.00    +0.145 HD
ATOM     18  H   UNL     1      37.168 -27.620 -14.872  0.00  0.00    +0.145 HD
ENDBRANCH   1  11
BRANCH   4  19
ATOM     19  C   UNL     1      34.859 -21.015 -19.415  0.00  0.00    +0.003 C 
ATOM     20  C   UNL     1      35.533 -20.299 -20.404  0.00  0.00    +0.037 C 
ATOM     21  C   UNL     1      33.474 -21.166 -19.485  0.00  0.00    +0.000 C 
ATOM     22  C   UNL     1      34.823 -19.734 -21.463  0.00  0.00    +0.139 C 
ATOM     23  C   UNL     1      32.764 -20.600 -20.544  0.00  0.00    +0.003 C 
ATOM     24  C   UNL     1      33.438 -19.884 -21.532  0.00  0.00    +0.037 C 
BRANCH  22  25
ATOM     25  O   UNL     1      35.480 -19.035 -22.429  0.00  0.00    -0.471 OA
ATOM     26  C   UNL     1      34.938 -19.083 -23.748  0.00  0.00    +0.252 C 
ENDBRANCH  22  25
ENDBRANCH   4  19
TORSDOF 3
ENDMDL
MODEL 2
REMARK VINA RESULT:      -9.8      3.824      5.311
REMARK  Name = 17749735
REMARK  3 active torsions:
REMARK  status: ('A' for Active; 'I' for Inactive)
REMARK    1  A    between atoms: C_1  and  C_11
REMARK    2  A    between atoms: C_4  and  C_19
REMARK    3  A    between atoms: C_22  and  O_25
REMARK                            x       y       z     vdW  Elec       q    Type
REMARK                         _______ _______ _______ _____ _____    ______ ____
ROOT
ATOM      1  C   UNL     1      36.360 -24.303 -14.843  0.00  0.00    -0.002 C 
ATOM      2  C   UNL     1      34.974 -24.397 -14.714  0.00  0.00    -0.002 C 
ATOM      3  C   UNL     1      36.916 -23.406 -15.755  0.00  0.00    -0.002 C 
ATOM      4  C   UNL     1      34.144 -23.594 -15.498  0.00  0.00    -0.000 C 
ATOM      5  C   UNL     1      36.086 -22.603 -16.538  0.00  0.00    -0.000 C 
ATOM      6  C   UNL     1      34.701 -22.697 -16.409  0.00  0.00    -0.000 C 
ENDROOT
BRANCH   1  11
ATOM      7  O   UNL     1      34.925 -25.069 -11.309  0.00  0.00    -0.274 OA
ATOM      8  N   UNL     1      38.387 -24.442 -13.364  0.00  0.00    -0.243 NA
ATOM      9  N   UNL     1      36.980 -23.957 -11.519  0.00  0.00    -0.231 N 
ATOM     10  N   UNL     1      39.197 -23.061 -11.703  0.00  0.00    -0.331 N 
ATOM     11  C   UNL     1      37.274 -25.188 -13.981  0.00  0.00    +0.114 C 
ATOM     12  C   UNL     1      36.529 -25.925 -12.858  0.00  0.00    +0.112 C 
ATOM     13  C   UNL     1      37.933 -26.231 -14.905  0.00  0.00    +0.029 C 
ATOM     14  C   UNL     1      36.029 -24.939 -11.833  0.00  0.00    +0.234 C 
ATOM     15  C   UNL     1      38.192 -23.839 -12.229  0.00  0.00    +0.184 C 
ATOM     16  C   UNL     1      36.688 -23.053 -10.409  0.00  0.00    +0.123 C 
ATOM     17  H   UNL     1      40.050 -22.967 -12.186  0.00  0.00    +0.145 HD
ATOM     18  H   UNL     1      39.064 -22.598 -10.845  0.00  0.00    +0.145 HD
ENDBRANCH   1  11
BRANCH   4  19
ATOM     19  C   UNL     1      32.707 -23.691 -15.364  0.00  0.00    +0.003 C 
ATOM     20  C   UNL     1      31.877 -23.055 -16.287  0.00  0.00    +0.037 C 
ATOM     21  C   UNL     1      32.152 -24.423 -14.314  0.00  0.00    +0.000 C 
ATOM     22  C   UNL     1      30.491 -23.150 -16.161  0.00  0.00    +0.139 C 
ATOM     23  C   UNL     1      30.766 -24.517 -14.188  0.00  0.00    +0.003 C 
ATOM     24  C   UNL     1      29.936 -23.881 -15.110  0.00  0.00    +0.037 C 
BRANCH  22  25
ATOM     25  O   UNL     1      29.680 -22.530 -17.061  0.00  0.00    -0.471 OA
ATOM     26  C   UNL     1      28.286 -22.826 -16.990  0.00  0.00    +0.252 C 
ENDBRANCH  22  25
ENDBRANCH   4  19
TORSDOF 3
ENDMDL
MODEL 3
REMARK VINA RESULT:      -9.7      9.964     14.146
REMARK  Name = 17749735
REMARK  3 active torsions:
REMARK  status: ('A' for Active; 'I' for Inactive)
REMARK    1  A    between atoms: C_1  and  C_11
REMARK    2  A    between atoms: C_4  and  C_19
REMARK    3  A    between atoms: C_22  and  O_25
REMARK                            x       y       z     vdW  Elec       q    Type
REMARK                         _______ _______ _______ _____ _____    ______ ____
ROOT
ATOM      1  C   UNL     1      32.574 -10.775 -22.971  0.00  0.00    -0.002 C 
ATOM      2  C   UNL     1      32.758 -12.147 -23.143  0.00  0.00    -0.002 C 
ATOM      3  C   UNL     1      33.327  -9.871 -23.720  0.00  0.00    -0.002 C 
ATOM      4  C   UNL     1      33.694 -12.615 -24.065  0.00  0.00    -0.000 C 
ATOM      5  C   UNL     1      34.262 -10.339 -24.643  0.00  0.00    -0.000 C 
ATOM      6  C   UNL     1      34.446 -11.711 -24.815  0.00  0.00    -0.000 C 
ENDROOT
BRANCH   1  11
ATOM      7  O   UNL     1      30.733  -7.541 -24.105  0.00  0.00    -0.274 OA
ATOM      8  N   UNL     1      32.155  -9.516 -20.836  0.00  0.00    -0.243 NA
ATOM      9  N   UNL     1      31.996  -7.533 -22.127  0.00  0.00    -0.231 N 
ATOM     10  N   UNL     1      33.055  -7.574 -19.975  0.00  0.00    -0.331 N 
ATOM     11  C   UNL     1      31.543 -10.259 -21.954  0.00  0.00    +0.114 C 
ATOM     12  C   UNL     1      30.468  -9.358 -22.578  0.00  0.00    +0.112 C 
ATOM     13  C   UNL     1      30.856 -11.481 -21.314  0.00  0.00    +0.029 C 
ATOM     14  C   UNL     1      31.083  -8.065 -23.049  0.00  0.00    +0.234 C 
ATOM     15  C   UNL     1      32.394  -8.246 -20.977  0.00  0.00    +0.184 C 
ATOM     16  C   UNL     1      32.523  -6.195 -22.381  0.00  0.00    +0.123 C 
ATOM     17  H   UNL     1      33.341  -8.055 -19.166  0.00  0.00    +0.145 HD
ATOM     18  H   UNL     1      33.242  -6.612 -20.068  0.00  0.00    +0.145 HD
ENDBRANCH   1  11
BRANCH   4  19
ATOM     19  C   UNL     1      33.885 -14.038 -24.245  0.00  0.00    +0.003 C 
ATOM     20  C   UNL     1      34.495 -14.791 -23.242  0.00  0.00    +0.037 C 
ATOM     21  C   UNL     1      33.457 -14.656 -25.420  0.00  0.00    +0.000 C 
ATOM     22  C   UNL     1      34.677 -16.163 -23.413  0.00  0.00    +0.139 C 
ATOM     23  C   UNL     1      33.640 -16.028 -25.591  0.00  0.00    +0.003 C 
ATOM     24  C   UNL     1      34.250 -16.781 -24.589  0.00  0.00    +0.037 C 
BRANCH  22  25
ATOM     25  O   UNL     1      35.272 -16.899 -22.435  0.00  0.00    -0.471 OA
ATOM     26  C   UNL     1      34.862 -16.645 -21.092  0.00  0.00    +0.252 C 
ENDBRANCH  22  25
ENDBRANCH   4  19
TORSDOF 3
ENDMDL
MODEL 4
REMARK VINA RESULT:      -9.5     10.828     14.825
REMARK  Name = 17749735
REMARK  3 active torsions:
REMARK  status: ('A' for Active; 'I' for Inactive)
REMARK    1  A    between atoms: C_1  and  C_11
REMARK    2  A    between atoms: C_4  and  C_19
REMARK    3  A    between atoms: C_22  and  O_25
REMARK                            x       y       z     vdW  Elec       q    Type
REMARK                         _______ _______ _______ _____ _____    ______ ____
ROOT
ATOM      1  C   UNL     1      32.962  -9.959 -23.061  0.00  0.00    -0.002 C 
ATOM      2  C   UNL     1      33.433 -11.179 -23.543  0.00  0.00    -0.002 C 
ATOM      3  C   UNL     1      31.867  -9.926 -22.197  0.00  0.00    -0.002 C 
ATOM      4  C   UNL     1      32.809 -12.368 -23.162  0.00  0.00    -0.000 C 
ATOM      5  C   UNL     1      31.244 -11.114 -21.815  0.00  0.00    -0.000 C 
ATOM      6  C   UNL     1      31.715 -12.335 -22.298  0.00  0.00    -0.000 C 
ENDROOT
BRANCH   1  11
ATOM      7  O   UNL     1      32.971  -7.231 -20.287  0.00  0.00    -0.274 OA
ATOM      8  N   UNL     1      32.790  -7.790 -24.319  0.00  0.00    -0.243 NA
ATOM      9  N   UNL     1      31.929  -6.800 -22.345  0.00  0.00    -0.231 N 
ATOM     10  N   UNL     1      31.093  -6.241 -24.523  0.00  0.00    -0.331 N 
ATOM     11  C   UNL     1      33.648  -8.649 -23.481  0.00  0.00    +0.114 C 
ATOM     12  C   UNL     1      34.133  -7.805 -22.294  0.00  0.00    +0.112 C 
ATOM     13  C   UNL     1      34.861  -9.010 -24.360  0.00  0.00    +0.029 C 
ATOM     14  C   UNL     1      32.953  -7.278 -21.516  0.00  0.00    +0.234 C 
ATOM     15  C   UNL     1      31.963  -6.969 -23.744  0.00  0.00    +0.184 C 
ATOM     16  C   UNL     1      30.812  -6.099 -21.717  0.00  0.00    +0.123 C 
ATOM     17  H   UNL     1      31.102  -6.346 -25.501  0.00  0.00    +0.145 HD
ATOM     18  H   UNL     1      30.461  -5.615 -24.101  0.00  0.00    +0.145 HD
ENDBRANCH   1  11
BRANCH   4  19
ATOM     19  C   UNL     1      33.297 -13.635 -23.662  0.00  0.00    +0.003 C 
ATOM     20  C   UNL     1      34.072 -14.455 -22.844  0.00  0.00    +0.037 C 
ATOM     21  C   UNL     1      32.989 -14.036 -24.962  0.00  0.00    +0.000 C 
ATOM     22  C   UNL     1      34.542 -15.677 -23.325  0.00  0.00    +0.139 C 
ATOM     23  C   UNL     1      33.458 -15.259 -25.443  0.00  0.00    +0.003 C 
ATOM     24  C   UNL     1      34.234 -16.079 -24.625  0.00  0.00    +0.037 C 
BRANCH  22  25
ATOM     25  O   UNL     1      35.299 -16.479 -22.527  0.00  0.00    -0.471 OA
ATOM     26  C   UNL     1      34.880 -16.626 -21.170  0.00  0.00    +0.252 C 
ENDBRANCH  22  25
ENDBRANCH   4  19
TORSDOF 3
ENDMDL
MODEL 5
REMARK VINA RESULT:      -9.4      1.814      3.282
REMARK  Name = 17749735
REMARK  3 active torsions:
REMARK  status: ('A' for Active; 'I' for Inactive)
REMARK    1  A    between atoms: C_1  and  C_11
REMARK    2  A    between atoms: C_4  and  C_19
REMARK    3  A    between atoms: C_22  and  O_25
REMARK                            x       y       z     vdW  Elec       q    Type
REMARK                         _______ _______ _______ _____ _____    ______ ____
ROOT
ATOM      1  C   UNL     1      34.633 -23.897 -13.920  0.00  0.00    -0.002 C 
ATOM      2  C   UNL     1      34.979 -23.303 -15.134  0.00  0.00    -0.002 C 
ATOM      3  C   UNL     1      33.324 -24.327 -13.702  0.00  0.00    -0.002 C 
ATOM      4  C   UNL     1      34.016 -23.140 -16.130  0.00  0.00    -0.000 C 
ATOM      5  C   UNL     1      32.361 -24.164 -14.699  0.00  0.00    -0.000 C 
ATOM      6  C   UNL     1      32.707 -23.571 -15.913  0.00  0.00    -0.000 C 
ENDROOT
BRANCH   1  11
ATOM      7  O   UNL     1      38.261 -23.142 -15.102  0.00  0.00    -0.274 OA
ATOM      8  N   UNL     1      36.062 -25.486 -12.598  0.00  0.00    -0.243 NA
ATOM      9  N   UNL     1      37.721 -25.271 -14.278  0.00  0.00    -0.231 N 
ATOM     10  N   UNL     1      37.262 -27.363 -13.198  0.00  0.00    -0.331 N 
ATOM     11  C   UNL     1      35.693 -24.076 -12.822  0.00  0.00    +0.114 C 
ATOM     12  C   UNL     1      36.987 -23.293 -13.088  0.00  0.00    +0.112 C 
ATOM     13  C   UNL     1      35.085 -23.590 -11.492  0.00  0.00    +0.029 C 
ATOM     14  C   UNL     1      37.705 -23.869 -14.282  0.00  0.00    +0.234 C 
ATOM     15  C   UNL     1      36.988 -26.023 -13.337  0.00  0.00    +0.184 C 
ATOM     16  C   UNL     1      38.540 -25.948 -15.281  0.00  0.00    +0.123 C 
ATOM     17  H   UNL     1      36.760 -27.904 -12.546  0.00  0.00    +0.145 HD
ATOM     18  H   UNL     1      37.961 -27.783 -13.751  0.00  0.00    +0.145 HD
ENDBRANCH   1  11
BRANCH   4  19
ATOM     19  C   UNL     1      34.374 -22.524 -17.389  0.00  0.00    +0.003 C 
ATOM     20  C   UNL     1      33.381 -22.189 -18.309  0.00  0.00    +0.037 C 
ATOM     21  C   UNL     1      35.713 -22.263 -17.682  0.00  0.00    +0.000 C 
ATOM     22  C   UNL     1      33.725 -21.594 -19.522  0.00  0.00    +0.139 C 
ATOM     23  C   UNL     1      36.057 -21.668 -18.895  0.00  0.00    +0.003 C 
ATOM     24  C   UNL     1      35.064 -21.334 -19.815  0.00  0.00    +0.037 C 
BRANCH  22  25
ATOM     25  O   UNL     1      32.757 -21.267 -20.421  0.00  0.00    -0.471 OA
ATOM     26  C   UNL     1      32.694 -19.904 -20.840  0.00  0.00    +0.252 C 
ENDBRANCH  22  25
ENDBRANCH   4  19
TORSDOF 3
ENDMDL
MODEL 6
REMARK VINA RESULT:      -9.4      3.673      5.157
REMARK  Name = 17749735
REMARK  3 active torsions:
REMARK  status: ('A' for Active; 'I' for Inactive)
REMARK    1  A    between atoms: C_1  and  C_11
REMARK    2  A    between atoms: C_4  and  C_19
REMARK    3  A    between atoms: C_22  and  O_25
REMARK                            x       y       z     vdW  Elec       q    Type
REMARK                         _______ _______ _______ _____ _____    ______ ____
ROOT
ATOM      1  C   UNL     1      35.314 -23.638 -14.515  0.00  0.00    -0.002 C 
ATOM      2  C   UNL     1      33.931 -23.812 -14.464  0.00  0.00    -0.002 C 
ATOM      3  C   UNL     1      35.912 -23.147 -15.675  0.00  0.00    -0.002 C 
ATOM      4  C   UNL     1      33.146 -23.495 -15.573  0.00  0.00    -0.000 C 
ATOM      5  C   UNL     1      35.127 -22.829 -16.784  0.00  0.00    -0.000 C 
ATOM      6  C   UNL     1      33.744 -23.003 -16.733  0.00  0.00    -0.000 C 
ENDROOT
BRANCH   1  11
ATOM      7  O   UNL     1      39.122 -23.814 -15.288  0.00  0.00    -0.274 OA
ATOM      8  N   UNL     1      36.178 -25.429 -12.979  0.00  0.00    -0.243 NA
ATOM      9  N   UNL     1      38.010 -25.707 -14.458  0.00  0.00    -0.231 N 
ATOM     10  N   UNL     1      36.959 -27.566 -13.367  0.00  0.00    -0.331 N 
ATOM     11  C   UNL     1      36.179 -23.988 -13.294  0.00  0.00    +0.114 C 
ATOM     12  C   UNL     1      37.641 -23.543 -13.433  0.00  0.00    +0.112 C 
ATOM     13  C   UNL     1      35.565 -23.294 -12.063  0.00  0.00    +0.029 C 
ATOM     14  C   UNL     1      38.326 -24.342 -14.513  0.00  0.00    +0.234 C 
ATOM     15  C   UNL     1      37.025 -26.209 -13.584  0.00  0.00    +0.184 C 
ATOM     16  C   UNL     1      38.748 -26.615 -15.333  0.00  0.00    +0.123 C 
ATOM     17  H   UNL     1      36.277 -27.934 -12.760  0.00  0.00    +0.145 HD
ATOM     18  H   UNL     1      37.593 -28.168 -13.818  0.00  0.00    +0.145 HD
ENDBRANCH   1  11
BRANCH   4  19
ATOM     19  C   UNL     1      31.712 -23.676 -15.521  0.00  0.00    +0.003 C 
ATOM     20  C   UNL     1      30.882 -22.912 -16.342  0.00  0.00    +0.037 C 
ATOM     21  C   UNL     1      31.158 -24.616 -14.651  0.00  0.00    +0.000 C 
ATOM     22  C   UNL     1      29.500 -23.088 -16.294  0.00  0.00    +0.139 C 
ATOM     23  C   UNL     1      29.776 -24.791 -14.602  0.00  0.00    +0.003 C 
ATOM     24  C   UNL     1      28.946 -24.027 -15.423  0.00  0.00    +0.037 C 
BRANCH  22  25
ATOM     25  O   UNL     1      28.690 -22.343 -17.095  0.00  0.00    -0.471 OA
ATOM     26  C   UNL     1      27.307 -22.283 -16.745  0.00  0.00    +0.252 C 
ENDBRANCH  22  25
ENDBRANCH   4  19
TORSDOF 3
ENDMDL
MODEL 7
REMARK VINA RESULT:      -9.3     11.688     15.115
REMARK  Name = 17749735
REMARK  3 active torsions:
REMARK  status: ('A' for Active; 'I' for Inactive)
REMARK    1  A    between atoms: C_1  and  C_11
REMARK    2  A    between atoms: C_4  and  C_19
REMARK    3  A    between atoms: C_22  and  O_25
REMARK                            x       y       z     vdW  Elec       q    Type
REMARK                         _______ _______ _______ _____ _____    ______ ____
ROOT
ATOM      1  C   UNL     1      32.764  -9.661 -22.786  0.00  0.00    -0.002 C 
ATOM      2  C   UNL     1      33.195 -10.887 -23.294  0.00  0.00    -0.002 C 
ATOM      3  C   UNL     1      31.720  -9.617 -21.862  0.00  0.00    -0.002 C 
ATOM      4  C   UNL     1      32.581 -12.069 -22.878  0.00  0.00    -0.000 C 
ATOM      5  C   UNL     1      31.107 -10.799 -21.445  0.00  0.00    -0.000 C 
ATOM      6  C   UNL     1      31.537 -12.024 -21.953  0.00  0.00    -0.000 C 
ENDROOT
BRANCH   1  11
ATOM      7  O   UNL     1      32.517  -6.768 -20.199  0.00  0.00    -0.274 OA
ATOM      8  N   UNL     1      32.614  -7.582 -24.190  0.00  0.00    -0.243 NA
ATOM      9  N   UNL     1      31.599  -6.499 -22.341  0.00  0.00    -0.231 N 
ATOM     10  N   UNL     1      30.891  -6.103 -24.598  0.00  0.00    -0.331 N 
ATOM     11  C   UNL     1      33.439  -8.359 -23.246  0.00  0.00    +0.114 C 
ATOM     12  C   UNL     1      33.822  -7.428 -22.086  0.00  0.00    +0.112 C 
ATOM     13  C   UNL     1      34.716  -8.735 -24.021  0.00  0.00    +0.029 C 
ATOM     14  C   UNL     1      32.580  -6.891 -21.420  0.00  0.00    +0.234 C 
ATOM     15  C   UNL     1      31.729  -6.753 -23.722  0.00  0.00    +0.184 C 
ATOM     16  C   UNL     1      30.424  -5.796 -21.831  0.00  0.00    +0.123 C 
ATOM     17  H   UNL     1      30.967  -6.269 -25.566  0.00  0.00    +0.145 HD
ATOM     18  H   UNL     1      30.215  -5.473 -24.258  0.00  0.00    +0.145 HD
ENDBRANCH   1  11
BRANCH   4  19
ATOM     19  C   UNL     1      33.027 -13.341 -23.404  0.00  0.00    +0.003 C 
ATOM     20  C   UNL     1      33.058 -13.552 -24.782  0.00  0.00    +0.037 C 
ATOM     21  C   UNL     1      33.428 -14.353 -22.532  0.00  0.00    +0.000 C 
ATOM     22  C   UNL     1      33.490 -14.777 -25.290  0.00  0.00    +0.139 C 
ATOM     23  C   UNL     1      33.860 -15.578 -23.040  0.00  0.00    +0.003 C 
ATOM     24  C   UNL     1      33.890 -15.791 -24.418  0.00  0.00    +0.037 C 
BRANCH  22  25
ATOM     25  O   UNL     1      33.521 -14.985 -26.634  0.00  0.00    -0.471 OA
ATOM     26  C   UNL     1      33.434 -13.833 -27.471  0.00  0.00    +0.252 C 
ENDBRANCH  22  25
ENDBRANCH   4  19
TORSDOF 3
ENDMDL
MODEL 8
REMARK VINA RESULT:      -9.3      2.040      3.725
REMARK  Name = 17749735
REMARK  3 active torsions:
REMARK  status: ('A' for Active; 'I' for Inactive)
REMARK    1  A    between atoms: C_1  and  C_11
REMARK    2  A    between atoms: C_4  and  C_19
REMARK    3  A    between atoms: C_22  and  O_25
REMARK                            x       y       z     vdW  Elec       q    Type
REMARK                         _______ _______ _______ _____ _____    ______ ____
ROOT
ATOM      1  C   UNL     1      35.797 -24.368 -14.552  0.00  0.00    -0.002 C 
ATOM      2  C   UNL     1      35.924 -23.651 -15.741  0.00  0.00    -0.002 C 
ATOM      3  C   UNL     1      34.533 -24.593 -14.005  0.00  0.00    -0.002 C 
ATOM      4  C   UNL     1      34.787 -23.158 -16.384  0.00  0.00    -0.000 C 
ATOM      5  C   UNL     1      33.397 -24.101 -14.648  0.00  0.00    -0.000 C 
ATOM      6  C   UNL     1      33.524 -23.383 -15.837  0.00  0.00    -0.000 C 
ENDROOT
BRANCH   1  11
ATOM      7  O   UNL     1      35.213 -25.280 -10.816  0.00  0.00    -0.274 OA
ATOM      8  N   UNL     1      37.987 -23.849 -13.435  0.00  0.00    -0.243 NA
ATOM      9  N   UNL     1      36.810 -23.658 -11.386  0.00  0.00    -0.231 N 
ATOM     10  N   UNL     1      38.624 -22.196 -11.956  0.00  0.00    -0.331 N 
ATOM     11  C   UNL     1      37.048 -24.910 -13.843  0.00  0.00    +0.114 C 
ATOM     12  C   UNL     1      36.729 -25.753 -12.600  0.00  0.00    +0.112 C 
ATOM     13  C   UNL     1      37.821 -25.785 -14.849  0.00  0.00    +0.029 C 
ATOM     14  C   UNL     1      36.139 -24.882 -11.520  0.00  0.00    +0.234 C 
ATOM     15  C   UNL     1      37.811 -23.253 -12.293  0.00  0.00    +0.184 C 
ATOM     16  C   UNL     1      36.452 -22.802 -10.257  0.00  0.00    +0.123 C 
ATOM     17  H   UNL     1      39.328 -21.900 -12.577  0.00  0.00    +0.145 HD
ATOM     18  H   UNL     1      38.502 -21.736 -11.094  0.00  0.00    +0.145 HD
ENDBRANCH   1  11
BRANCH   4  19
ATOM     19  C   UNL     1      34.919 -22.414 -17.618  0.00  0.00    +0.003 C 
ATOM     20  C   UNL     1      33.793 -22.157 -18.400  0.00  0.00    +0.037 C 
ATOM     21  C   UNL     1      36.171 -21.951 -18.023  0.00  0.00    +0.000 C 
ATOM     22  C   UNL     1      33.919 -21.438 -19.588  0.00  0.00    +0.139 C 
ATOM     23  C   UNL     1      36.296 -21.232 -19.211  0.00  0.00    +0.003 C 
ATOM     24  C   UNL     1      35.171 -20.976 -19.994  0.00  0.00    +0.037 C 
BRANCH  22  25
ATOM     25  O   UNL     1      32.821 -21.188 -20.353  0.00  0.00    -0.471 OA
ATOM     26  C   UNL     1      32.748 -19.910 -20.985  0.00  0.00    +0.252 C 
ENDBRANCH  22  25
ENDBRANCH   4  19
TORSDOF 3
ENDMDL
MODEL 9
REMARK VINA RESULT:      -9.2      1.670      2.851
REMARK  Name = 17749735
REMARK  3 active torsions:
REMARK  status: ('A' for Active; 'I' for Inactive)
REMARK    1  A    between atoms: C_1  and  C_11
REMARK    2  A    between atoms: C_4  and  C_19
REMARK    3  A    between atoms: C_22  and  O_25
REMARK                            x       y       z     vdW  Elec       q    Type
REMARK                         _______ _______ _______ _____ _____    ______ ____
ROOT
ATOM      1  C   UNL     1      36.040 -23.380 -15.829  0.00  0.00    -0.002 C 
ATOM      2  C   UNL     1      35.854 -22.596 -16.968  0.00  0.00    -0.002 C 
ATOM      3  C   UNL     1      34.959 -24.054 -15.262  0.00  0.00    -0.002 C 
ATOM      4  C   UNL     1      34.585 -22.486 -17.540  0.00  0.00    -0.000 C 
ATOM      5  C   UNL     1      33.691 -23.944 -15.834  0.00  0.00    -0.000 C 
ATOM      6  C   UNL     1      33.504 -23.161 -16.972  0.00  0.00    -0.000 C 
ENDROOT
BRANCH   1  11
ATOM      7  O   UNL     1      36.686 -26.796 -14.085  0.00  0.00    -0.274 OA
ATOM      8  N   UNL     1      37.543 -22.817 -13.895  0.00  0.00    -0.243 NA
ATOM      9  N   UNL     1      36.807 -24.809 -12.842  0.00  0.00    -0.231 N 
ATOM     10  N   UNL     1      37.196 -22.786 -11.615  0.00  0.00    -0.331 N 
ATOM     11  C   UNL     1      37.437 -23.500 -15.199  0.00  0.00    +0.114 C 
ATOM     12  C   UNL     1      37.895 -24.952 -15.002  0.00  0.00    +0.112 C 
ATOM     13  C   UNL     1      38.439 -22.785 -16.126  0.00  0.00    +0.029 C 
ATOM     14  C   UNL     1      37.045 -25.627 -13.956  0.00  0.00    +0.234 C 
ATOM     15  C   UNL     1      37.192 -23.453 -12.818  0.00  0.00    +0.184 C 
ATOM     16  C   UNL     1      36.151 -25.408 -11.682  0.00  0.00    +0.123 C 
ATOM     17  H   UNL     1      37.462 -21.839 -11.579  0.00  0.00    +0.145 HD
ATOM     18  H   UNL     1      36.933 -23.255 -10.790  0.00  0.00    +0.145 HD
ENDBRANCH   1  11
BRANCH   4  19
ATOM     19  C   UNL     1      34.391 -21.674 -18.721  0.00  0.00    +0.003 C 
ATOM     20  C   UNL     1      35.492 -21.116 -19.371  0.00  0.00    +0.037 C 
ATOM     21  C   UNL     1      33.104 -21.451 -19.210  0.00  0.00    +0.000 C 
ATOM     22  C   UNL     1      35.306 -20.334 -20.511  0.00  0.00    +0.139 C 
ATOM     23  C   UNL     1      32.918 -20.670 -20.350  0.00  0.00    +0.003 C 
ATOM     24  C   UNL     1      34.018 -20.111 -21.000  0.00  0.00    +0.037 C 
BRANCH  22  25
ATOM     25  O   UNL     1      36.379 -19.789 -21.147  0.00  0.00    -0.471 OA
ATOM     26  C   UNL     1      36.194 -18.510 -21.751  0.00  0.00    +0.252 C 
ENDBRANCH  22  25
ENDBRANCH   4  19
TORSDOF 3
ENDMDL
