MODEL 1
REMARK VINA RESULT:      -8.1      0.000      0.000
REMARK  Name = 2795
REMARK  6 active torsions:
REMARK  status: ('A' for Active; 'I' for Inactive)
REMARK    1  A    between atoms: C_1  and  C_3
REMARK    2  A    between atoms: C_1  and  C_9
REMARK    3  A    between atoms: C_1  and  O_15
REMARK    4  A    between atoms: C_1  and  C_17
REMARK    5  A    between atoms: C_17  and  C_18
REMARK    6  A    between atoms: C_18  and  N_19
REMARK                            x       y       z     vdW  Elec       q    Type
REMARK                         _______ _______ _______ _____ _____    ______ ____
ROOT
ATOM      1  C   UNL     1      34.612 -23.639 -15.101  0.00  0.00    +0.124 C 
ENDROOT
BRANCH   1   3
ATOM      2 CL   UNL     1      37.224 -22.182 -15.847  0.00  0.00    -0.082 Cl
ATOM      3  C   UNL     1      34.732 -23.058 -16.518  0.00  0.00    +0.016 C 
ATOM      4  C   UNL     1      35.875 -22.400 -16.901  0.00  0.00    +0.056 C 
ATOM      5  C   UNL     1      33.653 -23.234 -17.353  0.00  0.00    -0.001 C 
ATOM      6  C   UNL     1      35.946 -21.886 -18.195  0.00  0.00    +0.011 C 
ATOM      7  C   UNL     1      33.724 -22.720 -18.648  0.00  0.00    -0.000 C 
ATOM      8  C   UNL     1      34.871 -22.047 -19.069  0.00  0.00    +0.001 C 
ENDBRANCH   1   3
BRANCH   1   9
ATOM      9  C   UNL     1      33.132 -23.761 -14.703  0.00  0.00    +0.006 C 
ATOM     10  C   UNL     1      32.700 -24.945 -14.159  0.00  0.00    -0.002 C 
ATOM     11  C   UNL     1      32.309 -22.683 -14.908  0.00  0.00    -0.002 C 
ATOM     12  C   UNL     1      31.358 -25.058 -13.798  0.00  0.00    -0.000 C 
ATOM     13  C   UNL     1      30.967 -22.795 -14.547  0.00  0.00    -0.000 C 
ATOM     14  C   UNL     1      30.492 -23.983 -13.992  0.00  0.00    -0.000 C 
ENDBRANCH   1   9
BRANCH   1  15
ATOM     15  O   UNL     1      35.221 -22.748 -14.146  0.00  0.00    -0.379 OA
ATOM     16  H   UNL     1      34.762 -21.894 -14.163  0.00  0.00    +0.211 HD
ENDBRANCH   1  15
BRANCH   1  17
ATOM     17  C   UNL     1      35.417 -24.971 -14.985  0.00  0.00    +0.013 C 
BRANCH  17  18
ATOM     18  C   UNL     1      36.208 -25.116 -13.675  0.00  0.00    -0.074 C 
BRANCH  18  19
ATOM     19  N   UNL     1      37.629 -24.891 -13.920  0.00  0.00    +0.384 N 
ATOM     20  C   UNL     1      38.334 -24.635 -12.664  0.00  0.00    -0.101 C 
ATOM     21  C   UNL     1      38.218 -26.040 -14.610  0.00  0.00    -0.101 C 
ATOM     22  H   UNL     1      37.725 -24.070 -14.518  0.00  0.00    -0.080 HD
ENDBRANCH  18  19
ENDBRANCH  17  18
ENDBRANCH   1  17
TORSDOF 6
ENDMDL
MODEL 2
REMARK VINA RESULT:      -8.1      6.646     10.104
REMARK  Name = 2795
REMARK  6 active torsions:
REMARK  status: ('A' for Active; 'I' for Inactive)
REMARK    1  A    between atoms: C_1  and  C_3
REMARK    2  A    between atoms: C_1  and  C_9
REMARK    3  A    between atoms: C_1  and  O_15
REMARK    4  A    between atoms: C_1  and  C_17
REMARK    5  A    between atoms: C_17  and  C_18
REMARK    6  A    between atoms: C_18  and  N_19
REMARK                            x       y       z     vdW  Elec       q    Type
REMARK                         _______ _______ _______ _____ _____    ______ ____
ROOT
ATOM      1  C   UNL     1      34.367 -17.719 -21.322  0.00  0.00    +0.124 C 
ENDROOT
BRANCH   1   3
ATOM      2 CL   UNL     1      36.968 -19.289 -20.805  0.00  0.00    -0.082 Cl
ATOM      3  C   UNL     1      34.248 -19.135 -20.740  0.00  0.00    +0.016 C 
ATOM      4  C   UNL     1      35.377 -19.877 -20.490  0.00  0.00    +0.056 C 
ATOM      5  C   UNL     1      32.977 -19.599 -20.492  0.00  0.00    -0.001 C 
ATOM      6  C   UNL     1      35.228 -21.158 -19.962  0.00  0.00    +0.011 C 
ATOM      7  C   UNL     1      32.828 -20.881 -19.963  0.00  0.00    -0.000 C 
ATOM      8  C   UNL     1      33.954 -21.661 -19.698  0.00  0.00    +0.001 C 
ENDBRANCH   1   3
BRANCH   1   9
ATOM      9  C   UNL     1      34.528 -17.787 -22.850  0.00  0.00    +0.006 C 
ATOM     10  C   UNL     1      34.449 -19.014 -23.459  0.00  0.00    -0.002 C 
ATOM     11  C   UNL     1      34.743 -16.618 -23.536  0.00  0.00    -0.002 C 
ATOM     12  C   UNL     1      34.595 -19.077 -24.844  0.00  0.00    -0.000 C 
ATOM     13  C   UNL     1      34.889 -16.681 -24.922  0.00  0.00    -0.000 C 
ATOM     14  C   UNL     1      34.814 -17.910 -25.576  0.00  0.00    -0.000 C 
ENDBRANCH   1   9
BRANCH   1  15
ATOM     15  O   UNL     1      35.549 -17.070 -20.815  0.00  0.00    -0.379 OA
ATOM     16  H   UNL     1      36.249 -17.105 -21.485  0.00  0.00    +0.211 HD
ENDBRANCH   1  15
BRANCH   1  17
ATOM     17  C   UNL     1      33.177 -16.829 -20.845  0.00  0.00    +0.013 C 
BRANCH  17  18
ATOM     18  C   UNL     1      33.530 -15.341 -20.687  0.00  0.00    -0.074 C 
BRANCH  18  19
ATOM     19  N   UNL     1      32.455 -14.512 -21.223  0.00  0.00    +0.384 N 
ATOM     20  C   UNL     1      32.275 -13.311 -20.406  0.00  0.00    -0.101 C 
ATOM     21  C   UNL     1      32.733 -14.145 -22.613  0.00  0.00    -0.101 C 
ATOM     22  H   UNL     1      31.590 -15.052 -21.198  0.00  0.00    -0.080 HD
ENDBRANCH  18  19
ENDBRANCH  17  18
ENDBRANCH   1  17
TORSDOF 6
ENDMDL
MODEL 3
REMARK VINA RESULT:      -7.9     14.849     17.202
REMARK  Name = 2795
REMARK  6 active torsions:
REMARK  status: ('A' for Active; 'I' for Inactive)
REMARK    1  A    between atoms: C_1  and  C_3
REMARK    2  A    between atoms: C_1  and  C_9
REMARK    3  A    between atoms: C_1  and  O_15
REMARK    4  A    between atoms: C_1  and  C_17
REMARK    5  A    between atoms: C_17  and  C_18
REMARK    6  A    between atoms: C_18  and  N_19
REMARK                            x       y       z     vdW  Elec       q    Type
REMARK                         _______ _______ _______ _____ _____    ______ ____
ROOT
ATOM      1  C   UNL     1      32.678  -8.392 -22.254  0.00  0.00    +0.124 C 
ENDROOT
BRANCH   1   3
ATOM      2 CL   UNL     1      35.144  -7.163 -23.636  0.00  0.00    -0.082 Cl
ATOM      3  C   UNL     1      33.423  -9.248 -23.289  0.00  0.00    +0.016 C 
ATOM      4  C   UNL     1      34.528  -8.747 -23.933  0.00  0.00    +0.056 C 
ATOM      5  C   UNL     1      32.927 -10.509 -23.523  0.00  0.00    -0.001 C 
ATOM      6  C   UNL     1      35.177  -9.554 -24.867  0.00  0.00    +0.011 C 
ATOM      7  C   UNL     1      33.576 -11.317 -24.457  0.00  0.00    -0.000 C 
ATOM      8  C   UNL     1      34.701 -10.839 -25.128  0.00  0.00    +0.001 C 
ENDBRANCH   1   3
BRANCH   1   9
ATOM      9  C   UNL     1      32.069  -7.153 -22.931  0.00  0.00    +0.006 C 
ATOM     10  C   UNL     1      32.097  -5.960 -22.252  0.00  0.00    -0.002 C 
ATOM     11  C   UNL     1      31.526  -7.294 -24.183  0.00  0.00    -0.002 C 
ATOM     12  C   UNL     1      31.545  -4.836 -22.865  0.00  0.00    -0.000 C 
ATOM     13  C   UNL     1      30.974  -6.170 -24.796  0.00  0.00    -0.000 C 
ATOM     14  C   UNL     1      30.984  -4.941 -24.137  0.00  0.00    -0.000 C 
ENDBRANCH   1   9
BRANCH   1  15
ATOM     15  O   UNL     1      33.597  -7.904 -21.258  0.00  0.00    -0.379 OA
ATOM     16  H   UNL     1      33.273  -7.061 -20.904  0.00  0.00    +0.211 HD
ENDBRANCH   1  15
BRANCH   1  17
ATOM     17  C   UNL     1      31.647  -9.260 -21.466  0.00  0.00    +0.013 C 
BRANCH  17  18
ATOM     18  C   UNL     1      31.965  -9.408 -19.969  0.00  0.00    -0.074 C 
BRANCH  18  19
ATOM     19  N   UNL     1      31.889 -10.812 -19.577  0.00  0.00    +0.384 N 
ATOM     20  C   UNL     1      31.253 -10.947 -18.266  0.00  0.00    -0.101 C 
ATOM     21  C   UNL     1      31.156 -11.585 -20.581  0.00  0.00    -0.101 C 
ATOM     22  H   UNL     1      32.838 -11.180 -19.516  0.00  0.00    -0.080 HD
ENDBRANCH  18  19
ENDBRANCH  17  18
ENDBRANCH   1  17
TORSDOF 6
ENDMDL
MODEL 4
REMARK VINA RESULT:      -7.8     15.159     17.364
REMARK  Name = 2795
REMARK  6 active torsions:
REMARK  status: ('A' for Active; 'I' for Inactive)
REMARK    1  A    between atoms: C_1  and  C_3
REMARK    2  A    between atoms: C_1  and  C_9
REMARK    3  A    between atoms: C_1  and  O_15
REMARK    4  A    between atoms: C_1  and  C_17
REMARK    5  A    between atoms: C_17  and  C_18
REMARK    6  A    between atoms: C_18  and  N_19
REMARK                            x       y       z     vdW  Elec       q    Type
REMARK                         _______ _______ _______ _____ _____    ______ ____
ROOT
ATOM      1  C   UNL     1      33.184  -8.302 -22.753  0.00  0.00    +0.124 C 
ENDROOT
BRANCH   1   3
ATOM      2 CL   UNL     1      34.283  -6.493 -24.994  0.00  0.00    -0.082 Cl
ATOM      3  C   UNL     1      32.393  -7.034 -23.106  0.00  0.00    +0.016 C 
ATOM      4  C   UNL     1      32.839  -6.194 -24.097  0.00  0.00    +0.056 C 
ATOM      5  C   UNL     1      31.243  -6.800 -22.388  0.00  0.00    -0.001 C 
ATOM      6  C   UNL     1      32.095  -5.052 -24.388  0.00  0.00    +0.011 C 
ATOM      7  C   UNL     1      30.498  -5.658 -22.679  0.00  0.00    -0.000 C 
ATOM      8  C   UNL     1      30.923  -4.784 -23.679  0.00  0.00    +0.001 C 
ENDBRANCH   1   3
BRANCH   1   9
ATOM      9  C   UNL     1      32.429  -9.118 -21.691  0.00  0.00    +0.006 C 
ATOM     10  C   UNL     1      31.713 -10.216 -22.100  0.00  0.00    -0.002 C 
ATOM     11  C   UNL     1      32.505  -8.714 -20.382  0.00  0.00    -0.002 C 
ATOM     12  C   UNL     1      31.028 -10.956 -21.138  0.00  0.00    -0.000 C 
ATOM     13  C   UNL     1      31.820  -9.455 -19.419  0.00  0.00    -0.000 C 
ATOM     14  C   UNL     1      31.082 -10.576 -19.797  0.00  0.00    -0.000 C 
ENDBRANCH   1   9
BRANCH   1  15
ATOM     15  O   UNL     1      34.454  -7.950 -22.173  0.00  0.00    -0.379 OA
ATOM     16  H   UNL     1      35.167  -8.385 -22.667  0.00  0.00    +0.211 HD
ENDBRANCH   1  15
BRANCH   1  17
ATOM     17  C   UNL     1      33.535  -9.106 -24.045  0.00  0.00    +0.013 C 
BRANCH  17  18
ATOM     18  C   UNL     1      35.018  -9.497 -24.157  0.00  0.00    -0.074 C 
BRANCH  18  19
ATOM     19  N   UNL     1      35.155 -10.720 -24.941  0.00  0.00    +0.384 N 
ATOM     20  C   UNL     1      33.895 -11.465 -24.958  0.00  0.00    -0.101 C 
ATOM     21  C   UNL     1      35.582 -10.411 -26.306  0.00  0.00    -0.101 C 
ATOM     22  H   UNL     1      35.869 -11.303 -24.503  0.00  0.00    -0.080 HD
ENDBRANCH  18  19
ENDBRANCH  17  18
ENDBRANCH   1  17
TORSDOF 6
ENDMDL
MODEL 5
REMARK VINA RESULT:      -7.7     10.154     13.389
REMARK  Name = 2795
REMARK  6 active torsions:
REMARK  status: ('A' for Active; 'I' for Inactive)
REMARK    1  A    between atoms: C_1  and  C_3
REMARK    2  A    between atoms: C_1  and  C_9
REMARK    3  A    between atoms: C_1  and  O_15
REMARK    4  A    between atoms: C_1  and  C_17
REMARK    5  A    between atoms: C_17  and  C_18
REMARK    6  A    between atoms: C_18  and  N_19
REMARK                            x       y       z     vdW  Elec       q    Type
REMARK                         _______ _______ _______ _____ _____    ______ ____
ROOT
ATOM      1  C   UNL     1      33.690 -14.200 -23.100  0.00  0.00    +0.124 C 
ENDROOT
BRANCH   1   3
ATOM      2 CL   UNL     1      34.521 -15.293 -20.341  0.00  0.00    -0.082 Cl
ATOM      3  C   UNL     1      34.306 -15.605 -23.040  0.00  0.00    +0.016 C 
ATOM      4  C   UNL     1      34.693 -16.139 -21.835  0.00  0.00    +0.056 C 
ATOM      5  C   UNL     1      34.441 -16.275 -24.234  0.00  0.00    -0.001 C 
ATOM      6  C   UNL     1      35.248 -17.418 -21.821  0.00  0.00    +0.011 C 
ATOM      7  C   UNL     1      34.997 -17.554 -24.220  0.00  0.00    -0.000 C 
ATOM      8  C   UNL     1      35.400 -18.126 -23.013  0.00  0.00    +0.001 C 
ENDBRANCH   1   3
BRANCH   1   9
ATOM      9  C   UNL     1      33.508 -13.764 -24.564  0.00  0.00    +0.006 C 
ATOM     10  C   UNL     1      34.010 -12.546 -24.948  0.00  0.00    -0.002 C 
ATOM     11  C   UNL     1      32.852 -14.612 -25.420  0.00  0.00    -0.002 C 
ATOM     12  C   UNL     1      33.845 -12.150 -26.275  0.00  0.00    -0.000 C 
ATOM     13  C   UNL     1      32.687 -14.216 -26.747  0.00  0.00    -0.000 C 
ATOM     14  C   UNL     1      33.184 -12.985 -27.175  0.00  0.00    -0.000 C 
ENDBRANCH   1   9
BRANCH   1  15
ATOM     15  O   UNL     1      34.579 -13.241 -22.496  0.00  0.00    -0.379 OA
ATOM     16  H   UNL     1      35.484 -13.399 -22.807  0.00  0.00    +0.211 HD
ENDBRANCH   1  15
BRANCH   1  17
ATOM     17  C   UNL     1      32.383 -14.137 -22.249  0.00  0.00    +0.013 C 
BRANCH  17  18
ATOM     18  C   UNL     1      32.284 -12.899 -21.342  0.00  0.00    -0.074 C 
BRANCH  18  19
ATOM     19  N   UNL     1      31.357 -11.930 -21.918  0.00  0.00    +0.384 N 
ATOM     20  C   UNL     1      30.486 -11.372 -20.884  0.00  0.00    -0.101 C 
ATOM     21  C   UNL     1      32.090 -10.860 -22.598  0.00  0.00    -0.101 C 
ATOM     22  H   UNL     1      30.776 -12.410 -22.606  0.00  0.00    -0.080 HD
ENDBRANCH  18  19
ENDBRANCH  17  18
ENDBRANCH   1  17
TORSDOF 6
ENDMDL
MODEL 6
REMARK VINA RESULT:      -7.7     14.827     17.613
REMARK  Name = 2795
REMARK  6 active torsions:
REMARK  status: ('A' for Active; 'I' for Inactive)
REMARK    1  A    between atoms: C_1  and  C_3
REMARK    2  A    between atoms: C_1  and  C_9
REMARK    3  A    between atoms: C_1  and  O_15
REMARK    4  A    between atoms: C_1  and  C_17
REMARK    5  A    between atoms: C_17  and  C_18
REMARK    6  A    between atoms: C_18  and  N_19
REMARK                            x       y       z     vdW  Elec       q    Type
REMARK                         _______ _______ _______ _____ _____    ______ ____
ROOT
ATOM      1  C   UNL     1      32.553  -8.552 -22.712  0.00  0.00    +0.124 C 
ENDROOT
BRANCH   1   3
ATOM      2 CL   UNL     1      32.686  -7.297 -19.900  0.00  0.00    -0.082 Cl
ATOM      3  C   UNL     1      32.123  -9.417 -21.518  0.00  0.00    +0.016 C 
ATOM      4  C   UNL     1      32.163  -8.905 -20.244  0.00  0.00    +0.056 C 
ATOM      5  C   UNL     1      31.708 -10.699 -21.798  0.00  0.00    -0.001 C 
ATOM      6  C   UNL     1      31.765  -9.721 -19.186  0.00  0.00    +0.011 C 
ATOM      7  C   UNL     1      31.310 -11.515 -20.739  0.00  0.00    -0.000 C 
ATOM      8  C   UNL     1      31.338 -11.026 -19.433  0.00  0.00    +0.001 C 
ENDBRANCH   1   3
BRANCH   1   9
ATOM      9  C   UNL     1      33.411  -9.381 -23.684  0.00  0.00    +0.006 C 
ATOM     10  C   UNL     1      34.630  -8.879 -24.066  0.00  0.00    -0.002 C 
ATOM     11  C   UNL     1      32.919 -10.583 -24.125  0.00  0.00    -0.002 C 
ATOM     12  C   UNL     1      35.408  -9.629 -24.947  0.00  0.00    -0.000 C 
ATOM     13  C   UNL     1      33.697 -11.334 -25.006  0.00  0.00    -0.000 C 
ATOM     14  C   UNL     1      34.942 -10.857 -25.417  0.00  0.00    -0.000 C 
ENDBRANCH   1   9
BRANCH   1  15
ATOM     15  O   UNL     1      33.381  -7.462 -22.264  0.00  0.00    -0.379 OA
ATOM     16  H   UNL     1      32.996  -7.073 -21.463  0.00  0.00    +0.211 HD
ENDBRANCH   1  15
BRANCH   1  17
ATOM     17  C   UNL     1      31.312  -7.876 -23.374  0.00  0.00    +0.013 C 
BRANCH  17  18
ATOM     18  C   UNL     1      31.632  -6.569 -24.119  0.00  0.00    -0.074 C 
BRANCH  18  19
ATOM     19  N   UNL     1      31.611  -5.445 -23.188  0.00  0.00    +0.384 N 
ATOM     20  C   UNL     1      31.529  -4.177 -23.914  0.00  0.00    -0.101 C 
ATOM     21  C   UNL     1      30.489  -5.571 -22.256  0.00  0.00    -0.101 C 
ATOM     22  H   UNL     1      32.479  -5.455 -22.653  0.00  0.00    -0.080 HD
ENDBRANCH  18  19
ENDBRANCH  17  18
ENDBRANCH   1  17
TORSDOF 6
ENDMDL
MODEL 7
REMARK VINA RESULT:      -7.6      1.789      5.346
REMARK  Name = 2795
REMARK  6 active torsions:
REMARK  status: ('A' for Active; 'I' for Inactive)
REMARK    1  A    between atoms: C_1  and  C_3
REMARK    2  A    between atoms: C_1  and  C_9
REMARK    3  A    between atoms: C_1  and  O_15
REMARK    4  A    between atoms: C_1  and  C_17
REMARK    5  A    between atoms: C_17  and  C_18
REMARK    6  A    between atoms: C_18  and  N_19
REMARK                            x       y       z     vdW  Elec       q    Type
REMARK                         _______ _______ _______ _____ _____    ______ ____
ROOT
ATOM      1  C   UNL     1      35.503 -23.816 -14.621  0.00  0.00    +0.124 C 
ENDROOT
BRANCH   1   3
ATOM      2 CL   UNL     1      36.948 -22.885 -12.062  0.00  0.00    -0.082 Cl
ATOM      3  C   UNL     1      36.804 -24.533 -14.229  0.00  0.00    +0.016 C 
ATOM      4  C   UNL     1      37.486 -24.157 -13.098  0.00  0.00    +0.056 C 
ATOM      5  C   UNL     1      37.228 -25.544 -15.059  0.00  0.00    -0.001 C 
ATOM      6  C   UNL     1      38.663 -24.830 -12.775  0.00  0.00    +0.011 C 
ATOM      7  C   UNL     1      38.406 -26.219 -14.736  0.00  0.00    -0.000 C 
ATOM      8  C   UNL     1      39.123 -25.862 -13.594  0.00  0.00    +0.001 C 
ENDBRANCH   1   3
BRANCH   1   9
ATOM      9  C   UNL     1      35.695 -23.059 -15.946  0.00  0.00    +0.006 C 
ATOM     10  C   UNL     1      36.863 -22.363 -16.135  0.00  0.00    -0.002 C 
ATOM     11  C   UNL     1      34.691 -23.112 -16.879  0.00  0.00    -0.002 C 
ATOM     12  C   UNL     1      37.038 -21.676 -17.335  0.00  0.00    -0.000 C 
ATOM     13  C   UNL     1      34.866 -22.425 -18.080  0.00  0.00    -0.000 C 
ATOM     14  C   UNL     1      36.039 -21.707 -18.308  0.00  0.00    -0.000 C 
ENDBRANCH   1   9
BRANCH   1  15
ATOM     15  O   UNL     1      35.162 -22.827 -13.630  0.00  0.00    -0.379 OA
ATOM     16  H   UNL     1      34.948 -21.990 -14.070  0.00  0.00    +0.211 HD
ENDBRANCH   1  15
BRANCH   1  17
ATOM     17  C   UNL     1      34.306 -24.817 -14.626  0.00  0.00    +0.013 C 
BRANCH  17  18
ATOM     18  C   UNL     1      33.139 -24.406 -13.713  0.00  0.00    -0.074 C 
BRANCH  18  19
ATOM     19  N   UNL     1      31.926 -24.222 -14.503  0.00  0.00    +0.384 N 
ATOM     20  C   UNL     1      30.835 -25.038 -13.970  0.00  0.00    -0.101 C 
ATOM     21  C   UNL     1      31.540 -22.810 -14.529  0.00  0.00    -0.101 C 
ATOM     22  H   UNL     1      32.117 -24.522 -15.459  0.00  0.00    -0.080 HD
ENDBRANCH  18  19
ENDBRANCH  17  18
ENDBRANCH   1  17
TORSDOF 6
ENDMDL
MODEL 8
REMARK VINA RESULT:      -7.6      6.318      9.885
REMARK  Name = 2795
REMARK  6 active torsions:
REMARK  status: ('A' for Active; 'I' for Inactive)
REMARK    1  A    between atoms: C_1  and  C_3
REMARK    2  A    between atoms: C_1  and  C_9
REMARK    3  A    between atoms: C_1  and  O_15
REMARK    4  A    between atoms: C_1  and  C_17
REMARK    5  A    between atoms: C_17  and  C_18
REMARK    6  A    between atoms: C_18  and  N_19
REMARK                            x       y       z     vdW  Elec       q    Type
REMARK                         _______ _______ _______ _____ _____    ______ ____
ROOT
ATOM      1  C   UNL     1      35.049 -18.186 -21.434  0.00  0.00    +0.124 C 
ENDROOT
BRANCH   1   3
ATOM      2 CL   UNL     1      32.266 -19.349 -20.801  0.00  0.00    -0.082 Cl
ATOM      3  C   UNL     1      34.983 -19.540 -20.713  0.00  0.00    +0.016 C 
ATOM      4  C   UNL     1      33.767 -20.102 -20.408  0.00  0.00    +0.056 C 
ATOM      5  C   UNL     1      36.183 -20.135 -20.401  0.00  0.00    -0.001 C 
ATOM      6  C   UNL     1      33.748 -21.332 -19.752  0.00  0.00    +0.011 C 
ATOM      7  C   UNL     1      36.164 -21.366 -19.745  0.00  0.00    -0.000 C 
ATOM      8  C   UNL     1      34.947 -21.965 -19.421  0.00  0.00    +0.001 C 
ENDBRANCH   1   3
BRANCH   1   9
ATOM      9  C   UNL     1      34.816 -18.377 -22.942  0.00  0.00    +0.006 C 
ATOM     10  C   UNL     1      34.575 -17.265 -23.710  0.00  0.00    -0.002 C 
ATOM     11  C   UNL     1      34.860 -19.649 -23.453  0.00  0.00    -0.002 C 
ATOM     12  C   UNL     1      34.364 -17.437 -25.077  0.00  0.00    -0.000 C 
ATOM     13  C   UNL     1      34.648 -19.822 -24.820  0.00  0.00    -0.000 C 
ATOM     14  C   UNL     1      34.401 -18.716 -25.633  0.00  0.00    -0.000 C 
ENDBRANCH   1   9
BRANCH   1  15
ATOM     15  O   UNL     1      36.362 -17.611 -21.292  0.00  0.00    -0.379 OA
ATOM     16  H   UNL     1      36.664 -17.718 -20.377  0.00  0.00    +0.211 HD
ENDBRANCH   1  15
BRANCH   1  17
ATOM     17  C   UNL     1      34.081 -17.161 -20.764  0.00  0.00    +0.013 C 
BRANCH  17  18
ATOM     18  C   UNL     1      34.702 -15.775 -20.522  0.00  0.00    -0.074 C 
BRANCH  18  19
ATOM     19  N   UNL     1      33.807 -14.732 -21.013  0.00  0.00    +0.384 N 
ATOM     20  C   UNL     1      34.312 -14.168 -22.265  0.00  0.00    -0.101 C 
ATOM     21  C   UNL     1      32.456 -15.262 -21.202  0.00  0.00    -0.101 C 
ATOM     22  H   UNL     1      33.769 -13.989 -20.316  0.00  0.00    -0.080 HD
ENDBRANCH  18  19
ENDBRANCH  17  18
ENDBRANCH   1  17
TORSDOF 6
ENDMDL
MODEL 9
REMARK VINA RESULT:      -7.5     14.900     17.231
REMARK  Name = 2795
REMARK  6 active torsions:
REMARK  status: ('A' for Active; 'I' for Inactive)
REMARK    1  A    between atoms: C_1  and  C_3
REMARK    2  A    between atoms: C_1  and  C_9
REMARK    3  A    between atoms: C_1  and  O_15
REMARK    4  A    between atoms: C_1  and  C_17
REMARK    5  A    between atoms: C_17  and  C_18
REMARK    6  A    between atoms: C_18  and  N_19
REMARK                            x       y       z     vdW  Elec       q    Type
REMARK                         _______ _______ _______ _____ _____    ______ ____
ROOT
ATOM      1  C   UNL     1      32.154  -8.719 -22.843  0.00  0.00    +0.124 C 
ENDROOT
BRANCH   1   3
ATOM      2 CL   UNL     1      34.936  -7.431 -23.161  0.00  0.00    -0.082 Cl
ATOM      3  C   UNL     1      33.188  -9.446 -23.716  0.00  0.00    +0.016 C 
ATOM      4  C   UNL     1      34.442  -8.915 -23.889  0.00  0.00    +0.056 C 
ATOM      5  C   UNL     1      32.788 -10.628 -24.295  0.00  0.00    -0.001 C 
ATOM      6  C   UNL     1      35.352  -9.604 -24.690  0.00  0.00    +0.011 C 
ATOM      7  C   UNL     1      33.699 -11.318 -25.096  0.00  0.00    -0.000 C 
ATOM      8  C   UNL     1      34.981 -10.806 -25.293  0.00  0.00    +0.001 C 
ENDBRANCH   1   3
BRANCH   1   9
ATOM      9  C   UNL     1      31.935  -9.489 -21.529  0.00  0.00    +0.006 C 
ATOM     10  C   UNL     1      32.384  -8.924 -20.362  0.00  0.00    -0.002 C 
ATOM     11  C   UNL     1      31.302 -10.704 -21.583  0.00  0.00    -0.002 C 
ATOM     12  C   UNL     1      32.186  -9.621 -19.170  0.00  0.00    -0.000 C 
ATOM     13  C   UNL     1      31.104 -11.402 -20.392  0.00  0.00    -0.000 C 
ATOM     14  C   UNL     1      31.546 -10.859 -19.185  0.00  0.00    -0.000 C 
ENDBRANCH   1   9
BRANCH   1  15
ATOM     15  O   UNL     1      30.879  -8.680 -23.511  0.00  0.00    -0.379 OA
ATOM     16  H   UNL     1      30.175  -8.885 -22.876  0.00  0.00    +0.211 HD
ENDBRANCH   1  15
BRANCH   1  17
ATOM     17  C   UNL     1      32.558  -7.224 -22.647  0.00  0.00    +0.013 C 
BRANCH  17  18
ATOM     18  C   UNL     1      31.366  -6.271 -22.463  0.00  0.00    -0.074 C 
BRANCH  18  19
ATOM     19  N   UNL     1      31.227  -5.411 -23.634  0.00  0.00    +0.384 N 
ATOM     20  C   UNL     1      31.204  -4.002 -23.239  0.00  0.00    -0.101 C 
ATOM     21  C   UNL     1      32.315  -5.656 -24.583  0.00  0.00    -0.101 C 
ATOM     22  H   UNL     1      30.343  -5.633 -24.093  0.00  0.00    -0.080 HD
ENDBRANCH  18  19
ENDBRANCH  17  18
ENDBRANCH   1  17
TORSDOF 6
ENDMDL
