MODEL 1
REMARK VINA RESULT:     -10.7      0.000      0.000
REMARK  Name = 39042
REMARK  8 active torsions:
REMARK  status: ('A' for Active; 'I' for Inactive)
REMARK    1  A    between atoms: C_1  and  C_15
REMARK    2  A    between atoms: C_2  and  O_7
REMARK    3  A    between atoms: O_7  and  C_8
REMARK    4  A    between atoms: C_8  and  C_12
REMARK    5  A    between atoms: C_12  and  O_13
REMARK    6  A    between atoms: C_15  and  C_16
REMARK    7  A    between atoms: C_16  and  N_18
REMARK    8  A    between atoms: C_19  and  C_22
REMARK                            x       y       z     vdW  Elec       q    Type
REMARK                         _______ _______ _______ _____ _____    ______ ____
ROOT
ATOM      1  C   UNL     1      34.177 -23.374 -15.278  0.00  0.00    -0.020 C 
ATOM      2  C   UNL     1      36.848 -23.753 -14.596  0.00  0.00    +0.139 C 
ATOM      3  C   UNL     1      34.508 -24.013 -14.083  0.00  0.00    -0.001 C 
ATOM      4  C   UNL     1      35.185 -22.925 -16.131  0.00  0.00    -0.001 C 
ATOM      5  C   UNL     1      35.847 -24.203 -13.742  0.00  0.00    +0.037 C 
ATOM      6  C   UNL     1      36.524 -23.116 -15.789  0.00  0.00    +0.037 C 
ENDROOT
BRANCH   2   7
ATOM      7  O   UNL     1      38.162 -23.940 -14.261  0.00  0.00    -0.472 OA
BRANCH   7   8
ATOM      8  C   UNL     1      38.628 -25.289 -14.230  0.00  0.00    +0.221 C 
ATOM      9  C   UNL     1      38.629 -25.755 -12.777  0.00  0.00    +0.055 C 
ATOM     10  C   UNL     1      37.705 -26.129 -15.106  0.00  0.00    +0.055 C 
BRANCH   8  12
ATOM     11  O   UNL     1      40.990 -24.700 -14.249  0.00  0.00    -0.246 OA
ATOM     12  C   UNL     1      40.041 -25.247 -14.796  0.00  0.00    +0.350 C 
BRANCH  12  13
ATOM     13  O   UNL     1      40.161 -25.882 -15.991  0.00  0.00    -0.478 OA
ATOM     14  H   UNL     1      39.626 -25.622 -16.715  0.00  0.00    +0.295 HD
ENDBRANCH  12  13
ENDBRANCH   8  12
ENDBRANCH   7   8
ENDBRANCH   2   7
BRANCH   1  15
ATOM     15  C   UNL     1      32.745 -23.171 -15.643  0.00  0.00    +0.048 C 
BRANCH  15  16
ATOM     16  C   UNL     1      32.448 -23.432 -17.125  0.00  0.00    +0.094 C 
BRANCH  16  18
ATOM     17  O   UNL     1      34.089 -23.562 -19.477  0.00  0.00    -0.270 OA
ATOM     18  N   UNL     1      32.836 -22.330 -17.963  0.00  0.00    -0.301 N 
ATOM     19  C   UNL     1      33.637 -22.488 -19.088  0.00  0.00    +0.246 C 
ATOM     20  H   UNL     1      32.521 -21.426 -17.732  0.00  0.00    +0.150 HD
BRANCH  19  22
ATOM     21 CL   UNL     1      34.977 -17.505 -22.078  0.00  0.00    -0.082 Cl
ATOM     22  C   UNL     1      33.970 -21.248 -19.833  0.00  0.00    +0.053 C 
ATOM     23  C   UNL     1      32.945 -20.429 -20.258  0.00  0.00    +0.005 C 
ATOM     24  C   UNL     1      35.296 -20.951 -20.075  0.00  0.00    +0.005 C 
ATOM     25  C   UNL     1      33.258 -19.263 -20.957  0.00  0.00    +0.012 C 
ATOM     26  C   UNL     1      35.609 -19.785 -20.774  0.00  0.00    +0.012 C 
ATOM     27  C   UNL     1      34.590 -18.942 -21.214  0.00  0.00    +0.058 C 
ENDBRANCH  19  22
ENDBRANCH  16  18
ENDBRANCH  15  16
ENDBRANCH   1  15
TORSDOF 8
ENDMDL
MODEL 2
REMARK VINA RESULT:     -10.3      1.904      2.864
REMARK  Name = 39042
REMARK  8 active torsions:
REMARK  status: ('A' for Active; 'I' for Inactive)
REMARK    1  A    between atoms: C_1  and  C_15
REMARK    2  A    between atoms: C_2  and  O_7
REMARK    3  A    between atoms: O_7  and  C_8
REMARK    4  A    between atoms: C_8  and  C_12
REMARK    5  A    between atoms: C_12  and  O_13
REMARK    6  A    between atoms: C_15  and  C_16
REMARK    7  A    between atoms: C_16  and  N_18
REMARK    8  A    between atoms: C_19  and  C_22
REMARK                            x       y       z     vdW  Elec       q    Type
REMARK                         _______ _______ _______ _____ _____    ______ ____
ROOT
ATOM      1  C   UNL     1      35.542 -22.416 -17.266  0.00  0.00    -0.020 C 
ATOM      2  C   UNL     1      37.140 -23.293 -15.163  0.00  0.00    +0.139 C 
ATOM      3  C   UNL     1      36.906 -22.122 -17.256  0.00  0.00    -0.001 C 
ATOM      4  C   UNL     1      34.980 -23.150 -16.222  0.00  0.00    -0.001 C 
ATOM      5  C   UNL     1      37.706 -22.561 -16.201  0.00  0.00    +0.037 C 
ATOM      6  C   UNL     1      35.781 -23.589 -15.167  0.00  0.00    +0.037 C 
ENDROOT
BRANCH   2   7
ATOM      7  O   UNL     1      37.926 -23.724 -14.129  0.00  0.00    -0.472 OA
BRANCH   7   8
ATOM      8  C   UNL     1      38.301 -25.102 -14.144  0.00  0.00    +0.221 C 
ATOM      9  C   UNL     1      38.238 -25.624 -12.711  0.00  0.00    +0.055 C 
ATOM     10  C   UNL     1      37.346 -25.843 -15.073  0.00  0.00    +0.055 C 
BRANCH   8  12
ATOM     11  O   UNL     1      40.698 -24.676 -14.086  0.00  0.00    -0.246 OA
ATOM     12  C   UNL     1      39.727 -25.132 -14.678  0.00  0.00    +0.350 C 
BRANCH  12  13
ATOM     13  O   UNL     1      39.833 -25.718 -15.898  0.00  0.00    -0.478 OA
ATOM     14  H   UNL     1      39.081 -25.784 -16.453  0.00  0.00    +0.295 HD
ENDBRANCH  12  13
ENDBRANCH   8  12
ENDBRANCH   7   8
ENDBRANCH   2   7
BRANCH   1  15
ATOM     15  C   UNL     1      34.686 -21.946 -18.393  0.00  0.00    +0.048 C 
BRANCH  15  16
ATOM     16  C   UNL     1      35.365 -22.052 -19.764  0.00  0.00    +0.094 C 
BRANCH  16  18
ATOM     17  O   UNL     1      36.876 -19.619 -19.973  0.00  0.00    -0.270 OA
ATOM     18  N   UNL     1      35.068 -20.927 -20.609  0.00  0.00    -0.301 N 
ATOM     19  C   UNL     1      35.861 -19.786 -20.645  0.00  0.00    +0.246 C 
ATOM     20  H   UNL     1      34.272 -20.966 -21.187  0.00  0.00    +0.150 HD
BRANCH  19  22
ATOM     21 CL   UNL     1      34.031 -15.429 -24.284  0.00  0.00    -0.082 Cl
ATOM     22  C   UNL     1      35.405 -18.701 -21.551  0.00  0.00    +0.053 C 
ATOM     23  C   UNL     1      35.229 -17.433 -21.037  0.00  0.00    +0.005 C 
ATOM     24  C   UNL     1      35.173 -18.995 -22.879  0.00  0.00    +0.005 C 
ATOM     25  C   UNL     1      34.802 -16.414 -21.888  0.00  0.00    +0.012 C 
ATOM     26  C   UNL     1      34.745 -17.975 -23.730  0.00  0.00    +0.012 C 
ATOM     27  C   UNL     1      34.560 -16.685 -23.234  0.00  0.00    +0.058 C 
ENDBRANCH  19  22
ENDBRANCH  16  18
ENDBRANCH  15  16
ENDBRANCH   1  15
TORSDOF 8
ENDMDL
MODEL 3
REMARK VINA RESULT:     -10.1      2.312      3.513
REMARK  Name = 39042
REMARK  8 active torsions:
REMARK  status: ('A' for Active; 'I' for Inactive)
REMARK    1  A    between atoms: C_1  and  C_15
REMARK    2  A    between atoms: C_2  and  O_7
REMARK    3  A    between atoms: O_7  and  C_8
REMARK    4  A    between atoms: C_8  and  C_12
REMARK    5  A    between atoms: C_12  and  O_13
REMARK    6  A    between atoms: C_15  and  C_16
REMARK    7  A    between atoms: C_16  and  N_18
REMARK    8  A    between atoms: C_19  and  C_22
REMARK                            x       y       z     vdW  Elec       q    Type
REMARK                         _______ _______ _______ _____ _____    ______ ____
ROOT
ATOM      1  C   UNL     1      35.389 -22.345 -17.460  0.00  0.00    -0.020 C 
ATOM      2  C   UNL     1      36.675 -23.178 -15.137  0.00  0.00    +0.139 C 
ATOM      3  C   UNL     1      36.741 -22.059 -17.270  0.00  0.00    -0.001 C 
ATOM      4  C   UNL     1      34.682 -23.049 -16.485  0.00  0.00    -0.001 C 
ATOM      5  C   UNL     1      37.386 -22.476 -16.106  0.00  0.00    +0.037 C 
ATOM      6  C   UNL     1      35.327 -23.466 -15.320  0.00  0.00    +0.037 C 
ENDROOT
BRANCH   2   7
ATOM      7  O   UNL     1      37.309 -23.587 -13.995  0.00  0.00    -0.472 OA
BRANCH   7   8
ATOM      8  C   UNL     1      37.740 -24.948 -13.957  0.00  0.00    +0.221 C 
ATOM      9  C   UNL     1      36.894 -25.740 -14.951  0.00  0.00    +0.055 C 
ATOM     10  C   UNL     1      39.225 -24.984 -14.303  0.00  0.00    +0.055 C 
BRANCH   8  12
ATOM     11  O   UNL     1      37.833 -24.796 -11.529  0.00  0.00    -0.246 OA
ATOM     12  C   UNL     1      37.493 -25.416 -12.529  0.00  0.00    +0.350 C 
BRANCH  12  13
ATOM     13  O   UNL     1      36.851 -26.610 -12.456  0.00  0.00    -0.478 OA
ATOM     14  H   UNL     1      36.884 -27.204 -13.180  0.00  0.00    +0.295 HD
ENDBRANCH  12  13
ENDBRANCH   8  12
ENDBRANCH   7   8
ENDBRANCH   2   7
BRANCH   1  15
ATOM     15  C   UNL     1      34.699 -21.898 -18.704  0.00  0.00    +0.048 C 
BRANCH  15  16
ATOM     16  C   UNL     1      35.656 -21.634 -19.874  0.00  0.00    +0.094 C 
BRANCH  16  18
ATOM     17  O   UNL     1      37.212 -19.280 -20.405  0.00  0.00    -0.270 OA
ATOM     18  N   UNL     1      35.255 -20.499 -20.662  0.00  0.00    -0.301 N 
ATOM     19  C   UNL     1      36.080 -19.399 -20.866  0.00  0.00    +0.246 C 
ATOM     20  H   UNL     1      34.362 -20.502 -21.074  0.00  0.00    +0.150 HD
BRANCH  19  22
ATOM     21 CL   UNL     1      33.787 -14.974 -24.142  0.00  0.00    -0.082 Cl
ATOM     22  C   UNL     1      35.510 -18.297 -21.682  0.00  0.00    +0.053 C 
ATOM     23  C   UNL     1      35.506 -18.418 -23.056  0.00  0.00    +0.005 C 
ATOM     24  C   UNL     1      34.999 -17.187 -21.040  0.00  0.00    +0.005 C 
ATOM     25  C   UNL     1      34.969 -17.384 -23.822  0.00  0.00    +0.012 C 
ATOM     26  C   UNL     1      34.462 -16.153 -21.806  0.00  0.00    +0.012 C 
ATOM     27  C   UNL     1      34.447 -16.252 -23.197  0.00  0.00    +0.058 C 
ENDBRANCH  19  22
ENDBRANCH  16  18
ENDBRANCH  15  16
ENDBRANCH   1  15
TORSDOF 8
ENDMDL
MODEL 4
REMARK VINA RESULT:     -10.0      2.555      3.953
REMARK  Name = 39042
REMARK  8 active torsions:
REMARK  status: ('A' for Active; 'I' for Inactive)
REMARK    1  A    between atoms: C_1  and  C_15
REMARK    2  A    between atoms: C_2  and  O_7
REMARK    3  A    between atoms: O_7  and  C_8
REMARK    4  A    between atoms: C_8  and  C_12
REMARK    5  A    between atoms: C_12  and  O_13
REMARK    6  A    between atoms: C_15  and  C_16
REMARK    7  A    between atoms: C_16  and  N_18
REMARK    8  A    between atoms: C_19  and  C_22
REMARK                            x       y       z     vdW  Elec       q    Type
REMARK                         _______ _______ _______ _____ _____    ______ ____
ROOT
ATOM      1  C   UNL     1      35.614 -22.067 -17.920  0.00  0.00    -0.020 C 
ATOM      2  C   UNL     1      36.131 -23.054 -15.370  0.00  0.00    +0.139 C 
ATOM      3  C   UNL     1      36.863 -21.863 -17.333  0.00  0.00    -0.001 C 
ATOM      4  C   UNL     1      34.625 -22.765 -17.229  0.00  0.00    -0.001 C 
ATOM      5  C   UNL     1      37.122 -22.357 -16.054  0.00  0.00    +0.037 C 
ATOM      6  C   UNL     1      34.884 -23.260 -15.950  0.00  0.00    +0.037 C 
ENDROOT
BRANCH   2   7
ATOM      7  O   UNL     1      36.385 -23.539 -14.116  0.00  0.00    -0.472 OA
BRANCH   7   8
ATOM      8  C   UNL     1      36.873 -24.879 -14.036  0.00  0.00    +0.221 C 
ATOM      9  C   UNL     1      36.234 -25.681 -15.166  0.00  0.00    +0.055 C 
ATOM     10  C   UNL     1      38.393 -24.836 -14.143  0.00  0.00    +0.055 C 
BRANCH   8  12
ATOM     11  O   UNL     1      37.128 -26.069 -11.928  0.00  0.00    -0.246 OA
ATOM     12  C   UNL     1      36.429 -25.396 -12.674  0.00  0.00    +0.350 C 
BRANCH  12  13
ATOM     13  O   UNL     1      35.159 -25.040 -12.351  0.00  0.00    -0.478 OA
ATOM     14  H   UNL     1      34.615 -24.616 -12.985  0.00  0.00    +0.295 HD
ENDBRANCH  12  13
ENDBRANCH   8  12
ENDBRANCH   7   8
ENDBRANCH   2   7
BRANCH   1  15
ATOM     15  C   UNL     1      35.338 -21.538 -19.287  0.00  0.00    +0.048 C 
BRANCH  15  16
ATOM     16  C   UNL     1      36.514 -20.763 -19.893  0.00  0.00    +0.094 C 
BRANCH  16  18
ATOM     17  O   UNL     1      34.978 -20.178 -22.247  0.00  0.00    -0.270 OA
ATOM     18  N   UNL     1      36.125 -19.460 -20.364  0.00  0.00    -0.301 N 
ATOM     19  C   UNL     1      35.377 -19.273 -21.520  0.00  0.00    +0.246 C 
ATOM     20  H   UNL     1      36.400 -18.669 -19.846  0.00  0.00    +0.150 HD
BRANCH  19  22
ATOM     21 CL   UNL     1      34.184 -13.616 -22.987  0.00  0.00    -0.082 Cl
ATOM     22  C   UNL     1      35.080 -17.864 -21.885  0.00  0.00    +0.053 C 
ATOM     23  C   UNL     1      35.103 -17.502 -23.216  0.00  0.00    +0.005 C 
ATOM     24  C   UNL     1      34.790 -16.962 -20.882  0.00  0.00    +0.005 C 
ATOM     25  C   UNL     1      34.823 -16.179 -23.559  0.00  0.00    +0.012 C 
ATOM     26  C   UNL     1      34.510 -15.639 -21.225  0.00  0.00    +0.012 C 
ATOM     27  C   UNL     1      34.527 -15.248 -22.564  0.00  0.00    +0.058 C 
ENDBRANCH  19  22
ENDBRANCH  16  18
ENDBRANCH  15  16
ENDBRANCH   1  15
TORSDOF 8
ENDMDL
MODEL 5
REMARK VINA RESULT:     -10.0      8.262     11.770
REMARK  Name = 39042
REMARK  8 active torsions:
REMARK  status: ('A' for Active; 'I' for Inactive)
REMARK    1  A    between atoms: C_1  and  C_15
REMARK    2  A    between atoms: C_2  and  O_7
REMARK    3  A    between atoms: O_7  and  C_8
REMARK    4  A    between atoms: C_8  and  C_12
REMARK    5  A    between atoms: C_12  and  O_13
REMARK    6  A    between atoms: C_15  and  C_16
REMARK    7  A    between atoms: C_16  and  N_18
REMARK    8  A    between atoms: C_19  and  C_22
REMARK                            x       y       z     vdW  Elec       q    Type
REMARK                         _______ _______ _______ _____ _____    ______ ____
ROOT
ATOM      1  C   UNL     1      33.481 -14.670 -23.094  0.00  0.00    -0.020 C 
ATOM      2  C   UNL     1      34.525 -16.761 -21.582  0.00  0.00    +0.139 C 
ATOM      3  C   UNL     1      32.902 -15.002 -21.868  0.00  0.00    -0.001 C 
ATOM      4  C   UNL     1      34.583 -15.386 -23.560  0.00  0.00    -0.001 C 
ATOM      5  C   UNL     1      33.425 -16.050 -21.111  0.00  0.00    +0.037 C 
ATOM      6  C   UNL     1      35.106 -16.435 -22.803  0.00  0.00    +0.037 C 
ENDROOT
BRANCH   2   7
ATOM      7  O   UNL     1      35.038 -17.788 -20.838  0.00  0.00    -0.472 OA
BRANCH   7   8
ATOM      8  C   UNL     1      34.675 -19.110 -21.239  0.00  0.00    +0.221 C 
ATOM      9  C   UNL     1      33.246 -19.370 -20.770  0.00  0.00    +0.055 C 
ATOM     10  C   UNL     1      34.812 -19.199 -22.755  0.00  0.00    +0.055 C 
BRANCH   8  12
ATOM     11  O   UNL     1      35.412 -21.185 -20.201  0.00  0.00    -0.246 OA
ATOM     12  C   UNL     1      35.662 -20.035 -20.540  0.00  0.00    +0.350 C 
BRANCH  12  13
ATOM     13  O   UNL     1      36.872 -19.461 -20.315  0.00  0.00    -0.478 OA
ATOM     14  H   UNL     1      36.924 -18.558 -20.073  0.00  0.00    +0.295 HD
ENDBRANCH  12  13
ENDBRANCH   8  12
ENDBRANCH   7   8
ENDBRANCH   2   7
BRANCH   1  15
ATOM     15  C   UNL     1      32.921 -13.550 -23.904  0.00  0.00    +0.048 C 
BRANCH  15  16
ATOM     16  C   UNL     1      33.836 -12.321 -23.964  0.00  0.00    +0.094 C 
BRANCH  16  18
ATOM     17  O   UNL     1      34.933  -9.668 -23.950  0.00  0.00    -0.270 OA
ATOM     18  N   UNL     1      33.148 -11.109 -23.608  0.00  0.00    -0.301 N 
ATOM     19  C   UNL     1      33.763  -9.863 -23.632  0.00  0.00    +0.246 C 
ATOM     20  H   UNL     1      32.203 -11.164 -23.338  0.00  0.00    +0.150 HD
BRANCH  19  22
ATOM     21 CL   UNL     1      30.394  -5.240 -21.943  0.00  0.00    -0.082 Cl
ATOM     22  C   UNL     1      32.924  -8.712 -23.211  0.00  0.00    +0.053 C 
ATOM     23  C   UNL     1      33.434  -7.815 -22.296  0.00  0.00    +0.005 C 
ATOM     24  C   UNL     1      31.661  -8.575 -23.750  0.00  0.00    +0.005 C 
ATOM     25  C   UNL     1      32.647  -6.733 -21.901  0.00  0.00    +0.012 C 
ATOM     26  C   UNL     1      30.874  -7.493 -23.355  0.00  0.00    +0.012 C 
ATOM     27  C   UNL     1      31.367  -6.572 -22.431  0.00  0.00    +0.058 C 
ENDBRANCH  19  22
ENDBRANCH  16  18
ENDBRANCH  15  16
ENDBRANCH   1  15
TORSDOF 8
ENDMDL
MODEL 6
REMARK VINA RESULT:      -9.9      8.990     13.945
REMARK  Name = 39042
REMARK  8 active torsions:
REMARK  status: ('A' for Active; 'I' for Inactive)
REMARK    1  A    between atoms: C_1  and  C_15
REMARK    2  A    between atoms: C_2  and  O_7
REMARK    3  A    between atoms: O_7  and  C_8
REMARK    4  A    between atoms: C_8  and  C_12
REMARK    5  A    between atoms: C_12  and  O_13
REMARK    6  A    between atoms: C_15  and  C_16
REMARK    7  A    between atoms: C_16  and  N_18
REMARK    8  A    between atoms: C_19  and  C_22
REMARK                            x       y       z     vdW  Elec       q    Type
REMARK                         _______ _______ _______ _____ _____    ______ ____
ROOT
ATOM      1  C   UNL     1      32.596 -12.767 -22.625  0.00  0.00    -0.020 C 
ATOM      2  C   UNL     1      32.043 -10.048 -22.849  0.00  0.00    +0.139 C 
ATOM      3  C   UNL     1      33.334 -11.974 -23.506  0.00  0.00    -0.001 C 
ATOM      4  C   UNL     1      31.582 -12.195 -21.857  0.00  0.00    -0.001 C 
ATOM      5  C   UNL     1      33.056 -10.612 -23.618  0.00  0.00    +0.037 C 
ATOM      6  C   UNL     1      31.304 -10.832 -21.969  0.00  0.00    +0.037 C 
ENDROOT
BRANCH   2   7
ATOM      7  O   UNL     1      31.772  -8.711 -22.959  0.00  0.00    -0.472 OA
BRANCH   7   8
ATOM      8  C   UNL     1      32.494  -7.839 -22.089  0.00  0.00    +0.221 C 
ATOM      9  C   UNL     1      32.581  -8.505 -20.719  0.00  0.00    +0.055 C 
ATOM     10  C   UNL     1      33.869  -7.592 -22.701  0.00  0.00    +0.055 C 
BRANCH   8  12
ATOM     11  O   UNL     1      30.812  -6.245 -22.835  0.00  0.00    -0.246 OA
ATOM     12  C   UNL     1      31.678  -6.555 -22.027  0.00  0.00    +0.350 C 
BRANCH  12  13
ATOM     13  O   UNL     1      32.002  -5.762 -20.973  0.00  0.00    -0.478 OA
ATOM     14  H   UNL     1      31.538  -4.960 -20.830  0.00  0.00    +0.295 HD
ENDBRANCH  12  13
ENDBRANCH   8  12
ENDBRANCH   7   8
ENDBRANCH   2   7
BRANCH   1  15
ATOM     15  C   UNL     1      32.892 -14.223 -22.505  0.00  0.00    +0.048 C 
BRANCH  15  16
ATOM     16  C   UNL     1      34.386 -14.534 -22.350  0.00  0.00    +0.094 C 
BRANCH  16  18
ATOM     17  O   UNL     1      34.628 -17.070 -23.674  0.00  0.00    -0.270 OA
ATOM     18  N   UNL     1      34.617 -15.809 -21.727  0.00  0.00    -0.301 N 
ATOM     19  C   UNL     1      34.721 -16.990 -22.452  0.00  0.00    +0.246 C 
ATOM     20  H   UNL     1      34.707 -15.848 -20.747  0.00  0.00    +0.150 HD
BRANCH  19  22
ATOM     21 CL   UNL     1      35.576 -21.961 -19.268  0.00  0.00    -0.082 Cl
ATOM     22  C   UNL     1      34.934 -18.228 -21.659  0.00  0.00    +0.053 C 
ATOM     23  C   UNL     1      33.836 -18.965 -21.266  0.00  0.00    +0.005 C 
ATOM     24  C   UNL     1      36.223 -18.603 -21.340  0.00  0.00    +0.005 C 
ATOM     25  C   UNL     1      34.036 -20.128 -20.522  0.00  0.00    +0.012 C 
ATOM     26  C   UNL     1      36.423 -19.766 -20.597  0.00  0.00    +0.012 C 
ATOM     27  C   UNL     1      35.329 -20.528 -20.188  0.00  0.00    +0.058 C 
ENDBRANCH  19  22
ENDBRANCH  16  18
ENDBRANCH  15  16
ENDBRANCH   1  15
TORSDOF 8
ENDMDL
MODEL 7
REMARK VINA RESULT:      -9.8      8.412     11.773
REMARK  Name = 39042
REMARK  8 active torsions:
REMARK  status: ('A' for Active; 'I' for Inactive)
REMARK    1  A    between atoms: C_1  and  C_15
REMARK    2  A    between atoms: C_2  and  O_7
REMARK    3  A    between atoms: O_7  and  C_8
REMARK    4  A    between atoms: C_8  and  C_12
REMARK    5  A    between atoms: C_12  and  O_13
REMARK    6  A    between atoms: C_15  and  C_16
REMARK    7  A    between atoms: C_16  and  N_18
REMARK    8  A    between atoms: C_19  and  C_22
REMARK                            x       y       z     vdW  Elec       q    Type
REMARK                         _______ _______ _______ _____ _____    ______ ____
ROOT
ATOM      1  C   UNL     1      33.114 -14.439 -22.375  0.00  0.00    -0.020 C 
ATOM      2  C   UNL     1      34.533 -16.614 -21.374  0.00  0.00    +0.139 C 
ATOM      3  C   UNL     1      34.076 -15.070 -23.166  0.00  0.00    -0.001 C 
ATOM      4  C   UNL     1      32.865 -14.900 -21.083  0.00  0.00    -0.001 C 
ATOM      5  C   UNL     1      34.787 -16.159 -22.664  0.00  0.00    +0.037 C 
ATOM      6  C   UNL     1      33.577 -15.991 -20.581  0.00  0.00    +0.037 C 
ENDROOT
BRANCH   2   7
ATOM      7  O   UNL     1      35.231 -17.684 -20.883  0.00  0.00    -0.472 OA
BRANCH   7   8
ATOM      8  C   UNL     1      34.771 -18.979 -21.272  0.00  0.00    +0.221 C 
ATOM      9  C   UNL     1      33.313 -19.112 -20.841  0.00  0.00    +0.055 C 
ATOM     10  C   UNL     1      34.944 -19.109 -22.781  0.00  0.00    +0.055 C 
BRANCH   8  12
ATOM     11  O   UNL     1      35.339 -21.121 -20.262  0.00  0.00    -0.246 OA
ATOM     12  C   UNL     1      35.658 -19.969 -20.527  0.00  0.00    +0.350 C 
BRANCH  12  13
ATOM     13  O   UNL     1      36.861 -19.450 -20.170  0.00  0.00    -0.478 OA
ATOM     14  H   UNL     1      37.618 -19.619 -20.696  0.00  0.00    +0.295 HD
ENDBRANCH  12  13
ENDBRANCH   8  12
ENDBRANCH   7   8
ENDBRANCH   2   7
BRANCH   1  15
ATOM     15  C   UNL     1      32.355 -13.274 -22.912  0.00  0.00    +0.048 C 
BRANCH  15  16
ATOM     16  C   UNL     1      31.948 -12.260 -21.835  0.00  0.00    +0.094 C 
BRANCH  16  18
ATOM     17  O   UNL     1      31.895  -9.841 -20.290  0.00  0.00    -0.270 OA
ATOM     18  N   UNL     1      31.885 -10.916 -22.345  0.00  0.00    -0.301 N 
ATOM     19  C   UNL     1      31.865  -9.801 -21.517  0.00  0.00    +0.246 C 
ATOM     20  H   UNL     1      31.857 -10.781 -23.320  0.00  0.00    +0.150 HD
BRANCH  19  22
ATOM     21 CL   UNL     1      31.488  -4.512 -24.248  0.00  0.00    -0.082 Cl
ATOM     22  C   UNL     1      31.772  -8.483 -22.197  0.00  0.00    +0.053 C 
ATOM     23  C   UNL     1      31.278  -8.431 -23.484  0.00  0.00    +0.005 C 
ATOM     24  C   UNL     1      32.180  -7.353 -21.520  0.00  0.00    +0.005 C 
ATOM     25  C   UNL     1      31.189  -7.195 -24.123  0.00  0.00    +0.012 C 
ATOM     26  C   UNL     1      32.091  -6.116 -22.159  0.00  0.00    +0.012 C 
ATOM     27  C   UNL     1      31.596  -6.037 -23.460  0.00  0.00    +0.058 C 
ENDBRANCH  19  22
ENDBRANCH  16  18
ENDBRANCH  15  16
ENDBRANCH   1  15
TORSDOF 8
ENDMDL
MODEL 8
REMARK VINA RESULT:      -9.7     10.339     15.462
REMARK  Name = 39042
REMARK  8 active torsions:
REMARK  status: ('A' for Active; 'I' for Inactive)
REMARK    1  A    between atoms: C_1  and  C_15
REMARK    2  A    between atoms: C_2  and  O_7
REMARK    3  A    between atoms: O_7  and  C_8
REMARK    4  A    between atoms: C_8  and  C_12
REMARK    5  A    between atoms: C_12  and  O_13
REMARK    6  A    between atoms: C_15  and  C_16
REMARK    7  A    between atoms: C_16  and  N_18
REMARK    8  A    between atoms: C_19  and  C_22
REMARK                            x       y       z     vdW  Elec       q    Type
REMARK                         _______ _______ _______ _____ _____    ______ ____
ROOT
ATOM      1  C   UNL     1      33.837 -10.770 -24.065  0.00  0.00    -0.020 C 
ATOM      2  C   UNL     1      33.207  -8.229 -23.121  0.00  0.00    +0.139 C 
ATOM      3  C   UNL     1      32.716 -10.584 -23.256  0.00  0.00    -0.001 C 
ATOM      4  C   UNL     1      34.642  -9.681 -24.400  0.00  0.00    -0.001 C 
ATOM      5  C   UNL     1      32.401  -9.310 -22.783  0.00  0.00    +0.037 C 
ATOM      6  C   UNL     1      34.326  -8.407 -23.927  0.00  0.00    +0.037 C 
ENDROOT
BRANCH   2   7
ATOM      7  O   UNL     1      32.897  -6.979 -22.657  0.00  0.00    -0.472 OA
BRANCH   7   8
ATOM      8  C   UNL     1      31.860  -6.280 -23.347  0.00  0.00    +0.221 C 
ATOM      9  C   UNL     1      32.500  -5.497 -24.490  0.00  0.00    +0.055 C 
ATOM     10  C   UNL     1      30.847  -7.306 -23.844  0.00  0.00    +0.055 C 
BRANCH   8  12
ATOM     11  O   UNL     1      30.412  -4.482 -22.577  0.00  0.00    -0.246 OA
ATOM     12  C   UNL     1      31.240  -5.345 -22.318  0.00  0.00    +0.350 C 
BRANCH  12  13
ATOM     13  O   UNL     1      31.698  -5.554 -21.056  0.00  0.00    -0.478 OA
ATOM     14  H   UNL     1      31.187  -5.280 -20.321  0.00  0.00    +0.295 HD
ENDBRANCH  12  13
ENDBRANCH   8  12
ENDBRANCH   7   8
ENDBRANCH   2   7
BRANCH   1  15
ATOM     15  C   UNL     1      34.175 -12.131 -24.571  0.00  0.00    +0.048 C 
BRANCH  15  16
ATOM     16  C   UNL     1      33.127 -13.194 -24.216  0.00  0.00    +0.094 C 
BRANCH  16  18
ATOM     17  O   UNL     1      33.868 -15.735 -25.326  0.00  0.00    -0.270 OA
ATOM     18  N   UNL     1      33.697 -14.308 -23.506  0.00  0.00    -0.301 N 
ATOM     19  C   UNL     1      34.027 -15.505 -24.131  0.00  0.00    +0.246 C 
ATOM     20  H   UNL     1      33.861 -14.218 -22.540  0.00  0.00    +0.150 HD
BRANCH  19  22
ATOM     21 CL   UNL     1      36.252 -19.774 -20.610  0.00  0.00    -0.082 Cl
ATOM     22  C   UNL     1      34.581 -16.568 -23.254  0.00  0.00    +0.053 C 
ATOM     23  C   UNL     1      34.662 -16.338 -21.897  0.00  0.00    +0.005 C 
ATOM     24  C   UNL     1      34.997 -17.753 -23.825  0.00  0.00    +0.005 C 
ATOM     25  C   UNL     1      35.182 -17.336 -21.073  0.00  0.00    +0.012 C 
ATOM     26  C   UNL     1      35.516 -18.752 -23.001  0.00  0.00    +0.012 C 
ATOM     27  C   UNL     1      35.609 -18.543 -21.626  0.00  0.00    +0.058 C 
ENDBRANCH  19  22
ENDBRANCH  16  18
ENDBRANCH  15  16
ENDBRANCH   1  15
TORSDOF 8
ENDMDL
MODEL 9
REMARK VINA RESULT:      -9.5     11.359     16.410
REMARK  Name = 39042
REMARK  8 active torsions:
REMARK  status: ('A' for Active; 'I' for Inactive)
REMARK    1  A    between atoms: C_1  and  C_15
REMARK    2  A    between atoms: C_2  and  O_7
REMARK    3  A    between atoms: O_7  and  C_8
REMARK    4  A    between atoms: C_8  and  C_12
REMARK    5  A    between atoms: C_12  and  O_13
REMARK    6  A    between atoms: C_15  and  C_16
REMARK    7  A    between atoms: C_16  and  N_18
REMARK    8  A    between atoms: C_19  and  C_22
REMARK                            x       y       z     vdW  Elec       q    Type
REMARK                         _______ _______ _______ _____ _____    ______ ____
ROOT
ATOM      1  C   UNL     1      34.177  -9.336 -23.972  0.00  0.00    -0.020 C 
ATOM      2  C   UNL     1      33.043  -7.069 -22.822  0.00  0.00    +0.139 C 
ATOM      3  C   UNL     1      34.668  -8.070 -24.294  0.00  0.00    -0.001 C 
ATOM      4  C   UNL     1      33.118  -9.465 -23.074  0.00  0.00    -0.001 C 
ATOM      5  C   UNL     1      34.099  -6.934 -23.718  0.00  0.00    +0.037 C 
ATOM      6  C   UNL     1      32.549  -8.328 -22.498  0.00  0.00    +0.037 C 
ENDROOT
BRANCH   2   7
ATOM      7  O   UNL     1      32.486  -5.954 -22.257  0.00  0.00    -0.472 OA
BRANCH   7   8
ATOM      8  C   UNL     1      31.282  -5.469 -22.853  0.00  0.00    +0.221 C 
ATOM      9  C   UNL     1      30.856  -6.462 -23.931  0.00  0.00    +0.055 C 
ATOM     10  C   UNL     1      30.235  -5.323 -21.754  0.00  0.00    +0.055 C 
BRANCH   8  12
ATOM     11  O   UNL     1      32.032  -3.957 -24.608  0.00  0.00    -0.246 OA
ATOM     12  C   UNL     1      31.641  -4.119 -23.459  0.00  0.00    +0.350 C 
BRANCH  12  13
ATOM     13  O   UNL     1      31.489  -3.083 -22.593  0.00  0.00    -0.478 OA
ATOM     14  H   UNL     1      32.071  -2.991 -21.866  0.00  0.00    +0.295 HD
ENDBRANCH  12  13
ENDBRANCH   8  12
ENDBRANCH   7   8
ENDBRANCH   2   7
BRANCH   1  15
ATOM     15  C   UNL     1      34.784 -10.550 -24.588  0.00  0.00    +0.048 C 
BRANCH  15  16
ATOM     16  C   UNL     1      33.785 -11.694 -24.801  0.00  0.00    +0.094 C 
BRANCH  16  18
ATOM     17  O   UNL     1      32.441 -13.145 -22.720  0.00  0.00    -0.270 OA
ATOM     18  N   UNL     1      34.221 -12.921 -24.190  0.00  0.00    -0.301 N 
ATOM     19  C   UNL     1      33.501 -13.556 -23.185  0.00  0.00    +0.246 C 
ATOM     20  H   UNL     1      35.063 -13.329 -24.498  0.00  0.00    +0.150 HD
BRANCH  19  22
ATOM     21 CL   UNL     1      35.904 -18.556 -20.994  0.00  0.00    -0.082 Cl
ATOM     22  C   UNL     1      34.099 -14.801 -22.640  0.00  0.00    +0.053 C 
ATOM     23  C   UNL     1      34.613 -15.733 -23.516  0.00  0.00    +0.005 C 
ATOM     24  C   UNL     1      34.123 -14.986 -21.272  0.00  0.00    +0.005 C 
ATOM     25  C   UNL     1      35.176 -16.903 -23.004  0.00  0.00    +0.012 C 
ATOM     26  C   UNL     1      34.685 -16.155 -20.760  0.00  0.00    +0.012 C 
ATOM     27  C   UNL     1      35.212 -17.113 -21.626  0.00  0.00    +0.058 C 
ENDBRANCH  19  22
ENDBRANCH  16  18
ENDBRANCH  15  16
ENDBRANCH   1  15
TORSDOF 8
ENDMDL
