MODEL 1
REMARK VINA RESULT:      -8.6      0.000      0.000
REMARK  Name = 10993014
REMARK  5 active torsions:
REMARK  status: ('A' for Active; 'I' for Inactive)
REMARK    1  A    between atoms: N_2  and  C_7
REMARK    2  A    between atoms: C_3  and  C_18
REMARK    3  A    between atoms: N_5  and  C_15
REMARK    4  A    between atoms: C_19  and  O_27
REMARK    5  A    between atoms: C_23  and  N_24
REMARK                            x       y       z     vdW  Elec       q    Type
REMARK                         _______ _______ _______ _____ _____    ______ ____
ROOT
ATOM      1  O   UNL     1      30.791 -11.965 -21.664  0.00  0.00    -0.270 OA
ATOM      2  N   UNL     1      32.763 -11.871 -22.881  0.00  0.00    -0.307 N 
ATOM      3  C   UNL     1      31.724 -11.328 -22.145  0.00  0.00    +0.249 C 
ATOM      4  H   UNL     1      33.465 -11.274 -23.223  0.00  0.00    +0.150 HD
ENDROOT
BRANCH   2   7
ATOM      5  N   UNL     1      33.213 -14.873 -25.016  0.00  0.00    +0.387 N 
ATOM      6  N   UNL     1      33.803 -15.436 -22.202  0.00  0.00    +0.385 N 
ATOM      7  C   UNL     1      32.849 -13.291 -23.164  0.00  0.00    +0.031 C 
ATOM      8  C   UNL     1      33.424 -13.493 -24.572  0.00  0.00    -0.060 C 
ATOM      9  C   UNL     1      33.612 -13.985 -22.027  0.00  0.00    -0.060 C 
ATOM     10  C   UNL     1      34.307 -15.777 -24.651  0.00  0.00    -0.101 C 
ATOM     11  C   UNL     1      34.837 -15.705 -23.213  0.00  0.00    -0.101 C 
ATOM     12  C   UNL     1      34.206 -16.025 -20.918  0.00  0.00    -0.101 C 
ATOM     13  H   UNL     1      32.380 -15.194 -24.522  0.00  0.00    -0.080 HD
ATOM     14  H   UNL     1      32.926 -15.851 -22.519  0.00  0.00    -0.080 HD
BRANCH   5  15
ATOM     15  C   UNL     1      32.979 -14.934 -26.461  0.00  0.00    -0.077 C 
ATOM     16  C   UNL     1      33.161 -13.570 -27.105  0.00  0.00    -0.025 C 
ENDBRANCH   5  15
ENDBRANCH   2   7
BRANCH   3  18
ATOM     17 BR   UNL     1      31.170  -6.593 -24.432  0.00  0.00    -0.048 Br
ATOM     18  C   UNL     1      31.766  -9.854 -21.964  0.00  0.00    +0.088 C 
ATOM     19  C   UNL     1      32.062  -9.322 -20.726  0.00  0.00    +0.144 C 
ATOM     20  C   UNL     1      31.502  -9.057 -23.061  0.00  0.00    +0.015 C 
ATOM     21  C   UNL     1      32.098  -7.936 -20.577  0.00  0.00    +0.052 C 
ATOM     22  C   UNL     1      31.537  -7.671 -22.913  0.00  0.00    +0.048 C 
ATOM     23  C   UNL     1      31.834  -7.110 -21.670  0.00  0.00    +0.054 C 
BRANCH  23  24
ATOM     24  N   UNL     1      31.878  -5.710 -21.484  0.00  0.00    -0.331 N 
ATOM     25  C   UNL     1      30.703  -4.898 -21.438  0.00  0.00    +0.109 C 
ATOM     26  H   UNL     1      32.756  -5.276 -21.383  0.00  0.00    +0.147 HD
ENDBRANCH  23  24
BRANCH  19  27
ATOM     27  O   UNL     1      32.323 -10.113 -19.647  0.00  0.00    -0.471 OA
ATOM     28  C   UNL     1      31.234 -10.391 -18.770  0.00  0.00    +0.252 C 
ENDBRANCH  19  27
ENDBRANCH   3  18
TORSDOF 5
ENDMDL
MODEL 2
REMARK VINA RESULT:      -8.3      1.958      3.355
REMARK  Name = 10993014
REMARK  5 active torsions:
REMARK  status: ('A' for Active; 'I' for Inactive)
REMARK    1  A    between atoms: N_2  and  C_7
REMARK    2  A    between atoms: C_3  and  C_18
REMARK    3  A    between atoms: N_5  and  C_15
REMARK    4  A    between atoms: C_19  and  O_27
REMARK    5  A    between atoms: C_23  and  N_24
REMARK                            x       y       z     vdW  Elec       q    Type
REMARK                         _______ _______ _______ _____ _____    ______ ____
ROOT
ATOM      1  O   UNL     1      35.212  -9.274 -24.010  0.00  0.00    -0.270 OA
ATOM      2  N   UNL     1      33.201 -10.412 -23.813  0.00  0.00    -0.307 N 
ATOM      3  C   UNL     1      34.006  -9.286 -23.780  0.00  0.00    +0.249 C 
ATOM      4  H   UNL     1      32.242 -10.316 -23.614  0.00  0.00    +0.150 HD
ENDROOT
BRANCH   2   7
ATOM      5  N   UNL     1      34.062 -13.959 -23.148  0.00  0.00    +0.387 N 
ATOM      6  N   UNL     1      33.767 -13.426 -26.014  0.00  0.00    +0.385 N 
ATOM      7  C   UNL     1      33.723 -11.726 -24.131  0.00  0.00    +0.031 C 
ATOM      8  C   UNL     1      33.287 -12.721 -23.047  0.00  0.00    -0.060 C 
ATOM      9  C   UNL     1      33.325 -12.092 -25.568  0.00  0.00    -0.060 C 
ATOM     10  C   UNL     1      33.454 -14.957 -24.033  0.00  0.00    -0.101 C 
ATOM     11  C   UNL     1      32.943 -14.477 -25.399  0.00  0.00    -0.101 C 
ATOM     12  C   UNL     1      33.651 -13.504 -27.477  0.00  0.00    -0.101 C 
ATOM     13  H   UNL     1      34.953 -13.690 -23.567  0.00  0.00    -0.080 HD
ATOM     14  H   UNL     1      34.736 -13.567 -25.731  0.00  0.00    -0.080 HD
BRANCH   5  15
ATOM     15  C   UNL     1      34.299 -14.546 -21.827  0.00  0.00    -0.077 C 
ATOM     16  C   UNL     1      33.041 -14.509 -20.977  0.00  0.00    -0.025 C 
ENDBRANCH   5  15
ENDBRANCH   2   7
BRANCH   3  18
ATOM     17 BR   UNL     1      32.292  -4.568 -25.439  0.00  0.00    -0.048 Br
ATOM     18  C   UNL     1      33.324  -8.018 -23.413  0.00  0.00    +0.088 C 
ATOM     19  C   UNL     1      32.883  -7.825 -22.120  0.00  0.00    +0.144 C 
ATOM     20  C   UNL     1      33.154  -7.064 -24.397  0.00  0.00    +0.015 C 
ATOM     21  C   UNL     1      32.247  -6.627 -21.795  0.00  0.00    +0.052 C 
ATOM     22  C   UNL     1      32.517  -5.866 -24.073  0.00  0.00    +0.048 C 
ATOM     23  C   UNL     1      32.063  -5.648 -22.772  0.00  0.00    +0.054 C 
BRANCH  23  24
ATOM     24  N   UNL     1      31.414  -4.446 -22.409  0.00  0.00    -0.331 N 
ATOM     25  C   UNL     1      30.114  -4.417 -21.816  0.00  0.00    +0.109 C 
ATOM     26  H   UNL     1      31.877  -3.593 -22.571  0.00  0.00    +0.147 HD
ENDBRANCH  23  24
BRANCH  19  27
ATOM     27  O   UNL     1      33.054  -8.770 -21.153  0.00  0.00    -0.471 OA
ATOM     28  C   UNL     1      31.876  -9.326 -20.576  0.00  0.00    +0.252 C 
ENDBRANCH  19  27
ENDBRANCH   3  18
TORSDOF 5
ENDMDL
MODEL 3
REMARK VINA RESULT:      -8.2      3.105      8.137
REMARK  Name = 10993014
REMARK  5 active torsions:
REMARK  status: ('A' for Active; 'I' for Inactive)
REMARK    1  A    between atoms: N_2  and  C_7
REMARK    2  A    between atoms: C_3  and  C_18
REMARK    3  A    between atoms: N_5  and  C_15
REMARK    4  A    between atoms: C_19  and  O_27
REMARK    5  A    between atoms: C_23  and  N_24
REMARK                            x       y       z     vdW  Elec       q    Type
REMARK                         _______ _______ _______ _____ _____    ______ ____
ROOT
ATOM      1  O   UNL     1      31.757 -13.147 -21.670  0.00  0.00    -0.270 OA
ATOM      2  N   UNL     1      32.974 -11.850 -23.159  0.00  0.00    -0.307 N 
ATOM      3  C   UNL     1      32.586 -13.041 -22.569  0.00  0.00    +0.249 C 
ATOM      4  H   UNL     1      33.648 -11.872 -23.875  0.00  0.00    +0.150 HD
ENDROOT
BRANCH   2   7
ATOM      5  N   UNL     1      31.674  -9.333 -20.762  0.00  0.00    +0.387 N 
ATOM      6  N   UNL     1      32.640  -8.091 -23.233  0.00  0.00    +0.385 N 
ATOM      7  C   UNL     1      32.419 -10.573 -22.756  0.00  0.00    +0.031 C 
ATOM      8  C   UNL     1      32.515 -10.437 -21.230  0.00  0.00    -0.060 C 
ATOM      9  C   UNL     1      33.089  -9.454 -23.566  0.00  0.00    -0.060 C 
ATOM     10  C   UNL     1      32.371  -8.044 -20.725  0.00  0.00    -0.101 C 
ATOM     11  C   UNL     1      33.211  -7.656 -21.950  0.00  0.00    -0.101 C 
ATOM     12  C   UNL     1      33.068  -7.173 -24.297  0.00  0.00    -0.101 C 
ATOM     13  H   UNL     1      30.925  -9.250 -21.449  0.00  0.00    -0.080 HD
ATOM     14  H   UNL     1      31.623  -8.086 -23.153  0.00  0.00    -0.080 HD
BRANCH   5  15
ATOM     15  C   UNL     1      31.101  -9.625 -19.446  0.00  0.00    -0.077 C 
ATOM     16  C   UNL     1      31.498 -11.012 -18.970  0.00  0.00    -0.025 C 
ENDBRANCH   5  15
ENDBRANCH   2   7
BRANCH   3  18
ATOM     17 BR   UNL     1      35.145 -17.497 -21.323  0.00  0.00    -0.048 Br
ATOM     18  C   UNL     1      33.266 -14.261 -23.076  0.00  0.00    +0.088 C 
ATOM     19  C   UNL     1      33.357 -14.482 -24.436  0.00  0.00    +0.144 C 
ATOM     20  C   UNL     1      33.790 -15.144 -22.153  0.00  0.00    +0.015 C 
ATOM     21  C   UNL     1      34.000 -15.632 -24.891  0.00  0.00    +0.052 C 
ATOM     22  C   UNL     1      34.432 -16.295 -22.608  0.00  0.00    +0.048 C 
ATOM     23  C   UNL     1      34.537 -16.540 -23.978  0.00  0.00    +0.054 C 
BRANCH  23  24
ATOM     24  N   UNL     1      35.181 -17.696 -24.474  0.00  0.00    -0.331 N 
ATOM     25  C   UNL     1      34.492 -18.924 -24.712  0.00  0.00    +0.109 C 
ATOM     26  H   UNL     1      36.146 -17.652 -24.663  0.00  0.00    +0.147 HD
ENDBRANCH  23  24
BRANCH  19  27
ATOM     27  O   UNL     1      32.839 -13.607 -25.343  0.00  0.00    -0.471 OA
ATOM     28  C   UNL     1      33.118 -13.858 -26.718  0.00  0.00    +0.252 C 
ENDBRANCH  19  27
ENDBRANCH   3  18
TORSDOF 5
ENDMDL
MODEL 4
REMARK VINA RESULT:      -8.1     10.906     14.947
REMARK  Name = 10993014
REMARK  5 active torsions:
REMARK  status: ('A' for Active; 'I' for Inactive)
REMARK    1  A    between atoms: N_2  and  C_7
REMARK    2  A    between atoms: C_3  and  C_18
REMARK    3  A    between atoms: N_5  and  C_15
REMARK    4  A    between atoms: C_19  and  O_27
REMARK    5  A    between atoms: C_23  and  N_24
REMARK                            x       y       z     vdW  Elec       q    Type
REMARK                         _______ _______ _______ _____ _____    ______ ____
ROOT
ATOM      1  O   UNL     1      36.552 -22.351 -15.408  0.00  0.00    -0.270 OA
ATOM      2  N   UNL     1      35.559 -24.432 -15.651  0.00  0.00    -0.307 N 
ATOM      3  C   UNL     1      35.794 -23.114 -16.000  0.00  0.00    +0.249 C 
ATOM      4  H   UNL     1      34.932 -24.962 -16.192  0.00  0.00    +0.150 HD
ENDROOT
BRANCH   2   7
ATOM      5  N   UNL     1      38.397 -25.897 -13.761  0.00  0.00    +0.387 N 
ATOM      6  N   UNL     1      36.270 -24.954 -11.980  0.00  0.00    +0.385 N 
ATOM      7  C   UNL     1      36.208 -25.057 -14.515  0.00  0.00    +0.031 C 
ATOM      8  C   UNL     1      37.729 -24.994 -14.701  0.00  0.00    -0.060 C 
ATOM      9  C   UNL     1      35.670 -24.431 -13.221  0.00  0.00    -0.060 C 
ATOM     10  C   UNL     1      38.724 -25.267 -12.479  0.00  0.00    -0.101 C 
ATOM     11  C   UNL     1      37.632 -24.428 -11.802  0.00  0.00    -0.101 C 
ATOM     12  C   UNL     1      35.435 -24.555 -10.839  0.00  0.00    -0.101 C 
ATOM     13  H   UNL     1      37.722 -26.638 -13.568  0.00  0.00    -0.080 HD
ATOM     14  H   UNL     1      36.321 -25.971 -12.040  0.00  0.00    -0.080 HD
BRANCH   5  15
ATOM     15  C   UNL     1      39.606 -26.477 -14.352  0.00  0.00    -0.077 C 
ATOM     16  C   UNL     1      40.543 -25.394 -14.858  0.00  0.00    -0.025 C 
ENDBRANCH   5  15
ENDBRANCH   2   7
BRANCH   3  18
ATOM     17 BR   UNL     1      36.000 -20.502 -20.593  0.00  0.00    -0.048 Br
ATOM     18  C   UNL     1      35.034 -22.614 -17.175  0.00  0.00    +0.088 C 
ATOM     19  C   UNL     1      33.676 -22.846 -17.263  0.00  0.00    +0.144 C 
ATOM     20  C   UNL     1      35.726 -21.924 -18.151  0.00  0.00    +0.015 C 
ATOM     21  C   UNL     1      32.980 -22.368 -18.373  0.00  0.00    +0.052 C 
ATOM     22  C   UNL     1      35.030 -21.447 -19.262  0.00  0.00    +0.048 C 
ATOM     23  C   UNL     1      33.657 -21.669 -19.373  0.00  0.00    +0.054 C 
BRANCH  23  24
ATOM     24  N   UNL     1      32.921 -21.198 -20.484  0.00  0.00    -0.331 N 
ATOM     25  C   UNL     1      32.576 -19.823 -20.657  0.00  0.00    +0.109 C 
ATOM     26  H   UNL     1      32.634 -21.846 -21.167  0.00  0.00    +0.147 HD
ENDBRANCH  23  24
BRANCH  19  27
ATOM     27  O   UNL     1      32.998 -23.526 -16.297  0.00  0.00    -0.471 OA
ATOM     28  C   UNL     1      31.612 -23.229 -16.147  0.00  0.00    +0.252 C 
ENDBRANCH  19  27
ENDBRANCH   3  18
TORSDOF 5
ENDMDL
MODEL 5
REMARK VINA RESULT:      -8.0     10.680     14.815
REMARK  Name = 10993014
REMARK  5 active torsions:
REMARK  status: ('A' for Active; 'I' for Inactive)
REMARK    1  A    between atoms: N_2  and  C_7
REMARK    2  A    between atoms: C_3  and  C_18
REMARK    3  A    between atoms: N_5  and  C_15
REMARK    4  A    between atoms: C_19  and  O_27
REMARK    5  A    between atoms: C_23  and  N_24
REMARK                            x       y       z     vdW  Elec       q    Type
REMARK                         _______ _______ _______ _____ _____    ______ ____
ROOT
ATOM      1  O   UNL     1      35.292 -24.532 -15.931  0.00  0.00    -0.270 OA
ATOM      2  N   UNL     1      36.613 -22.643 -15.686  0.00  0.00    -0.307 N 
ATOM      3  C   UNL     1      35.601 -23.391 -16.262  0.00  0.00    +0.249 C 
ATOM      4  H   UNL     1      36.783 -21.734 -16.024  0.00  0.00    +0.150 HD
ENDROOT
BRANCH   2   7
ATOM      5  N   UNL     1      37.333 -23.708 -12.205  0.00  0.00    +0.387 N 
ATOM      6  N   UNL     1      39.184 -24.923 -14.124  0.00  0.00    +0.385 N 
ATOM      7  C   UNL     1      37.431 -23.153 -14.603  0.00  0.00    +0.031 C 
ATOM      8  C   UNL     1      36.530 -23.514 -13.414  0.00  0.00    -0.060 C 
ATOM      9  C   UNL     1      38.319 -24.287 -15.133  0.00  0.00    -0.060 C 
ATOM     10  C   UNL     1      37.793 -25.088 -12.025  0.00  0.00    -0.101 C 
ATOM     11  C   UNL     1      38.397 -25.800 -13.244  0.00  0.00    -0.101 C 
ATOM     12  C   UNL     1      40.217 -25.713 -14.808  0.00  0.00    -0.101 C 
ATOM     13  H   UNL     1      38.163 -23.129 -12.333  0.00  0.00    -0.080 HD
ATOM     14  H   UNL     1      39.618 -24.197 -13.553  0.00  0.00    -0.080 HD
BRANCH   5  15
ATOM     15  C   UNL     1      36.608 -23.267 -11.011  0.00  0.00    -0.077 C 
ATOM     16  C   UNL     1      35.675 -24.352 -10.503  0.00  0.00    -0.025 C 
ENDBRANCH   5  15
ENDBRANCH   2   7
BRANCH   3  18
ATOM     17 BR   UNL     1      35.972 -20.452 -20.641  0.00  0.00    -0.048 Br
ATOM     18  C   UNL     1      34.872 -22.736 -17.378  0.00  0.00    +0.088 C 
ATOM     19  C   UNL     1      33.498 -22.843 -17.456  0.00  0.00    +0.144 C 
ATOM     20  C   UNL     1      35.608 -22.034 -18.312  0.00  0.00    +0.015 C 
ATOM     21  C   UNL     1      32.832 -22.220 -18.511  0.00  0.00    +0.052 C 
ATOM     22  C   UNL     1      34.942 -21.412 -19.368  0.00  0.00    +0.048 C 
ATOM     23  C   UNL     1      33.554 -21.505 -19.468  0.00  0.00    +0.054 C 
BRANCH  23  24
ATOM     24  N   UNL     1      32.847 -20.886 -20.524  0.00  0.00    -0.331 N 
ATOM     25  C   UNL     1      32.590 -19.481 -20.564  0.00  0.00    +0.109 C 
ATOM     26  H   UNL     1      32.517 -21.448 -21.262  0.00  0.00    +0.147 HD
ENDBRANCH  23  24
BRANCH  19  27
ATOM     27  O   UNL     1      32.776 -23.536 -16.532  0.00  0.00    -0.471 OA
ATOM     28  C   UNL     1      31.415 -23.153 -16.352  0.00  0.00    +0.252 C 
ENDBRANCH  19  27
ENDBRANCH   3  18
TORSDOF 5
ENDMDL
MODEL 6
REMARK VINA RESULT:      -8.0      9.503     13.182
REMARK  Name = 10993014
REMARK  5 active torsions:
REMARK  status: ('A' for Active; 'I' for Inactive)
REMARK    1  A    between atoms: N_2  and  C_7
REMARK    2  A    between atoms: C_3  and  C_18
REMARK    3  A    between atoms: N_5  and  C_15
REMARK    4  A    between atoms: C_19  and  O_27
REMARK    5  A    between atoms: C_23  and  N_24
REMARK                            x       y       z     vdW  Elec       q    Type
REMARK                         _______ _______ _______ _____ _____    ______ ____
ROOT
ATOM      1  O   UNL     1      33.848 -23.933 -18.938  0.00  0.00    -0.270 OA
ATOM      2  N   UNL     1      33.116 -22.416 -17.344  0.00  0.00    -0.307 N 
ATOM      3  C   UNL     1      33.771 -22.786 -18.506  0.00  0.00    +0.249 C 
ATOM      4  H   UNL     1      33.111 -21.468 -17.084  0.00  0.00    +0.150 HD
ENDROOT
BRANCH   2   7
ATOM      5  N   UNL     1      32.558 -24.410 -14.265  0.00  0.00    +0.387 N 
ATOM      6  N   UNL     1      30.104 -24.123 -15.840  0.00  0.00    +0.385 N 
ATOM      7  C   UNL     1      32.438 -23.380 -16.499  0.00  0.00    +0.031 C 
ATOM      8  C   UNL     1      32.961 -23.250 -15.062  0.00  0.00    -0.060 C 
ATOM      9  C   UNL     1      30.921 -23.222 -16.671  0.00  0.00    -0.060 C 
ATOM     10  C   UNL     1      31.262 -24.240 -13.601  0.00  0.00    -0.101 C 
ATOM     11  C   UNL     1      30.104 -23.679 -14.438  0.00  0.00    -0.101 C 
ATOM     12  C   UNL     1      28.727 -24.131 -16.353  0.00  0.00    -0.101 C 
ATOM     13  H   UNL     1      32.455 -25.177 -14.930  0.00  0.00    -0.080 HD
ATOM     14  H   UNL     1      30.499 -25.063 -15.881  0.00  0.00    -0.080 HD
BRANCH   5  15
ATOM     15  C   UNL     1      33.581 -24.755 -13.275  0.00  0.00    -0.077 C 
ATOM     16  C   UNL     1      34.950 -24.256 -13.704  0.00  0.00    -0.025 C 
ENDBRANCH   5  15
ENDBRANCH   2   7
BRANCH   3  18
ATOM     17 BR   UNL     1      33.169 -18.719 -21.829  0.00  0.00    -0.048 Br
ATOM     18  C   UNL     1      34.438 -21.685 -19.247  0.00  0.00    +0.088 C 
ATOM     19  C   UNL     1      35.801 -21.505 -19.129  0.00  0.00    +0.144 C 
ATOM     20  C   UNL     1      33.655 -20.869 -20.041  0.00  0.00    +0.015 C 
ATOM     21  C   UNL     1      36.408 -20.466 -19.834  0.00  0.00    +0.052 C 
ATOM     22  C   UNL     1      34.262 -19.829 -20.745  0.00  0.00    +0.048 C 
ATOM     23  C   UNL     1      35.638 -19.627 -20.641  0.00  0.00    +0.054 C 
BRANCH  23  24
ATOM     24  N   UNL     1      36.286 -18.584 -21.342  0.00  0.00    -0.331 N 
ATOM     25  C   UNL     1      36.397 -18.561 -22.766  0.00  0.00    +0.109 C 
ATOM     26  H   UNL     1      36.678 -17.843 -20.826  0.00  0.00    +0.147 HD
ENDBRANCH  23  24
BRANCH  19  27
ATOM     27  O   UNL     1      36.568 -22.313 -18.346  0.00  0.00    -0.471 OA
ATOM     28  C   UNL     1      36.984 -21.790 -17.086  0.00  0.00    +0.252 C 
ENDBRANCH  19  27
ENDBRANCH   3  18
TORSDOF 5
ENDMDL
MODEL 7
REMARK VINA RESULT:      -8.0      7.144     11.582
REMARK  Name = 10993014
REMARK  5 active torsions:
REMARK  status: ('A' for Active; 'I' for Inactive)
REMARK    1  A    between atoms: N_2  and  C_7
REMARK    2  A    between atoms: C_3  and  C_18
REMARK    3  A    between atoms: N_5  and  C_15
REMARK    4  A    between atoms: C_19  and  O_27
REMARK    5  A    between atoms: C_23  and  N_24
REMARK                            x       y       z     vdW  Elec       q    Type
REMARK                         _______ _______ _______ _____ _____    ______ ____
ROOT
ATOM      1  O   UNL     1      32.265 -20.959 -20.916  0.00  0.00    -0.270 OA
ATOM      2  N   UNL     1      34.090 -19.657 -20.325  0.00  0.00    -0.307 N 
ATOM      3  C   UNL     1      33.220 -20.723 -20.180  0.00  0.00    +0.249 C 
ATOM      4  H   UNL     1      34.827 -19.555 -19.681  0.00  0.00    +0.150 HD
ENDROOT
BRANCH   2   7
ATOM      5  N   UNL     1      34.203 -16.280 -21.859  0.00  0.00    +0.387 N 
ATOM      6  N   UNL     1      34.421 -18.401 -23.869  0.00  0.00    +0.385 N 
ATOM      7  C   UNL     1      33.952 -18.686 -21.392  0.00  0.00    +0.031 C 
ATOM      8  C   UNL     1      34.611 -17.367 -20.966  0.00  0.00    -0.060 C 
ATOM      9  C   UNL     1      34.472 -19.297 -22.700  0.00  0.00    -0.060 C 
ATOM     10  C   UNL     1      35.083 -16.119 -23.021  0.00  0.00    -0.101 C 
ATOM     11  C   UNL     1      35.481 -17.385 -23.791  0.00  0.00    -0.101 C 
ATOM     12  C   UNL     1      34.593 -19.198 -25.091  0.00  0.00    -0.101 C 
ATOM     13  H   UNL     1      33.285 -16.548 -22.213  0.00  0.00    -0.080 HD
ATOM     14  H   UNL     1      33.518 -17.926 -23.884  0.00  0.00    -0.080 HD
BRANCH   5  15
ATOM     15  C   UNL     1      34.099 -15.011 -21.135  0.00  0.00    -0.077 C 
ATOM     16  C   UNL     1      32.805 -14.936 -20.343  0.00  0.00    -0.025 C 
ENDBRANCH   5  15
ENDBRANCH   2   7
BRANCH   3  18
ATOM     17 BR   UNL     1      31.148 -23.320 -16.068  0.00  0.00    -0.048 Br
ATOM     18  C   UNL     1      33.481 -21.615 -19.021  0.00  0.00    +0.088 C 
ATOM     19  C   UNL     1      34.766 -22.047 -18.764  0.00  0.00    +0.144 C 
ATOM     20  C   UNL     1      32.410 -21.985 -18.232  0.00  0.00    +0.015 C 
ATOM     21  C   UNL     1      34.991 -22.883 -17.670  0.00  0.00    +0.052 C 
ATOM     22  C   UNL     1      32.634 -22.823 -17.139  0.00  0.00    +0.048 C 
ATOM     23  C   UNL     1      33.925 -23.272 -16.859  0.00  0.00    +0.054 C 
BRANCH  23  24
ATOM     24  N   UNL     1      34.188 -24.120 -15.759  0.00  0.00    -0.331 N 
ATOM     25  C   UNL     1      34.772 -23.651 -14.542  0.00  0.00    +0.109 C 
ATOM     26  H   UNL     1      33.959 -25.074 -15.835  0.00  0.00    +0.147 HD
ENDBRANCH  23  24
BRANCH  19  27
ATOM     27  O   UNL     1      35.820 -21.679 -19.545  0.00  0.00    -0.471 OA
ATOM     28  C   UNL     1      36.943 -21.099 -18.887  0.00  0.00    +0.252 C 
ENDBRANCH  19  27
ENDBRANCH   3  18
TORSDOF 5
ENDMDL
MODEL 8
REMARK VINA RESULT:      -8.0      9.632     13.702
REMARK  Name = 10993014
REMARK  5 active torsions:
REMARK  status: ('A' for Active; 'I' for Inactive)
REMARK    1  A    between atoms: N_2  and  C_7
REMARK    2  A    between atoms: C_3  and  C_18
REMARK    3  A    between atoms: N_5  and  C_15
REMARK    4  A    between atoms: C_19  and  O_27
REMARK    5  A    between atoms: C_23  and  N_24
REMARK                            x       y       z     vdW  Elec       q    Type
REMARK                         _______ _______ _______ _____ _____    ______ ____
ROOT
ATOM      1  O   UNL     1      33.590 -23.951 -18.306  0.00  0.00    -0.270 OA
ATOM      2  N   UNL     1      34.882 -22.891 -16.699  0.00  0.00    -0.307 N 
ATOM      3  C   UNL     1      34.291 -23.010 -17.945  0.00  0.00    +0.249 C 
ATOM      4  H   UNL     1      35.427 -22.095 -16.506  0.00  0.00    +0.150 HD
ENDROOT
BRANCH   2   7
ATOM      5  N   UNL     1      36.006 -25.141 -13.970  0.00  0.00    +0.387 N 
ATOM      6  N   UNL     1      33.129 -24.603 -13.827  0.00  0.00    +0.385 N 
ATOM      7  C   UNL     1      34.725 -23.900 -15.670  0.00  0.00    +0.031 C 
ATOM      8  C   UNL     1      35.983 -23.928 -14.792  0.00  0.00    -0.060 C 
ATOM      9  C   UNL     1      33.402 -23.662 -14.928  0.00  0.00    -0.060 C 
ATOM     10  C   UNL     1      35.342 -24.979 -12.674  0.00  0.00    -0.101 C 
ATOM     11  C   UNL     1      33.969 -24.293 -12.660  0.00  0.00    -0.101 C 
ATOM     12  C   UNL     1      31.712 -24.504 -13.453  0.00  0.00    -0.101 C 
ATOM     13  H   UNL     1      35.474 -25.836 -14.495  0.00  0.00    -0.080 HD
ATOM     14  H   UNL     1      33.345 -25.550 -14.138  0.00  0.00    -0.080 HD
BRANCH   5  15
ATOM     15  C   UNL     1      37.375 -25.620 -13.770  0.00  0.00    -0.077 C 
ATOM     16  C   UNL     1      37.775 -25.545 -12.307  0.00  0.00    -0.025 C 
ENDBRANCH   5  15
ENDBRANCH   2   7
BRANCH   3  18
ATOM     17 BR   UNL     1      32.259 -19.552 -21.390  0.00  0.00    -0.048 Br
ATOM     18  C   UNL     1      34.568 -21.904 -18.897  0.00  0.00    +0.088 C 
ATOM     19  C   UNL     1      35.863 -21.465 -19.081  0.00  0.00    +0.144 C 
ATOM     20  C   UNL     1      33.501 -21.346 -19.573  0.00  0.00    +0.015 C 
ATOM     21  C   UNL     1      36.102 -20.426 -19.980  0.00  0.00    +0.052 C 
ATOM     22  C   UNL     1      33.739 -20.306 -20.471  0.00  0.00    +0.048 C 
ATOM     23  C   UNL     1      35.040 -19.845 -20.675  0.00  0.00    +0.054 C 
BRANCH  23  24
ATOM     24  N   UNL     1      35.318 -18.794 -21.578  0.00  0.00    -0.331 N 
ATOM     25  C   UNL     1      35.280 -17.417 -21.198  0.00  0.00    +0.109 C 
ATOM     26  H   UNL     1      35.548 -19.021 -22.508  0.00  0.00    +0.147 HD
ENDBRANCH  23  24
BRANCH  19  27
ATOM     27  O   UNL     1      36.913 -22.019 -18.412  0.00  0.00    -0.471 OA
ATOM     28  C   UNL     1      37.370 -21.338 -17.247  0.00  0.00    +0.252 C 
ENDBRANCH  19  27
ENDBRANCH   3  18
TORSDOF 5
ENDMDL
MODEL 9
REMARK VINA RESULT:      -7.9      3.175      5.140
REMARK  Name = 10993014
REMARK  5 active torsions:
REMARK  status: ('A' for Active; 'I' for Inactive)
REMARK    1  A    between atoms: N_2  and  C_7
REMARK    2  A    between atoms: C_3  and  C_18
REMARK    3  A    between atoms: N_5  and  C_15
REMARK    4  A    between atoms: C_19  and  O_27
REMARK    5  A    between atoms: C_23  and  N_24
REMARK                            x       y       z     vdW  Elec       q    Type
REMARK                         _______ _______ _______ _____ _____    ______ ____
ROOT
ATOM      1  O   UNL     1      34.200  -7.514 -22.722  0.00  0.00    -0.270 OA
ATOM      2  N   UNL     1      32.507  -8.784 -23.669  0.00  0.00    -0.307 N 
ATOM      3  C   UNL     1      33.251  -7.631 -23.493  0.00  0.00    +0.249 C 
ATOM      4  H   UNL     1      31.764  -8.776 -24.314  0.00  0.00    +0.150 HD
ENDROOT
BRANCH   2   7
ATOM      5  N   UNL     1      32.032 -11.297 -20.980  0.00  0.00    +0.387 N 
ATOM      6  N   UNL     1      33.374 -12.442 -23.320  0.00  0.00    +0.385 N 
ATOM      7  C   UNL     1      32.786 -10.004 -22.936  0.00  0.00    +0.031 C 
ATOM      8  C   UNL     1      31.636 -10.283 -21.959  0.00  0.00    -0.060 C 
ATOM      9  C   UNL     1      33.101 -11.129 -23.931  0.00  0.00    -0.060 C 
ATOM     10  C   UNL     1      31.741 -12.667 -21.409  0.00  0.00    -0.101 C 
ATOM     11  C   UNL     1      32.128 -13.060 -22.842  0.00  0.00    -0.101 C 
ATOM     12  C   UNL     1      34.004 -13.314 -24.319  0.00  0.00    -0.101 C 
ATOM     13  H   UNL     1      33.046 -11.217 -20.899  0.00  0.00    -0.080 HD
ATOM     14  H   UNL     1      33.998 -12.314 -22.523  0.00  0.00    -0.080 HD
BRANCH   5  15
ATOM     15  C   UNL     1      31.415 -11.043 -19.676  0.00  0.00    -0.077 C 
ATOM     16  C   UNL     1      31.655  -9.613 -19.224  0.00  0.00    -0.025 C 
ENDBRANCH   5  15
ENDBRANCH   2   7
BRANCH   3  18
ATOM     17 BR   UNL     1      34.433  -4.356 -27.471  0.00  0.00    -0.048 Br
ATOM     18  C   UNL     1      32.823  -6.459 -24.299  0.00  0.00    +0.088 C 
ATOM     19  C   UNL     1      31.623  -5.837 -24.024  0.00  0.00    +0.144 C 
ATOM     20  C   UNL     1      33.657  -6.029 -25.313  0.00  0.00    +0.015 C 
ATOM     21  C   UNL     1      31.240  -4.738 -24.792  0.00  0.00    +0.052 C 
ATOM     22  C   UNL     1      33.274  -4.931 -26.083  0.00  0.00    +0.048 C 
ATOM     23  C   UNL     1      32.065  -4.285 -25.822  0.00  0.00    +0.054 C 
BRANCH  23  24
ATOM     24  N   UNL     1      31.646  -3.169 -26.581  0.00  0.00    -0.331 N 
ATOM     25  C   UNL     1      30.840  -2.122 -26.037  0.00  0.00    +0.109 C 
ATOM     26  H   UNL     1      31.920  -3.112 -27.525  0.00  0.00    +0.147 HD
ENDBRANCH  23  24
BRANCH  19  27
ATOM     27  O   UNL     1      30.804  -6.265 -23.022  0.00  0.00    -0.471 OA
ATOM     28  C   UNL     1      30.559  -5.355 -21.952  0.00  0.00    +0.252 C 
ENDBRANCH  19  27
ENDBRANCH   3  18
TORSDOF 5
ENDMDL
