MODEL 1
REMARK VINA RESULT:     -10.6      0.000      0.000
REMARK  Name = 5281612
REMARK  5 active torsions:
REMARK  status: ('A' for Active; 'I' for Inactive)
REMARK    1  A    between atoms: C_4  and  C_12
REMARK    2  A    between atoms: C_8  and  O_22
REMARK    3  A    between atoms: C_10  and  O_24
REMARK    4  A    between atoms: C_15  and  O_20
REMARK    5  A    between atoms: C_16  and  O_18
REMARK                            x       y       z     vdW  Elec       q    Type
REMARK                         _______ _______ _______ _____ _____    ______ ____
ROOT
ATOM      1  O   UNL     1      34.239 -17.361 -21.745  0.00  0.00    -0.453 OA
ATOM      2  O   UNL     1      34.650 -18.061 -25.737  0.00  0.00    -0.286 OA
ATOM      3  C   UNL     1      34.113 -16.526 -24.022  0.00  0.00    +0.107 C 
ATOM      4  C   UNL     1      34.617 -18.603 -22.230  0.00  0.00    +0.149 C 
ATOM      5  C   UNL     1      33.993 -16.355 -22.644  0.00  0.00    +0.154 C 
ATOM      6  C   UNL     1      34.522 -17.841 -24.541  0.00  0.00    +0.205 C 
ATOM      7  C   UNL     1      34.773 -18.890 -23.533  0.00  0.00    +0.080 C 
ATOM      8  C   UNL     1      33.849 -15.466 -24.892  0.00  0.00    +0.143 C 
ATOM      9  C   UNL     1      33.607 -15.117 -22.127  0.00  0.00    +0.074 C 
ATOM     10  C   UNL     1      33.343 -14.056 -22.991  0.00  0.00    +0.140 C 
ATOM     11  C   UNL     1      33.464 -14.230 -24.371  0.00  0.00    +0.073 C 
ENDROOT
BRANCH   4  12
ATOM     12  C   UNL     1      34.863 -19.610 -21.178  0.00  0.00    +0.038 C 
ATOM     13  C   UNL     1      33.797 -20.335 -20.638  0.00  0.00    +0.043 C 
ATOM     14  C   UNL     1      36.161 -19.840 -20.716  0.00  0.00    +0.006 C 
ATOM     15  C   UNL     1      34.029 -21.285 -19.644  0.00  0.00    +0.168 C 
ATOM     16  C   UNL     1      35.327 -21.514 -19.186  0.00  0.00    +0.172 C 
ATOM     17  C   UNL     1      36.393 -20.790 -19.722  0.00  0.00    +0.040 C 
BRANCH  16  18
ATOM     18  O   UNL     1      35.566 -22.438 -18.215  0.00  0.00    -0.468 OA
ATOM     19  C   UNL     1      36.498 -22.083 -17.195  0.00  0.00    +0.253 C 
ENDBRANCH  16  18
BRANCH  15  20
ATOM     20  O   UNL     1      32.980 -21.985 -19.127  0.00  0.00    -0.503 OA
ATOM     21  H   UNL     1      32.102 -21.733 -19.335  0.00  0.00    +0.292 HD
ENDBRANCH  15  20
ENDBRANCH   4  12
BRANCH   8  22
ATOM     22  O   UNL     1      33.953 -15.583 -26.245  0.00  0.00    -0.505 OA
ATOM     23  H   UNL     1      34.749 -15.895 -26.628  0.00  0.00    +0.292 HD
ENDBRANCH   8  22
BRANCH  10  24
ATOM     24  O   UNL     1      32.969 -12.847 -22.489  0.00  0.00    -0.505 OA
ATOM     25  H   UNL     1      32.972 -12.089 -23.040  0.00  0.00    +0.292 HD
ENDBRANCH  10  24
TORSDOF 5
ENDMDL
MODEL 2
REMARK VINA RESULT:     -10.2      0.856      1.570
REMARK  Name = 5281612
REMARK  5 active torsions:
REMARK  status: ('A' for Active; 'I' for Inactive)
REMARK    1  A    between atoms: C_4  and  C_12
REMARK    2  A    between atoms: C_8  and  O_22
REMARK    3  A    between atoms: C_10  and  O_24
REMARK    4  A    between atoms: C_15  and  O_20
REMARK    5  A    between atoms: C_16  and  O_18
REMARK                            x       y       z     vdW  Elec       q    Type
REMARK                         _______ _______ _______ _____ _____    ______ ____
ROOT
ATOM      1  O   UNL     1      33.984 -17.534 -21.619  0.00  0.00    -0.453 OA
ATOM      2  O   UNL     1      34.747 -18.191 -25.566  0.00  0.00    -0.286 OA
ATOM      3  C   UNL     1      34.119 -16.659 -23.880  0.00  0.00    +0.107 C 
ATOM      4  C   UNL     1      34.349 -18.786 -22.091  0.00  0.00    +0.149 C 
ATOM      5  C   UNL     1      33.873 -16.504 -22.517  0.00  0.00    +0.154 C 
ATOM      6  C   UNL     1      34.513 -17.984 -24.384  0.00  0.00    +0.205 C 
ATOM      7  C   UNL     1      34.616 -19.060 -23.378  0.00  0.00    +0.080 C 
ATOM      8  C   UNL     1      33.990 -15.574 -24.750  0.00  0.00    +0.143 C 
ATOM      9  C   UNL     1      33.498 -15.257 -22.014  0.00  0.00    +0.074 C 
ATOM     10  C   UNL     1      33.369 -14.171 -22.878  0.00  0.00    +0.140 C 
ATOM     11  C   UNL     1      33.615 -14.329 -24.243  0.00  0.00    +0.073 C 
ENDROOT
BRANCH   4  12
ATOM     12  C   UNL     1      34.444 -19.820 -21.040  0.00  0.00    +0.038 C 
ATOM     13  C   UNL     1      35.694 -20.234 -20.575  0.00  0.00    +0.043 C 
ATOM     14  C   UNL     1      33.284 -20.389 -20.508  0.00  0.00    +0.006 C 
ATOM     15  C   UNL     1      35.784 -21.211 -19.584  0.00  0.00    +0.168 C 
ATOM     16  C   UNL     1      34.625 -21.776 -19.054  0.00  0.00    +0.172 C 
ATOM     17  C   UNL     1      33.374 -21.365 -19.517  0.00  0.00    +0.040 C 
BRANCH  16  18
ATOM     18  O   UNL     1      34.699 -22.731 -18.085  0.00  0.00    -0.468 OA
ATOM     19  C   UNL     1      33.468 -23.207 -17.547  0.00  0.00    +0.253 C 
ENDBRANCH  16  18
BRANCH  15  20
ATOM     20  O   UNL     1      37.011 -21.605 -19.140  0.00  0.00    -0.503 OA
ATOM     21  H   UNL     1      37.094 -22.383 -18.625  0.00  0.00    +0.292 HD
ENDBRANCH  15  20
ENDBRANCH   4  12
BRANCH   8  22
ATOM     22  O   UNL     1      34.219 -15.674 -26.089  0.00  0.00    -0.505 OA
ATOM     23  H   UNL     1      33.832 -16.373 -26.578  0.00  0.00    +0.292 HD
ENDBRANCH   8  22
BRANCH  10  24
ATOM     24  O   UNL     1      33.005 -12.954 -22.390  0.00  0.00    -0.505 OA
ATOM     25  H   UNL     1      33.631 -12.421 -21.942  0.00  0.00    +0.292 HD
ENDBRANCH  10  24
TORSDOF 5
ENDMDL
MODEL 3
REMARK VINA RESULT:      -9.9      3.949     10.770
REMARK  Name = 5281612
REMARK  5 active torsions:
REMARK  status: ('A' for Active; 'I' for Inactive)
REMARK    1  A    between atoms: C_4  and  C_12
REMARK    2  A    between atoms: C_8  and  O_22
REMARK    3  A    between atoms: C_10  and  O_24
REMARK    4  A    between atoms: C_15  and  O_20
REMARK    5  A    between atoms: C_16  and  O_18
REMARK                            x       y       z     vdW  Elec       q    Type
REMARK                         _______ _______ _______ _____ _____    ______ ____
ROOT
ATOM      1  O   UNL     1      36.802 -23.705 -15.999  0.00  0.00    -0.453 OA
ATOM      2  O   UNL     1      33.948 -23.964 -13.104  0.00  0.00    -0.286 OA
ATOM      3  C   UNL     1      36.138 -24.508 -13.805  0.00  0.00    +0.107 C 
ATOM      4  C   UNL     1      35.550 -23.132 -16.159  0.00  0.00    +0.149 C 
ATOM      5  C   UNL     1      37.068 -24.380 -14.835  0.00  0.00    +0.154 C 
ATOM      6  C   UNL     1      34.811 -23.894 -13.967  0.00  0.00    +0.205 C 
ATOM      7  C   UNL     1      34.573 -23.181 -15.238  0.00  0.00    +0.080 C 
ATOM      8  C   UNL     1      36.463 -25.207 -12.641  0.00  0.00    +0.143 C 
ATOM      9  C   UNL     1      38.334 -24.953 -14.706  0.00  0.00    +0.074 C 
ATOM     10  C   UNL     1      38.664 -25.651 -13.545  0.00  0.00    +0.140 C 
ATOM     11  C   UNL     1      37.731 -25.778 -12.515  0.00  0.00    +0.073 C 
ENDROOT
BRANCH   4  12
ATOM     12  C   UNL     1      35.372 -22.426 -17.444  0.00  0.00    +0.038 C 
ATOM     13  C   UNL     1      34.140 -22.467 -18.102  0.00  0.00    +0.043 C 
ATOM     14  C   UNL     1      36.434 -21.715 -18.008  0.00  0.00    +0.006 C 
ATOM     15  C   UNL     1      33.973 -21.800 -19.315  0.00  0.00    +0.168 C 
ATOM     16  C   UNL     1      35.035 -21.091 -19.875  0.00  0.00    +0.172 C 
ATOM     17  C   UNL     1      36.267 -21.049 -19.221  0.00  0.00    +0.040 C 
BRANCH  16  18
ATOM     18  O   UNL     1      34.884 -20.436 -21.060  0.00  0.00    -0.468 OA
ATOM     19  C   UNL     1      35.503 -19.157 -21.178  0.00  0.00    +0.253 C 
ENDBRANCH  16  18
BRANCH  15  20
ATOM     20  O   UNL     1      32.766 -21.849 -19.946  0.00  0.00    -0.503 OA
ATOM     21  H   UNL     1      32.632 -22.446 -20.656  0.00  0.00    +0.292 HD
ENDBRANCH  15  20
ENDBRANCH   4  12
BRANCH   8  22
ATOM     22  O   UNL     1      35.590 -25.359 -11.607  0.00  0.00    -0.505 OA
ATOM     23  H   UNL     1      35.576 -26.159 -11.121  0.00  0.00    +0.292 HD
ENDBRANCH   8  22
BRANCH  10  24
ATOM     24  O   UNL     1      39.899 -26.210 -13.415  0.00  0.00    -0.505 OA
ATOM     25  H   UNL     1      40.583 -25.978 -14.011  0.00  0.00    +0.292 HD
ENDBRANCH  10  24
TORSDOF 5
ENDMDL
MODEL 4
REMARK VINA RESULT:      -9.9      1.448      7.382
REMARK  Name = 5281612
REMARK  5 active torsions:
REMARK  status: ('A' for Active; 'I' for Inactive)
REMARK    1  A    between atoms: C_4  and  C_12
REMARK    2  A    between atoms: C_8  and  O_22
REMARK    3  A    between atoms: C_10  and  O_24
REMARK    4  A    between atoms: C_15  and  O_20
REMARK    5  A    between atoms: C_16  and  O_18
REMARK                            x       y       z     vdW  Elec       q    Type
REMARK                         _______ _______ _______ _____ _____    ______ ____
ROOT
ATOM      1  O   UNL     1      33.924 -18.411 -21.602  0.00  0.00    -0.453 OA
ATOM      2  O   UNL     1      37.844 -19.389 -21.080  0.00  0.00    -0.286 OA
ATOM      3  C   UNL     1      35.581 -19.899 -20.633  0.00  0.00    +0.107 C 
ATOM      4  C   UNL     1      34.943 -17.653 -22.159  0.00  0.00    +0.149 C 
ATOM      5  C   UNL     1      34.261 -19.509 -20.852  0.00  0.00    +0.154 C 
ATOM      6  C   UNL     1      36.665 -19.103 -21.229  0.00  0.00    +0.205 C 
ATOM      7  C   UNL     1      36.250 -17.930 -22.025  0.00  0.00    +0.080 C 
ATOM      8  C   UNL     1      35.866 -21.027 -19.861  0.00  0.00    +0.143 C 
ATOM      9  C   UNL     1      33.215 -20.248 -20.299  0.00  0.00    +0.074 C 
ATOM     10  C   UNL     1      33.494 -21.375 -19.527  0.00  0.00    +0.140 C 
ATOM     11  C   UNL     1      34.817 -21.764 -19.308  0.00  0.00    +0.073 C 
ENDROOT
BRANCH   4  12
ATOM     12  C   UNL     1      34.470 -16.499 -22.950  0.00  0.00    +0.038 C 
ATOM     13  C   UNL     1      34.257 -16.631 -24.324  0.00  0.00    +0.043 C 
ATOM     14  C   UNL     1      34.235 -15.270 -22.328  0.00  0.00    +0.006 C 
ATOM     15  C   UNL     1      33.811 -15.541 -25.071  0.00  0.00    +0.168 C 
ATOM     16  C   UNL     1      33.576 -14.316 -24.447  0.00  0.00    +0.172 C 
ATOM     17  C   UNL     1      33.788 -14.181 -23.075  0.00  0.00    +0.040 C 
BRANCH  16  18
ATOM     18  O   UNL     1      33.141 -13.244 -25.166  0.00  0.00    -0.468 OA
ATOM     19  C   UNL     1      33.855 -12.021 -25.005  0.00  0.00    +0.253 C 
ENDBRANCH  16  18
BRANCH  15  20
ATOM     20  O   UNL     1      33.608 -15.685 -26.411  0.00  0.00    -0.503 OA
ATOM     21  H   UNL     1      34.331 -15.876 -26.976  0.00  0.00    +0.292 HD
ENDBRANCH  15  20
ENDBRANCH   4  12
BRANCH   8  22
ATOM     22  O   UNL     1      37.138 -21.449 -19.618  0.00  0.00    -0.505 OA
ATOM     23  H   UNL     1      37.811 -20.824 -19.435  0.00  0.00    +0.292 HD
ENDBRANCH   8  22
BRANCH  10  24
ATOM     24  O   UNL     1      32.475 -22.098 -18.987  0.00  0.00    -0.505 OA
ATOM     25  H   UNL     1      32.315 -22.067 -18.064  0.00  0.00    +0.292 HD
ENDBRANCH  10  24
TORSDOF 5
ENDMDL
MODEL 5
REMARK VINA RESULT:      -9.9      3.011      7.956
REMARK  Name = 5281612
REMARK  5 active torsions:
REMARK  status: ('A' for Active; 'I' for Inactive)
REMARK    1  A    between atoms: C_4  and  C_12
REMARK    2  A    between atoms: C_8  and  O_22
REMARK    3  A    between atoms: C_10  and  O_24
REMARK    4  A    between atoms: C_15  and  O_20
REMARK    5  A    between atoms: C_16  and  O_18
REMARK                            x       y       z     vdW  Elec       q    Type
REMARK                         _______ _______ _______ _____ _____    ______ ____
ROOT
ATOM      1  O   UNL     1      33.947 -14.454 -22.635  0.00  0.00    -0.453 OA
ATOM      2  O   UNL     1      33.450 -15.809 -26.444  0.00  0.00    -0.286 OA
ATOM      3  C   UNL     1      34.260 -16.228 -24.264  0.00  0.00    +0.107 C 
ATOM      4  C   UNL     1      33.337 -13.678 -23.609  0.00  0.00    +0.149 C 
ATOM      5  C   UNL     1      34.396 -15.703 -22.980  0.00  0.00    +0.154 C 
ATOM      6  C   UNL     1      33.606 -15.411 -25.299  0.00  0.00    +0.205 C 
ATOM      7  C   UNL     1      33.143 -14.074 -24.878  0.00  0.00    +0.080 C 
ATOM      8  C   UNL     1      34.736 -17.506 -24.559  0.00  0.00    +0.143 C 
ATOM      9  C   UNL     1      35.012 -16.458 -21.981  0.00  0.00    +0.074 C 
ATOM     10  C   UNL     1      35.489 -17.735 -22.270  0.00  0.00    +0.140 C 
ATOM     11  C   UNL     1      35.352 -18.259 -23.557  0.00  0.00    +0.073 C 
ENDROOT
BRANCH   4  12
ATOM     12  C   UNL     1      32.887 -12.356 -23.130  0.00  0.00    +0.038 C 
ATOM     13  C   UNL     1      31.980 -12.265 -22.071  0.00  0.00    +0.043 C 
ATOM     14  C   UNL     1      33.364 -11.190 -23.733  0.00  0.00    +0.006 C 
ATOM     15  C   UNL     1      31.554 -11.017 -21.618  0.00  0.00    +0.168 C 
ATOM     16  C   UNL     1      32.033  -9.855 -22.222  0.00  0.00    +0.172 C 
ATOM     17  C   UNL     1      32.938  -9.942 -23.281  0.00  0.00    +0.040 C 
BRANCH  16  18
ATOM     18  O   UNL     1      31.625  -8.630 -21.790  0.00  0.00    -0.468 OA
ATOM     19  C   UNL     1      32.504  -7.923 -20.917  0.00  0.00    +0.253 C 
ENDBRANCH  16  18
BRANCH  15  20
ATOM     20  O   UNL     1      30.669 -10.945 -20.585  0.00  0.00    -0.503 OA
ATOM     21  H   UNL     1      29.748 -10.967 -20.755  0.00  0.00    +0.292 HD
ENDBRANCH  15  20
ENDBRANCH   4  12
BRANCH   8  22
ATOM     22  O   UNL     1      34.627 -18.064 -25.798  0.00  0.00    -0.505 OA
ATOM     23  H   UNL     1      33.780 -18.249 -26.153  0.00  0.00    +0.292 HD
ENDBRANCH   8  22
BRANCH  10  24
ATOM     24  O   UNL     1      36.089 -18.474 -21.297  0.00  0.00    -0.505 OA
ATOM     25  H   UNL     1      35.783 -18.421 -20.413  0.00  0.00    +0.292 HD
ENDBRANCH  10  24
TORSDOF 5
ENDMDL
MODEL 6
REMARK VINA RESULT:      -9.8      3.040      8.248
REMARK  Name = 5281612
REMARK  5 active torsions:
REMARK  status: ('A' for Active; 'I' for Inactive)
REMARK    1  A    between atoms: C_4  and  C_12
REMARK    2  A    between atoms: C_8  and  O_22
REMARK    3  A    between atoms: C_10  and  O_24
REMARK    4  A    between atoms: C_15  and  O_20
REMARK    5  A    between atoms: C_16  and  O_18
REMARK                            x       y       z     vdW  Elec       q    Type
REMARK                         _______ _______ _______ _____ _____    ______ ____
ROOT
ATOM      1  O   UNL     1      33.920 -14.349 -22.674  0.00  0.00    -0.453 OA
ATOM      2  O   UNL     1      33.446 -15.731 -26.477  0.00  0.00    -0.286 OA
ATOM      3  C   UNL     1      34.228 -16.140 -24.285  0.00  0.00    +0.107 C 
ATOM      4  C   UNL     1      33.329 -13.575 -23.661  0.00  0.00    +0.149 C 
ATOM      5  C   UNL     1      34.358 -15.606 -23.004  0.00  0.00    +0.154 C 
ATOM      6  C   UNL     1      33.595 -15.325 -25.333  0.00  0.00    +0.205 C 
ATOM      7  C   UNL     1      33.143 -13.979 -24.928  0.00  0.00    +0.080 C 
ATOM      8  C   UNL     1      34.693 -17.427 -24.565  0.00  0.00    +0.143 C 
ATOM      9  C   UNL     1      34.955 -16.360 -21.992  0.00  0.00    +0.074 C 
ATOM     10  C   UNL     1      35.420 -17.645 -22.267  0.00  0.00    +0.140 C 
ATOM     11  C   UNL     1      35.289 -18.178 -23.550  0.00  0.00    +0.073 C 
ENDROOT
BRANCH   4  12
ATOM     12  C   UNL     1      32.889 -12.244 -23.197  0.00  0.00    +0.038 C 
ATOM     13  C   UNL     1      33.430 -11.088 -23.766  0.00  0.00    +0.043 C 
ATOM     14  C   UNL     1      31.932 -12.133 -22.185  0.00  0.00    +0.006 C 
ATOM     15  C   UNL     1      33.015  -9.831 -23.328  0.00  0.00    +0.168 C 
ATOM     16  C   UNL     1      32.058  -9.724 -22.319  0.00  0.00    +0.172 C 
ATOM     17  C   UNL     1      31.517 -10.877 -21.747  0.00  0.00    +0.040 C 
BRANCH  16  18
ATOM     18  O   UNL     1      31.645  -8.503 -21.881  0.00  0.00    -0.468 OA
ATOM     19  C   UNL     1      32.279  -7.982 -20.715  0.00  0.00    +0.253 C 
ENDBRANCH  16  18
BRANCH  15  20
ATOM     20  O   UNL     1      33.551  -8.713 -23.893  0.00  0.00    -0.503 OA
ATOM     21  H   UNL     1      33.738  -8.696 -24.811  0.00  0.00    +0.292 HD
ENDBRANCH  15  20
ENDBRANCH   4  12
BRANCH   8  22
ATOM     22  O   UNL     1      34.589 -17.993 -25.800  0.00  0.00    -0.505 OA
ATOM     23  H   UNL     1      33.862 -18.548 -26.000  0.00  0.00    +0.292 HD
ENDBRANCH   8  22
BRANCH  10  24
ATOM     24  O   UNL     1      36.001 -18.383 -21.282  0.00  0.00    -0.505 OA
ATOM     25  H   UNL     1      35.832 -19.302 -21.222  0.00  0.00    +0.292 HD
ENDBRANCH  10  24
TORSDOF 5
ENDMDL
MODEL 7
REMARK VINA RESULT:      -9.7      1.298      2.808
REMARK  Name = 5281612
REMARK  5 active torsions:
REMARK  status: ('A' for Active; 'I' for Inactive)
REMARK    1  A    between atoms: C_4  and  C_12
REMARK    2  A    between atoms: C_8  and  O_22
REMARK    3  A    between atoms: C_10  and  O_24
REMARK    4  A    between atoms: C_15  and  O_20
REMARK    5  A    between atoms: C_16  and  O_18
REMARK                            x       y       z     vdW  Elec       q    Type
REMARK                         _______ _______ _______ _____ _____    ______ ____
ROOT
ATOM      1  O   UNL     1      34.263 -17.047 -23.190  0.00  0.00    -0.453 OA
ATOM      2  O   UNL     1      33.094 -13.798 -21.029  0.00  0.00    -0.286 OA
ATOM      3  C   UNL     1      33.470 -14.752 -23.157  0.00  0.00    +0.107 C 
ATOM      4  C   UNL     1      34.249 -17.063 -21.803  0.00  0.00    +0.149 C 
ATOM      5  C   UNL     1      33.879 -15.899 -23.835  0.00  0.00    +0.154 C 
ATOM      6  C   UNL     1      33.446 -14.767 -21.687  0.00  0.00    +0.205 C 
ATOM      7  C   UNL     1      33.870 -16.025 -21.040  0.00  0.00    +0.080 C 
ATOM      8  C   UNL     1      33.089 -13.611 -23.866  0.00  0.00    +0.143 C 
ATOM      9  C   UNL     1      33.911 -15.911 -25.230  0.00  0.00    +0.074 C 
ATOM     10  C   UNL     1      33.531 -14.774 -25.942  0.00  0.00    +0.140 C 
ATOM     11  C   UNL     1      33.122 -13.626 -25.262  0.00  0.00    +0.073 C 
ENDROOT
BRANCH   4  12
ATOM     12  C   UNL     1      34.674 -18.348 -21.213  0.00  0.00    +0.038 C 
ATOM     13  C   UNL     1      33.720 -19.295 -20.831  0.00  0.00    +0.043 C 
ATOM     14  C   UNL     1      36.032 -18.622 -21.031  0.00  0.00    +0.006 C 
ATOM     15  C   UNL     1      34.121 -20.508 -20.273  0.00  0.00    +0.168 C 
ATOM     16  C   UNL     1      35.478 -20.779 -20.094  0.00  0.00    +0.172 C 
ATOM     17  C   UNL     1      36.433 -19.835 -20.472  0.00  0.00    +0.040 C 
BRANCH  16  18
ATOM     18  O   UNL     1      35.882 -21.960 -19.549  0.00  0.00    -0.468 OA
ATOM     19  C   UNL     1      36.309 -21.935 -18.188  0.00  0.00    +0.253 C 
ENDBRANCH  16  18
BRANCH  15  20
ATOM     20  O   UNL     1      33.179 -21.421 -19.906  0.00  0.00    -0.503 OA
ATOM     21  H   UNL     1      32.298 -21.146 -19.746  0.00  0.00    +0.292 HD
ENDBRANCH  15  20
ENDBRANCH   4  12
BRANCH   8  22
ATOM     22  O   UNL     1      32.681 -12.466 -23.251  0.00  0.00    -0.505 OA
ATOM     23  H   UNL     1      33.123 -12.166 -22.482  0.00  0.00    +0.292 HD
ENDBRANCH   8  22
BRANCH  10  24
ATOM     24  O   UNL     1      33.559 -14.783 -27.302  0.00  0.00    -0.505 OA
ATOM     25  H   UNL     1      32.785 -14.580 -27.789  0.00  0.00    +0.292 HD
ENDBRANCH  10  24
TORSDOF 5
ENDMDL
MODEL 8
REMARK VINA RESULT:      -9.5      1.595      7.346
REMARK  Name = 5281612
REMARK  5 active torsions:
REMARK  status: ('A' for Active; 'I' for Inactive)
REMARK    1  A    between atoms: C_4  and  C_12
REMARK    2  A    between atoms: C_8  and  O_22
REMARK    3  A    between atoms: C_10  and  O_24
REMARK    4  A    between atoms: C_15  and  O_20
REMARK    5  A    between atoms: C_16  and  O_18
REMARK                            x       y       z     vdW  Elec       q    Type
REMARK                         _______ _______ _______ _____ _____    ______ ____
ROOT
ATOM      1  O   UNL     1      33.810 -18.625 -21.311  0.00  0.00    -0.453 OA
ATOM      2  O   UNL     1      37.766 -19.503 -20.893  0.00  0.00    -0.286 OA
ATOM      3  C   UNL     1      35.527 -20.097 -20.427  0.00  0.00    +0.107 C 
ATOM      4  C   UNL     1      34.795 -17.817 -21.857  0.00  0.00    +0.149 C 
ATOM      5  C   UNL     1      34.192 -19.739 -20.609  0.00  0.00    +0.154 C 
ATOM      6  C   UNL     1      36.576 -19.247 -21.011  0.00  0.00    +0.205 C 
ATOM      7  C   UNL     1      36.113 -18.059 -21.755  0.00  0.00    +0.080 C 
ATOM      8  C   UNL     1      35.858 -21.244 -19.702  0.00  0.00    +0.143 C 
ATOM      9  C   UNL     1      33.178 -20.529 -20.065  0.00  0.00    +0.074 C 
ATOM     10  C   UNL     1      33.504 -21.675 -19.341  0.00  0.00    +0.140 C 
ATOM     11  C   UNL     1      34.841 -22.032 -19.159  0.00  0.00    +0.073 C 
ENDROOT
BRANCH   4  12
ATOM     12  C   UNL     1      34.275 -16.650 -22.596  0.00  0.00    +0.038 C 
ATOM     13  C   UNL     1      33.549 -15.661 -21.926  0.00  0.00    +0.043 C 
ATOM     14  C   UNL     1      34.503 -16.528 -23.969  0.00  0.00    +0.006 C 
ATOM     15  C   UNL     1      33.057 -14.559 -22.624  0.00  0.00    +0.168 C 
ATOM     16  C   UNL     1      33.288 -14.441 -23.995  0.00  0.00    +0.172 C 
ATOM     17  C   UNL     1      34.011 -15.427 -24.667  0.00  0.00    +0.040 C 
BRANCH  16  18
ATOM     18  O   UNL     1      32.812 -13.370 -24.688  0.00  0.00    -0.468 OA
ATOM     19  C   UNL     1      33.715 -12.290 -24.915  0.00  0.00    +0.253 C 
ENDBRANCH  16  18
BRANCH  15  20
ATOM     20  O   UNL     1      32.351 -13.603 -21.957  0.00  0.00    -0.503 OA
ATOM     21  H   UNL     1      31.898 -13.822 -21.167  0.00  0.00    +0.292 HD
ENDBRANCH  15  20
ENDBRANCH   4  12
BRANCH   8  22
ATOM     22  O   UNL     1      37.146 -21.636 -19.497  0.00  0.00    -0.505 OA
ATOM     23  H   UNL     1      37.757 -21.623 -20.206  0.00  0.00    +0.292 HD
ENDBRANCH   8  22
BRANCH  10  24
ATOM     24  O   UNL     1      32.517 -22.448 -18.811  0.00  0.00    -0.505 OA
ATOM     25  H   UNL     1      32.447 -22.547 -17.882  0.00  0.00    +0.292 HD
ENDBRANCH  10  24
TORSDOF 5
ENDMDL
MODEL 9
REMARK VINA RESULT:      -9.4      4.259      7.614
REMARK  Name = 5281612
REMARK  5 active torsions:
REMARK  status: ('A' for Active; 'I' for Inactive)
REMARK    1  A    between atoms: C_4  and  C_12
REMARK    2  A    between atoms: C_8  and  O_22
REMARK    3  A    between atoms: C_10  and  O_24
REMARK    4  A    between atoms: C_15  and  O_20
REMARK    5  A    between atoms: C_16  and  O_18
REMARK                            x       y       z     vdW  Elec       q    Type
REMARK                         _______ _______ _______ _____ _____    ______ ____
ROOT
ATOM      1  O   UNL     1      33.921 -11.322 -24.054  0.00  0.00    -0.453 OA
ATOM      2  O   UNL     1      31.111 -10.607 -21.193  0.00  0.00    -0.286 OA
ATOM      3  C   UNL     1      32.738  -9.723 -22.660  0.00  0.00    +0.107 C 
ATOM      4  C   UNL     1      33.193 -12.351 -23.477  0.00  0.00    +0.149 C 
ATOM      5  C   UNL     1      33.684 -10.038 -23.635  0.00  0.00    +0.154 C 
ATOM      6  C   UNL     1      31.958 -10.811 -22.051  0.00  0.00    +0.205 C 
ATOM      7  C   UNL     1      32.253 -12.175 -22.534  0.00  0.00    +0.080 C 
ATOM      8  C   UNL     1      32.539  -8.397 -22.272  0.00  0.00    +0.143 C 
ATOM      9  C   UNL     1      34.437  -9.024 -24.229  0.00  0.00    +0.074 C 
ATOM     10  C   UNL     1      34.240  -7.698 -23.845  0.00  0.00    +0.140 C 
ATOM     11  C   UNL     1      33.293  -7.385 -22.868  0.00  0.00    +0.073 C 
ENDROOT
BRANCH   4  12
ATOM     12  C   UNL     1      33.523 -13.690 -24.005  0.00  0.00    +0.038 C 
ATOM     13  C   UNL     1      33.033 -14.094 -25.249  0.00  0.00    +0.043 C 
ATOM     14  C   UNL     1      34.326 -14.559 -23.262  0.00  0.00    +0.006 C 
ATOM     15  C   UNL     1      33.344 -15.359 -25.747  0.00  0.00    +0.168 C 
ATOM     16  C   UNL     1      34.147 -16.224 -25.003  0.00  0.00    +0.172 C 
ATOM     17  C   UNL     1      34.637 -15.824 -23.760  0.00  0.00    +0.040 C 
BRANCH  16  18
ATOM     18  O   UNL     1      34.457 -17.462 -25.479  0.00  0.00    -0.468 OA
ATOM     19  C   UNL     1      34.614 -18.505 -24.519  0.00  0.00    +0.253 C 
ENDBRANCH  16  18
BRANCH  15  20
ATOM     20  O   UNL     1      32.859 -15.739 -26.962  0.00  0.00    -0.503 OA
ATOM     21  H   UNL     1      32.474 -16.586 -27.068  0.00  0.00    +0.292 HD
ENDBRANCH  15  20
ENDBRANCH   4  12
BRANCH   8  22
ATOM     22  O   UNL     1      31.627  -8.038 -21.325  0.00  0.00    -0.505 OA
ATOM     23  H   UNL     1      30.763  -8.397 -21.349  0.00  0.00    +0.292 HD
ENDBRANCH   8  22
BRANCH  10  24
ATOM     24  O   UNL     1      34.972  -6.707 -24.423  0.00  0.00    -0.505 OA
ATOM     25  H   UNL     1      34.749  -6.397 -25.279  0.00  0.00    +0.292 HD
ENDBRANCH  10  24
TORSDOF 5
ENDMDL
