MODEL 1
REMARK VINA RESULT:      -5.5      0.000      0.000
REMARK  Name = 5054
REMARK  2 active torsions:
REMARK  status: ('A' for Active; 'I' for Inactive)
REMARK    1  A    between atoms: C_1  and  O_7
REMARK    2  A    between atoms: C_2  and  O_9
REMARK                            x       y       z     vdW  Elec       q    Type
REMARK                         _______ _______ _______ _____ _____    ______ ____
ROOT
ATOM      1  C   UNL     1      34.778 -21.476 -19.546  0.00  0.00    +0.137 C 
ATOM      2  C   UNL     1      35.258 -19.581 -20.965  0.00  0.00    +0.137 C 
ATOM      3  C   UNL     1      35.701 -20.653 -20.190  0.00  0.00    +0.073 C 
ATOM      4  C   UNL     1      33.411 -21.228 -19.677  0.00  0.00    +0.037 C 
ATOM      5  C   UNL     1      33.892 -19.332 -21.096  0.00  0.00    +0.037 C 
ATOM      6  C   UNL     1      32.969 -20.156 -20.452  0.00  0.00    +0.006 C 
ENDROOT
BRANCH   1   7
ATOM      7  O   UNL     1      35.209 -22.522 -18.790  0.00  0.00    -0.505 OA
ATOM      8  H   UNL     1      35.065 -22.521 -17.864  0.00  0.00    +0.292 HD
ENDBRANCH   1   7
BRANCH   2   9
ATOM      9  O   UNL     1      36.159 -18.777 -21.594  0.00  0.00    -0.505 OA
ATOM     10  H   UNL     1      36.745 -18.248 -21.090  0.00  0.00    +0.292 HD
ENDBRANCH   2   9
TORSDOF 2
ENDMDL
MODEL 2
REMARK VINA RESULT:      -5.5      0.037      2.935
REMARK  Name = 5054
REMARK  2 active torsions:
REMARK  status: ('A' for Active; 'I' for Inactive)
REMARK    1  A    between atoms: C_1  and  O_7
REMARK    2  A    between atoms: C_2  and  O_9
REMARK                            x       y       z     vdW  Elec       q    Type
REMARK                         _______ _______ _______ _____ _____    ______ ____
ROOT
ATOM      1  C   UNL     1      35.251 -19.585 -20.933  0.00  0.00    +0.137 C 
ATOM      2  C   UNL     1      34.744 -21.489 -19.535  0.00  0.00    +0.137 C 
ATOM      3  C   UNL     1      35.679 -20.664 -20.160  0.00  0.00    +0.073 C 
ATOM      4  C   UNL     1      33.888 -19.329 -21.080  0.00  0.00    +0.037 C 
ATOM      5  C   UNL     1      33.380 -21.233 -19.681  0.00  0.00    +0.037 C 
ATOM      6  C   UNL     1      32.953 -20.154 -20.454  0.00  0.00    +0.006 C 
ENDROOT
BRANCH   1   7
ATOM      7  O   UNL     1      36.163 -18.780 -21.544  0.00  0.00    -0.505 OA
ATOM      8  H   UNL     1      37.065 -19.033 -21.573  0.00  0.00    +0.292 HD
ENDBRANCH   1   7
BRANCH   2   9
ATOM      9  O   UNL     1      35.161 -22.542 -18.781  0.00  0.00    -0.505 OA
ATOM     10  H   UNL     1      34.744 -22.726 -17.962  0.00  0.00    +0.292 HD
ENDBRANCH   2   9
TORSDOF 2
ENDMDL
MODEL 3
REMARK VINA RESULT:      -5.4      1.331      3.640
REMARK  Name = 5054
REMARK  2 active torsions:
REMARK  status: ('A' for Active; 'I' for Inactive)
REMARK    1  A    between atoms: C_1  and  O_7
REMARK    2  A    between atoms: C_2  and  O_9
REMARK                            x       y       z     vdW  Elec       q    Type
REMARK                         _______ _______ _______ _____ _____    ______ ____
ROOT
ATOM      1  C   UNL     1      34.308 -19.834 -20.823  0.00  0.00    +0.137 C 
ATOM      2  C   UNL     1      33.574 -21.587 -19.331  0.00  0.00    +0.137 C 
ATOM      3  C   UNL     1      33.279 -20.519 -20.178  0.00  0.00    +0.073 C 
ATOM      4  C   UNL     1      35.634 -20.217 -20.621  0.00  0.00    +0.037 C 
ATOM      5  C   UNL     1      34.900 -21.970 -19.129  0.00  0.00    +0.037 C 
ATOM      6  C   UNL     1      35.930 -21.285 -19.774  0.00  0.00    +0.006 C 
ENDROOT
BRANCH   1   7
ATOM      7  O   UNL     1      34.019 -18.792 -21.649  0.00  0.00    -0.505 OA
ATOM      8  H   UNL     1      33.149 -18.447 -21.682  0.00  0.00    +0.292 HD
ENDBRANCH   1   7
BRANCH   2   9
ATOM      9  O   UNL     1      32.570 -22.256 -18.702  0.00  0.00    -0.505 OA
ATOM     10  H   UNL     1      31.679 -22.101 -18.947  0.00  0.00    +0.292 HD
ENDBRANCH   2   9
TORSDOF 2
ENDMDL
MODEL 4
REMARK VINA RESULT:      -5.4      1.338      2.175
REMARK  Name = 5054
REMARK  2 active torsions:
REMARK  status: ('A' for Active; 'I' for Inactive)
REMARK    1  A    between atoms: C_1  and  O_7
REMARK    2  A    between atoms: C_2  and  O_9
REMARK                            x       y       z     vdW  Elec       q    Type
REMARK                         _______ _______ _______ _____ _____    ______ ____
ROOT
ATOM      1  C   UNL     1      33.568 -21.605 -19.313  0.00  0.00    +0.137 C 
ATOM      2  C   UNL     1      34.314 -19.858 -20.805  0.00  0.00    +0.137 C 
ATOM      3  C   UNL     1      33.280 -20.535 -20.159  0.00  0.00    +0.073 C 
ATOM      4  C   UNL     1      34.891 -21.999 -19.112  0.00  0.00    +0.037 C 
ATOM      5  C   UNL     1      35.637 -20.251 -20.604  0.00  0.00    +0.037 C 
ATOM      6  C   UNL     1      35.925 -21.322 -19.758  0.00  0.00    +0.006 C 
ENDROOT
BRANCH   1   7
ATOM      7  O   UNL     1      32.558 -22.266 -18.683  0.00  0.00    -0.505 OA
ATOM      8  H   UNL     1      31.783 -22.496 -19.155  0.00  0.00    +0.292 HD
ENDBRANCH   1   7
BRANCH   2   9
ATOM      9  O   UNL     1      34.034 -18.813 -21.631  0.00  0.00    -0.505 OA
ATOM     10  H   UNL     1      33.145 -18.553 -21.771  0.00  0.00    +0.292 HD
ENDBRANCH   2   9
TORSDOF 2
ENDMDL
MODEL 5
REMARK VINA RESULT:      -5.1      3.677      4.767
REMARK  Name = 5054
REMARK  2 active torsions:
REMARK  status: ('A' for Active; 'I' for Inactive)
REMARK    1  A    between atoms: C_1  and  O_7
REMARK    2  A    between atoms: C_2  and  O_9
REMARK                            x       y       z     vdW  Elec       q    Type
REMARK                         _______ _______ _______ _____ _____    ______ ____
ROOT
ATOM      1  C   UNL     1      34.915 -17.003 -22.161  0.00  0.00    +0.137 C 
ATOM      2  C   UNL     1      34.814 -17.292 -24.557  0.00  0.00    +0.137 C 
ATOM      3  C   UNL     1      34.898 -16.456 -23.444  0.00  0.00    +0.073 C 
ATOM      4  C   UNL     1      34.847 -18.385 -21.991  0.00  0.00    +0.037 C 
ATOM      5  C   UNL     1      34.745 -18.675 -24.388  0.00  0.00    +0.037 C 
ATOM      6  C   UNL     1      34.762 -19.221 -23.105  0.00  0.00    +0.006 C 
ENDROOT
BRANCH   1   7
ATOM      7  O   UNL     1      34.998 -16.187 -21.074  0.00  0.00    -0.505 OA
ATOM      8  H   UNL     1      34.219 -15.930 -20.621  0.00  0.00    +0.292 HD
ENDBRANCH   1   7
BRANCH   2   9
ATOM      9  O   UNL     1      34.797 -16.758 -25.810  0.00  0.00    -0.505 OA
ATOM     10  H   UNL     1      35.366 -17.101 -26.471  0.00  0.00    +0.292 HD
ENDBRANCH   2   9
TORSDOF 2
ENDMDL
MODEL 6
REMARK VINA RESULT:      -5.1      3.662      5.374
REMARK  Name = 5054
REMARK  2 active torsions:
REMARK  status: ('A' for Active; 'I' for Inactive)
REMARK    1  A    between atoms: C_1  and  O_7
REMARK    2  A    between atoms: C_2  and  O_9
REMARK                            x       y       z     vdW  Elec       q    Type
REMARK                         _______ _______ _______ _____ _____    ______ ____
ROOT
ATOM      1  C   UNL     1      34.637 -17.129 -24.768  0.00  0.00    +0.137 C 
ATOM      2  C   UNL     1      34.945 -17.200 -22.373  0.00  0.00    +0.137 C 
ATOM      3  C   UNL     1      34.797 -16.468 -23.550  0.00  0.00    +0.073 C 
ATOM      4  C   UNL     1      34.625 -18.523 -24.808  0.00  0.00    +0.037 C 
ATOM      5  C   UNL     1      34.933 -18.595 -22.413  0.00  0.00    +0.037 C 
ATOM      6  C   UNL     1      34.773 -19.256 -23.630  0.00  0.00    +0.006 C 
ENDROOT
BRANCH   1   7
ATOM      7  O   UNL     1      34.492 -16.414 -25.917  0.00  0.00    -0.505 OA
ATOM      8  H   UNL     1      34.922 -15.587 -26.012  0.00  0.00    +0.292 HD
ENDBRANCH   1   7
BRANCH   2   9
ATOM      9  O   UNL     1      35.101 -16.555 -21.184  0.00  0.00    -0.505 OA
ATOM     10  H   UNL     1      34.453 -16.647 -20.513  0.00  0.00    +0.292 HD
ENDBRANCH   2   9
TORSDOF 2
ENDMDL
MODEL 7
REMARK VINA RESULT:      -5.1      1.690      2.936
REMARK  Name = 5054
REMARK  2 active torsions:
REMARK  status: ('A' for Active; 'I' for Inactive)
REMARK    1  A    between atoms: C_1  and  O_7
REMARK    2  A    between atoms: C_2  and  O_9
REMARK                            x       y       z     vdW  Elec       q    Type
REMARK                         _______ _______ _______ _____ _____    ______ ____
ROOT
ATOM      1  C   UNL     1      35.996 -20.208 -20.291  0.00  0.00    +0.137 C 
ATOM      2  C   UNL     1      33.611 -20.590 -20.319  0.00  0.00    +0.137 C 
ATOM      3  C   UNL     1      34.722 -19.860 -20.740  0.00  0.00    +0.073 C 
ATOM      4  C   UNL     1      36.159 -21.285 -19.420  0.00  0.00    +0.037 C 
ATOM      5  C   UNL     1      33.773 -21.668 -19.448  0.00  0.00    +0.037 C 
ATOM      6  C   UNL     1      35.047 -22.015 -18.999  0.00  0.00    +0.006 C 
ENDROOT
BRANCH   1   7
ATOM      7  O   UNL     1      37.081 -19.495 -20.701  0.00  0.00    -0.505 OA
ATOM      8  H   UNL     1      37.650 -19.103 -20.069  0.00  0.00    +0.292 HD
ENDBRANCH   1   7
BRANCH   2   9
ATOM      9  O   UNL     1      32.367 -20.252 -20.757  0.00  0.00    -0.505 OA
ATOM     10  H   UNL     1      32.231 -20.037 -21.659  0.00  0.00    +0.292 HD
ENDBRANCH   2   9
TORSDOF 2
ENDMDL
MODEL 8
REMARK VINA RESULT:      -5.1      1.575      2.386
REMARK  Name = 5054
REMARK  2 active torsions:
REMARK  status: ('A' for Active; 'I' for Inactive)
REMARK    1  A    between atoms: C_1  and  O_7
REMARK    2  A    between atoms: C_2  and  O_9
REMARK                            x       y       z     vdW  Elec       q    Type
REMARK                         _______ _______ _______ _____ _____    ______ ____
ROOT
ATOM      1  C   UNL     1      33.822 -20.257 -20.533  0.00  0.00    +0.137 C 
ATOM      2  C   UNL     1      35.350 -18.581 -21.365  0.00  0.00    +0.137 C 
ATOM      3  C   UNL     1      34.049 -19.059 -21.210  0.00  0.00    +0.073 C 
ATOM      4  C   UNL     1      34.896 -20.977 -20.009  0.00  0.00    +0.037 C 
ATOM      5  C   UNL     1      36.424 -19.301 -20.842  0.00  0.00    +0.037 C 
ATOM      6  C   UNL     1      36.197 -20.498 -20.164  0.00  0.00    +0.006 C 
ENDROOT
BRANCH   1   7
ATOM      7  O   UNL     1      32.552 -20.724 -20.381  0.00  0.00    -0.505 OA
ATOM      8  H   UNL     1      31.860 -20.379 -20.911  0.00  0.00    +0.292 HD
ENDBRANCH   1   7
BRANCH   2   9
ATOM      9  O   UNL     1      35.572 -17.413 -22.027  0.00  0.00    -0.505 OA
ATOM     10  H   UNL     1      35.389 -16.595 -21.607  0.00  0.00    +0.292 HD
ENDBRANCH   2   9
TORSDOF 2
ENDMDL
MODEL 9
REMARK VINA RESULT:      -5.0      7.034      8.052
REMARK  Name = 5054
REMARK  2 active torsions:
REMARK  status: ('A' for Active; 'I' for Inactive)
REMARK    1  A    between atoms: C_1  and  O_7
REMARK    2  A    between atoms: C_2  and  O_9
REMARK                            x       y       z     vdW  Elec       q    Type
REMARK                         _______ _______ _______ _____ _____    ______ ____
ROOT
ATOM      1  C   UNL     1      29.999 -23.245 -15.948  0.00  0.00    +0.137 C 
ATOM      2  C   UNL     1      31.297 -23.539 -13.931  0.00  0.00    +0.137 C 
ATOM      3  C   UNL     1      30.867 -22.732 -14.984  0.00  0.00    +0.073 C 
ATOM      4  C   UNL     1      29.561 -24.567 -15.858  0.00  0.00    +0.037 C 
ATOM      5  C   UNL     1      30.859 -24.860 -13.842  0.00  0.00    +0.037 C 
ATOM      6  C   UNL     1      29.991 -25.374 -14.805  0.00  0.00    +0.006 C 
ENDROOT
BRANCH   1   7
ATOM      7  O   UNL     1      29.579 -22.458 -16.975  0.00  0.00    -0.505 OA
ATOM      8  H   UNL     1      29.441 -22.830 -17.824  0.00  0.00    +0.292 HD
ENDBRANCH   1   7
BRANCH   2   9
ATOM      9  O   UNL     1      32.144 -23.038 -12.991  0.00  0.00    -0.505 OA
ATOM     10  H   UNL     1      32.832 -23.574 -12.648  0.00  0.00    +0.292 HD
ENDBRANCH   2   9
TORSDOF 2
ENDMDL
