MODEL 1
REMARK VINA RESULT:     -10.0      0.000      0.000
REMARK  Name = 667550
REMARK  5 active torsions:
REMARK  status: ('A' for Active; 'I' for Inactive)
REMARK    1  A    between atoms: C_1  and  C_15
REMARK    2  A    between atoms: C_3  and  C_8
REMARK    3  A    between atoms: C_8  and  C_9
REMARK    4  A    between atoms: C_15  and  C_18
REMARK    5  A    between atoms: C_18  and  O_19
REMARK                            x       y       z     vdW  Elec       q    Type
REMARK                         _______ _______ _______ _____ _____    ______ ____
ROOT
ATOM      1  C   UNL     1      34.606 -15.737 -22.730  0.00  0.00    -0.012 C 
ATOM      2  C   UNL     1      35.146 -16.686 -21.863  0.00  0.00    -0.001 C 
ATOM      3  C   UNL     1      35.500 -17.933 -22.354  0.00  0.00    +0.039 C 
ATOM      4  C   UNL     1      34.428 -16.047 -24.079  0.00  0.00    -0.004 C 
ATOM      5  C   UNL     1      35.328 -18.255 -23.691  0.00  0.00    +0.003 C 
ATOM      6  C   UNL     1      34.788 -17.306 -24.559  0.00  0.00    -0.000 C 
ENDROOT
BRANCH   3   8
ATOM      7  O   UNL     1      37.291 -18.995 -21.269  0.00  0.00    -0.287 OA
ATOM      8  C   UNL     1      36.070 -18.936 -21.439  0.00  0.00    +0.196 C 
BRANCH   8   9
ATOM      9  C   UNL     1      35.161 -19.840 -20.751  0.00  0.00    +0.039 C 
ATOM     10  C   UNL     1      33.784 -19.634 -20.826  0.00  0.00    +0.003 C 
ATOM     11  C   UNL     1      35.668 -20.912 -20.017  0.00  0.00    +0.003 C 
ATOM     12  C   UNL     1      32.913 -20.501 -20.167  0.00  0.00    +0.000 C 
ATOM     13  C   UNL     1      34.796 -21.779 -19.358  0.00  0.00    +0.000 C 
ATOM     14  C   UNL     1      33.419 -21.574 -19.432  0.00  0.00    +0.000 C 
ENDBRANCH   8   9
ENDBRANCH   3   8
BRANCH   1  15
ATOM     15  C   UNL     1      34.222 -14.390 -22.217  0.00  0.00    +0.121 C 
ATOM     16  C   UNL     1      33.391 -14.434 -20.919  0.00  0.00    +0.016 C 
BRANCH  15  18
ATOM     17  O   UNL     1      32.290 -13.695 -23.540  0.00  0.00    -0.250 OA
ATOM     18  C   UNL     1      33.474 -13.555 -23.262  0.00  0.00    +0.317 C 
BRANCH  18  19
ATOM     19  O   UNL     1      34.262 -12.631 -23.871  0.00  0.00    -0.480 OA
ATOM     20  H   UNL     1      34.406 -12.674 -24.796  0.00  0.00    +0.295 HD
ENDBRANCH  18  19
ENDBRANCH  15  18
ENDBRANCH   1  15
TORSDOF 5
ENDMDL
MODEL 2
REMARK VINA RESULT:     -10.0      0.089      1.112
REMARK  Name = 667550
REMARK  5 active torsions:
REMARK  status: ('A' for Active; 'I' for Inactive)
REMARK    1  A    between atoms: C_1  and  C_15
REMARK    2  A    between atoms: C_3  and  C_8
REMARK    3  A    between atoms: C_8  and  C_9
REMARK    4  A    between atoms: C_15  and  C_18
REMARK    5  A    between atoms: C_18  and  O_19
REMARK                            x       y       z     vdW  Elec       q    Type
REMARK                         _______ _______ _______ _____ _____    ______ ____
ROOT
ATOM      1  C   UNL     1      34.607 -15.790 -22.660  0.00  0.00    -0.012 C 
ATOM      2  C   UNL     1      35.151 -16.737 -21.793  0.00  0.00    -0.001 C 
ATOM      3  C   UNL     1      35.518 -17.979 -22.286  0.00  0.00    +0.039 C 
ATOM      4  C   UNL     1      34.438 -16.097 -24.010  0.00  0.00    -0.004 C 
ATOM      5  C   UNL     1      35.355 -18.298 -23.625  0.00  0.00    +0.003 C 
ATOM      6  C   UNL     1      34.811 -17.351 -24.492  0.00  0.00    -0.000 C 
ENDROOT
BRANCH   3   8
ATOM      7  O   UNL     1      37.313 -19.025 -21.191  0.00  0.00    -0.287 OA
ATOM      8  C   UNL     1      36.092 -18.979 -21.371  0.00  0.00    +0.196 C 
BRANCH   8   9
ATOM      9  C   UNL     1      35.189 -19.897 -20.695  0.00  0.00    +0.039 C 
ATOM     10  C   UNL     1      35.702 -20.963 -19.955  0.00  0.00    +0.003 C 
ATOM     11  C   UNL     1      33.809 -19.711 -20.785  0.00  0.00    +0.003 C 
ATOM     12  C   UNL     1      34.837 -21.842 -19.307  0.00  0.00    +0.000 C 
ATOM     13  C   UNL     1      32.944 -20.592 -20.136  0.00  0.00    +0.000 C 
ATOM     14  C   UNL     1      33.457 -21.657 -19.397  0.00  0.00    +0.000 C 
ENDBRANCH   8   9
ENDBRANCH   3   8
BRANCH   1  15
ATOM     15  C   UNL     1      34.208 -14.448 -22.145  0.00  0.00    +0.121 C 
ATOM     16  C   UNL     1      33.353 -14.505 -20.863  0.00  0.00    +0.016 C 
BRANCH  15  18
ATOM     17  O   UNL     1      32.284 -13.713 -23.459  0.00  0.00    -0.250 OA
ATOM     18  C   UNL     1      33.475 -13.609 -23.197  0.00  0.00    +0.317 C 
BRANCH  18  19
ATOM     19  O   UNL     1      34.287 -12.724 -23.834  0.00  0.00    -0.480 OA
ATOM     20  H   UNL     1      33.961 -12.225 -24.557  0.00  0.00    +0.295 HD
ENDBRANCH  18  19
ENDBRANCH  15  18
ENDBRANCH   1  15
TORSDOF 5
ENDMDL
MODEL 3
REMARK VINA RESULT:      -9.9      5.173      8.814
REMARK  Name = 667550
REMARK  5 active torsions:
REMARK  status: ('A' for Active; 'I' for Inactive)
REMARK    1  A    between atoms: C_1  and  C_15
REMARK    2  A    between atoms: C_3  and  C_8
REMARK    3  A    between atoms: C_8  and  C_9
REMARK    4  A    between atoms: C_15  and  C_18
REMARK    5  A    between atoms: C_18  and  O_19
REMARK                            x       y       z     vdW  Elec       q    Type
REMARK                         _______ _______ _______ _____ _____    ______ ____
ROOT
ATOM      1  C   UNL     1      31.919 -23.169 -15.645  0.00  0.00    -0.012 C 
ATOM      2  C   UNL     1      32.204 -23.181 -17.010  0.00  0.00    -0.001 C 
ATOM      3  C   UNL     1      33.525 -23.148 -17.429  0.00  0.00    +0.039 C 
ATOM      4  C   UNL     1      32.958 -23.126 -14.716  0.00  0.00    -0.004 C 
ATOM      5  C   UNL     1      34.568 -23.104 -16.517  0.00  0.00    +0.003 C 
ATOM      6  C   UNL     1      34.282 -23.092 -15.152  0.00  0.00    -0.000 C 
ENDROOT
BRANCH   3   8
ATOM      7  O   UNL     1      33.854 -24.229 -19.488  0.00  0.00    -0.287 OA
ATOM      8  C   UNL     1      33.827 -23.160 -18.869  0.00  0.00    +0.196 C 
BRANCH   8   9
ATOM      9  C   UNL     1      34.089 -21.892 -19.532  0.00  0.00    +0.039 C 
ATOM     10  C   UNL     1      33.026 -21.086 -19.941  0.00  0.00    +0.003 C 
ATOM     11  C   UNL     1      35.403 -21.480 -19.757  0.00  0.00    +0.003 C 
ATOM     12  C   UNL     1      33.276 -19.870 -20.575  0.00  0.00    +0.000 C 
ATOM     13  C   UNL     1      35.652 -20.264 -20.393  0.00  0.00    +0.000 C 
ATOM     14  C   UNL     1      34.590 -19.459 -20.802  0.00  0.00    +0.000 C 
ENDBRANCH   8   9
ENDBRANCH   3   8
BRANCH   1  15
ATOM     15  C   UNL     1      30.502 -23.207 -15.179  0.00  0.00    +0.121 C 
ATOM     16  C   UNL     1      30.199 -24.367 -14.210  0.00  0.00    +0.016 C 
BRANCH  15  18
ATOM     17  O   UNL     1      29.179 -22.279 -17.011  0.00  0.00    -0.250 OA
ATOM     18  C   UNL     1      29.502 -23.250 -16.339  0.00  0.00    +0.317 C 
BRANCH  18  19
ATOM     19  O   UNL     1      28.987 -24.490 -16.554  0.00  0.00    -0.480 OA
ATOM     20  H   UNL     1      29.325 -25.023 -17.248  0.00  0.00    +0.295 HD
ENDBRANCH  18  19
ENDBRANCH  15  18
ENDBRANCH   1  15
TORSDOF 5
ENDMDL
MODEL 4
REMARK VINA RESULT:      -9.6      1.193      2.214
REMARK  Name = 667550
REMARK  5 active torsions:
REMARK  status: ('A' for Active; 'I' for Inactive)
REMARK    1  A    between atoms: C_1  and  C_15
REMARK    2  A    between atoms: C_3  and  C_8
REMARK    3  A    between atoms: C_8  and  C_9
REMARK    4  A    between atoms: C_15  and  C_18
REMARK    5  A    between atoms: C_18  and  O_19
REMARK                            x       y       z     vdW  Elec       q    Type
REMARK                         _______ _______ _______ _____ _____    ______ ____
ROOT
ATOM      1  C   UNL     1      33.590 -14.856 -22.680  0.00  0.00    -0.012 C 
ATOM      2  C   UNL     1      33.982 -16.159 -22.987  0.00  0.00    -0.001 C 
ATOM      3  C   UNL     1      34.611 -16.925 -22.020  0.00  0.00    +0.039 C 
ATOM      4  C   UNL     1      33.830 -14.337 -21.408  0.00  0.00    -0.004 C 
ATOM      5  C   UNL     1      34.857 -16.423 -20.751  0.00  0.00    +0.003 C 
ATOM      6  C   UNL     1      34.465 -15.121 -20.444  0.00  0.00    -0.000 C 
ENDROOT
BRANCH   3   8
ATOM      7  O   UNL     1      35.614 -18.537 -23.403  0.00  0.00    -0.287 OA
ATOM      8  C   UNL     1      35.026 -18.300 -22.343  0.00  0.00    +0.196 C 
BRANCH   8   9
ATOM      9  C   UNL     1      34.727 -19.356 -21.388  0.00  0.00    +0.039 C 
ATOM     10  C   UNL     1      33.402 -19.681 -21.100  0.00  0.00    +0.003 C 
ATOM     11  C   UNL     1      35.767 -20.042 -20.760  0.00  0.00    +0.003 C 
ATOM     12  C   UNL     1      33.115 -20.693 -20.185  0.00  0.00    +0.000 C 
ATOM     13  C   UNL     1      35.479 -21.054 -19.844  0.00  0.00    +0.000 C 
ATOM     14  C   UNL     1      34.155 -21.380 -19.556  0.00  0.00    +0.000 C 
ENDBRANCH   8   9
ENDBRANCH   3   8
BRANCH   1  15
ATOM     15  C   UNL     1      32.910 -14.019 -23.710  0.00  0.00    +0.121 C 
ATOM     16  C   UNL     1      33.220 -14.444 -25.160  0.00  0.00    +0.016 C 
BRANCH  15  18
ATOM     17  O   UNL     1      32.514 -11.736 -22.936  0.00  0.00    -0.250 OA
ATOM     18  C   UNL     1      33.218 -12.526 -23.551  0.00  0.00    +0.317 C 
BRANCH  18  19
ATOM     19  O   UNL     1      34.365 -12.148 -24.176  0.00  0.00    -0.480 OA
ATOM     20  H   UNL     1      34.953 -12.798 -24.509  0.00  0.00    +0.295 HD
ENDBRANCH  18  19
ENDBRANCH  15  18
ENDBRANCH   1  15
TORSDOF 5
ENDMDL
MODEL 5
REMARK VINA RESULT:      -9.6      1.389      2.570
REMARK  Name = 667550
REMARK  5 active torsions:
REMARK  status: ('A' for Active; 'I' for Inactive)
REMARK    1  A    between atoms: C_1  and  C_15
REMARK    2  A    between atoms: C_3  and  C_8
REMARK    3  A    between atoms: C_8  and  C_9
REMARK    4  A    between atoms: C_15  and  C_18
REMARK    5  A    between atoms: C_18  and  O_19
REMARK                            x       y       z     vdW  Elec       q    Type
REMARK                         _______ _______ _______ _____ _____    ______ ____
ROOT
ATOM      1  C   UNL     1      34.368 -14.915 -23.130  0.00  0.00    -0.012 C 
ATOM      2  C   UNL     1      34.906 -16.202 -23.121  0.00  0.00    -0.001 C 
ATOM      3  C   UNL     1      35.054 -16.867 -21.915  0.00  0.00    +0.039 C 
ATOM      4  C   UNL     1      33.984 -14.311 -21.933  0.00  0.00    -0.004 C 
ATOM      5  C   UNL     1      34.678 -16.279 -20.717  0.00  0.00    +0.003 C 
ATOM      6  C   UNL     1      34.140 -14.993 -20.727  0.00  0.00    -0.000 C 
ENDROOT
BRANCH   3   8
ATOM      7  O   UNL     1      36.659 -18.469 -22.528  0.00  0.00    -0.287 OA
ATOM      8  C   UNL     1      35.622 -18.225 -21.903  0.00  0.00    +0.196 C 
BRANCH   8   9
ATOM      9  C   UNL     1      34.935 -19.256 -21.141  0.00  0.00    +0.039 C 
ATOM     10  C   UNL     1      35.669 -20.191 -20.411  0.00  0.00    +0.003 C 
ATOM     11  C   UNL     1      33.540 -19.310 -21.140  0.00  0.00    +0.003 C 
ATOM     12  C   UNL     1      35.010 -21.179 -19.681  0.00  0.00    +0.000 C 
ATOM     13  C   UNL     1      32.882 -20.298 -20.409  0.00  0.00    +0.000 C 
ATOM     14  C   UNL     1      33.616 -21.233 -19.680  0.00  0.00    +0.000 C 
ENDBRANCH   8   9
ENDBRANCH   3   8
BRANCH   1  15
ATOM     15  C   UNL     1      34.199 -14.186 -24.421  0.00  0.00    +0.121 C 
ATOM     16  C   UNL     1      33.484 -12.828 -24.277  0.00  0.00    +0.016 C 
BRANCH  15  18
ATOM     17  O   UNL     1      33.928 -16.040 -25.988  0.00  0.00    -0.250 OA
ATOM     18  C   UNL     1      33.473 -15.024 -25.479  0.00  0.00    +0.317 C 
BRANCH  18  19
ATOM     19  O   UNL     1      32.256 -14.521 -25.815  0.00  0.00    -0.480 OA
ATOM     20  H   UNL     1      32.141 -14.082 -26.636  0.00  0.00    +0.295 HD
ENDBRANCH  18  19
ENDBRANCH  15  18
ENDBRANCH   1  15
TORSDOF 5
ENDMDL
MODEL 6
REMARK VINA RESULT:      -9.5      5.118      9.211
REMARK  Name = 667550
REMARK  5 active torsions:
REMARK  status: ('A' for Active; 'I' for Inactive)
REMARK    1  A    between atoms: C_1  and  C_15
REMARK    2  A    between atoms: C_3  and  C_8
REMARK    3  A    between atoms: C_8  and  C_9
REMARK    4  A    between atoms: C_15  and  C_18
REMARK    5  A    between atoms: C_18  and  O_19
REMARK                            x       y       z     vdW  Elec       q    Type
REMARK                         _______ _______ _______ _____ _____    ______ ____
ROOT
ATOM      1  C   UNL     1      32.432 -23.396 -15.723  0.00  0.00    -0.012 C 
ATOM      2  C   UNL     1      32.592 -23.335 -17.107  0.00  0.00    -0.001 C 
ATOM      3  C   UNL     1      33.839 -23.040 -17.634  0.00  0.00    +0.039 C 
ATOM      4  C   UNL     1      33.521 -23.163 -14.884  0.00  0.00    -0.004 C 
ATOM      5  C   UNL     1      34.931 -22.806 -16.813  0.00  0.00    +0.003 C 
ATOM      6  C   UNL     1      34.770 -22.867 -15.429  0.00  0.00    -0.000 C 
ENDROOT
BRANCH   3   8
ATOM      7  O   UNL     1      34.057 -24.015 -19.760  0.00  0.00    -0.287 OA
ATOM      8  C   UNL     1      34.009 -22.976 -19.095  0.00  0.00    +0.196 C 
BRANCH   8   9
ATOM      9  C   UNL     1      34.116 -21.667 -19.721  0.00  0.00    +0.039 C 
ATOM     10  C   UNL     1      32.964 -20.932 -20.002  0.00  0.00    +0.003 C 
ATOM     11  C   UNL     1      35.370 -21.146 -20.040  0.00  0.00    +0.003 C 
ATOM     12  C   UNL     1      33.066 -19.678 -20.602  0.00  0.00    +0.000 C 
ATOM     13  C   UNL     1      35.471 -19.891 -20.640  0.00  0.00    +0.000 C 
ATOM     14  C   UNL     1      34.320 -19.157 -20.922  0.00  0.00    +0.000 C 
ENDBRANCH   8   9
ENDBRANCH   3   8
BRANCH   1  15
ATOM     15  C   UNL     1      31.096 -23.714 -15.139  0.00  0.00    +0.121 C 
ATOM     16  C   UNL     1      30.184 -22.482 -14.970  0.00  0.00    +0.016 C 
BRANCH  15  18
ATOM     17  O   UNL     1      31.614 -25.591 -13.664  0.00  0.00    -0.250 OA
ATOM     18  C   UNL     1      31.200 -24.446 -13.797  0.00  0.00    +0.317 C 
BRANCH  18  19
ATOM     19  O   UNL     1      30.774 -23.698 -12.746  0.00  0.00    -0.480 OA
ATOM     20  H   UNL     1      30.482 -24.117 -11.960  0.00  0.00    +0.295 HD
ENDBRANCH  18  19
ENDBRANCH  15  18
ENDBRANCH   1  15
TORSDOF 5
ENDMDL
MODEL 7
REMARK VINA RESULT:      -9.5      2.634      6.815
REMARK  Name = 667550
REMARK  5 active torsions:
REMARK  status: ('A' for Active; 'I' for Inactive)
REMARK    1  A    between atoms: C_1  and  C_15
REMARK    2  A    between atoms: C_3  and  C_8
REMARK    3  A    between atoms: C_8  and  C_9
REMARK    4  A    between atoms: C_15  and  C_18
REMARK    5  A    between atoms: C_18  and  O_19
REMARK                            x       y       z     vdW  Elec       q    Type
REMARK                         _______ _______ _______ _____ _____    ______ ____
ROOT
ATOM      1  C   UNL     1      34.447 -21.311 -19.561  0.00  0.00    -0.012 C 
ATOM      2  C   UNL     1      35.348 -20.551 -20.306  0.00  0.00    -0.001 C 
ATOM      3  C   UNL     1      34.875 -19.513 -21.091  0.00  0.00    +0.039 C 
ATOM      4  C   UNL     1      33.083 -21.022 -19.610  0.00  0.00    -0.004 C 
ATOM      5  C   UNL     1      33.523 -19.213 -21.150  0.00  0.00    +0.003 C 
ATOM      6  C   UNL     1      32.621 -19.973 -20.406  0.00  0.00    -0.000 C 
ENDROOT
BRANCH   3   8
ATOM      7  O   UNL     1      37.025 -18.705 -21.583  0.00  0.00    -0.287 OA
ATOM      8  C   UNL     1      35.826 -18.710 -21.878  0.00  0.00    +0.196 C 
BRANCH   8   9
ATOM      9  C   UNL     1      35.315 -17.936 -22.999  0.00  0.00    +0.039 C 
ATOM     10  C   UNL     1      35.180 -16.552 -22.887  0.00  0.00    +0.003 C 
ATOM     11  C   UNL     1      34.962 -18.578 -24.186  0.00  0.00    +0.003 C 
ATOM     12  C   UNL     1      34.691 -15.810 -23.961  0.00  0.00    +0.000 C 
ATOM     13  C   UNL     1      34.473 -17.834 -25.261  0.00  0.00    +0.000 C 
ATOM     14  C   UNL     1      34.337 -16.452 -25.149  0.00  0.00    +0.000 C 
ENDBRANCH   8   9
ENDBRANCH   3   8
BRANCH   1  15
ATOM     15  C   UNL     1      34.941 -22.432 -18.709  0.00  0.00    +0.121 C 
ATOM     16  C   UNL     1      33.830 -23.131 -17.899  0.00  0.00    +0.016 C 
BRANCH  15  18
ATOM     17  O   UNL     1      36.784 -21.028 -17.935  0.00  0.00    -0.250 OA
ATOM     18  C   UNL     1      36.057 -21.997 -17.754  0.00  0.00    +0.317 C 
BRANCH  18  19
ATOM     19  O   UNL     1      36.177 -22.806 -16.668  0.00  0.00    -0.480 OA
ATOM     20  H   UNL     1      35.627 -22.670 -15.921  0.00  0.00    +0.295 HD
ENDBRANCH  18  19
ENDBRANCH  15  18
ENDBRANCH   1  15
TORSDOF 5
ENDMDL
MODEL 8
REMARK VINA RESULT:      -9.5      1.709      2.177
REMARK  Name = 667550
REMARK  5 active torsions:
REMARK  status: ('A' for Active; 'I' for Inactive)
REMARK    1  A    between atoms: C_1  and  C_15
REMARK    2  A    between atoms: C_3  and  C_8
REMARK    3  A    between atoms: C_8  and  C_9
REMARK    4  A    between atoms: C_15  and  C_18
REMARK    5  A    between atoms: C_18  and  O_19
REMARK                            x       y       z     vdW  Elec       q    Type
REMARK                         _______ _______ _______ _____ _____    ______ ____
ROOT
ATOM      1  C   UNL     1      34.158 -15.829 -24.488  0.00  0.00    -0.012 C 
ATOM      2  C   UNL     1      34.355 -16.099 -23.134  0.00  0.00    -0.001 C 
ATOM      3  C   UNL     1      34.687 -17.385 -22.738  0.00  0.00    +0.039 C 
ATOM      4  C   UNL     1      34.296 -16.849 -25.429  0.00  0.00    -0.004 C 
ATOM      5  C   UNL     1      34.827 -18.409 -23.662  0.00  0.00    +0.003 C 
ATOM      6  C   UNL     1      34.629 -18.139 -25.016  0.00  0.00    -0.000 C 
ENDROOT
BRANCH   3   8
ATOM      7  O   UNL     1      35.296 -16.781 -20.551  0.00  0.00    -0.287 OA
ATOM      8  C   UNL     1      34.895 -17.671 -21.309  0.00  0.00    +0.196 C 
BRANCH   8   9
ATOM      9  C   UNL     1      34.617 -19.014 -20.825  0.00  0.00    +0.039 C 
ATOM     10  C   UNL     1      33.298 -19.443 -20.680  0.00  0.00    +0.003 C 
ATOM     11  C   UNL     1      35.669 -19.872 -20.506  0.00  0.00    +0.003 C 
ATOM     12  C   UNL     1      33.030 -20.731 -20.216  0.00  0.00    +0.000 C 
ATOM     13  C   UNL     1      35.401 -21.160 -20.042  0.00  0.00    +0.000 C 
ATOM     14  C   UNL     1      34.083 -21.589 -19.896  0.00  0.00    +0.000 C 
ENDBRANCH   8   9
ENDBRANCH   3   8
BRANCH   1  15
ATOM     15  C   UNL     1      33.802 -14.450 -24.930  0.00  0.00    +0.121 C 
ATOM     16  C   UNL     1      32.784 -13.747 -24.010  0.00  0.00    +0.016 C 
BRANCH  15  18
ATOM     17  O   UNL     1      33.941 -14.032 -27.333  0.00  0.00    -0.250 OA
ATOM     18  C   UNL     1      33.284 -14.410 -26.372  0.00  0.00    +0.317 C 
BRANCH  18  19
ATOM     19  O   UNL     1      31.998 -14.833 -26.489  0.00  0.00    -0.480 OA
ATOM     20  H   UNL     1      31.789 -15.738 -26.360  0.00  0.00    +0.295 HD
ENDBRANCH  18  19
ENDBRANCH  15  18
ENDBRANCH   1  15
TORSDOF 5
ENDMDL
MODEL 9
REMARK VINA RESULT:      -9.5      1.361      2.239
REMARK  Name = 667550
REMARK  5 active torsions:
REMARK  status: ('A' for Active; 'I' for Inactive)
REMARK    1  A    between atoms: C_1  and  C_15
REMARK    2  A    between atoms: C_3  and  C_8
REMARK    3  A    between atoms: C_8  and  C_9
REMARK    4  A    between atoms: C_15  and  C_18
REMARK    5  A    between atoms: C_18  and  O_19
REMARK                            x       y       z     vdW  Elec       q    Type
REMARK                         _______ _______ _______ _____ _____    ______ ____
ROOT
ATOM      1  C   UNL     1      33.655 -15.404 -24.404  0.00  0.00    -0.012 C 
ATOM      2  C   UNL     1      33.905 -15.733 -23.072  0.00  0.00    -0.001 C 
ATOM      3  C   UNL     1      34.581 -16.906 -22.777  0.00  0.00    +0.039 C 
ATOM      4  C   UNL     1      34.086 -16.251 -25.424  0.00  0.00    -0.004 C 
ATOM      5  C   UNL     1      35.015 -17.758 -23.780  0.00  0.00    +0.003 C 
ATOM      6  C   UNL     1      34.765 -17.429 -25.112  0.00  0.00    -0.000 C 
ENDROOT
BRANCH   3   8
ATOM      7  O   UNL     1      35.232 -16.388 -20.580  0.00  0.00    -0.287 OA
ATOM      8  C   UNL     1      34.845 -17.254 -21.371  0.00  0.00    +0.196 C 
BRANCH   8   9
ATOM      9  C   UNL     1      34.637 -18.631 -20.949  0.00  0.00    +0.039 C 
ATOM     10  C   UNL     1      35.733 -19.454 -20.689  0.00  0.00    +0.003 C 
ATOM     11  C   UNL     1      33.342 -19.127 -20.803  0.00  0.00    +0.003 C 
ATOM     12  C   UNL     1      35.534 -20.773 -20.284  0.00  0.00    +0.000 C 
ATOM     13  C   UNL     1      33.144 -20.447 -20.398  0.00  0.00    +0.000 C 
ATOM     14  C   UNL     1      34.239 -21.270 -20.139  0.00  0.00    +0.000 C 
ENDBRANCH   8   9
ENDBRANCH   3   8
BRANCH   1  15
ATOM     15  C   UNL     1      32.930 -14.144 -24.738  0.00  0.00    +0.121 C 
ATOM     16  C   UNL     1      33.231 -13.611 -26.153  0.00  0.00    +0.016 C 
BRANCH  15  18
ATOM     17  O   UNL     1      32.458 -12.774 -22.770  0.00  0.00    -0.250 OA
ATOM     18  C   UNL     1      33.189 -13.028 -23.719  0.00  0.00    +0.317 C 
BRANCH  18  19
ATOM     19  O   UNL     1      34.324 -12.326 -23.974  0.00  0.00    -0.480 OA
ATOM     20  H   UNL     1      34.639 -12.248 -24.853  0.00  0.00    +0.295 HD
ENDBRANCH  18  19
ENDBRANCH  15  18
ENDBRANCH   1  15
TORSDOF 5
ENDMDL
