MODEL 1
REMARK VINA RESULT:      -7.2      0.000      0.000
REMARK  Name = 3821
REMARK  2 active torsions:
REMARK  status: ('A' for Active; 'I' for Inactive)
REMARK    1  A    between atoms: C_2  and  C_9
REMARK    2  A    between atoms: C_2  and  N_15
REMARK                            x       y       z     vdW  Elec       q    Type
REMARK                         _______ _______ _______ _____ _____    ______ ____
ROOT
ATOM      1  O   UNL     1      37.935 -23.148 -13.090  0.00  0.00    -0.298 OA
ATOM      2  C   UNL     1      36.092 -23.851 -14.533  0.00  0.00    +0.028 C 
ATOM      3  C   UNL     1      35.608 -25.324 -14.530  0.00  0.00    -0.009 C 
ATOM      4  C   UNL     1      36.531 -26.263 -15.314  0.00  0.00    -0.001 C 
ATOM      5  C   UNL     1      37.946 -26.226 -14.746  0.00  0.00    +0.008 C 
ATOM      6  C   UNL     1      37.538 -23.880 -13.999  0.00  0.00    +0.136 C 
ATOM      7  C   UNL     1      38.501 -24.812 -14.711  0.00  0.00    +0.063 C 
ENDROOT
BRANCH   2   9
ATOM      8 CL   UNL     1      33.378 -23.803 -16.032  0.00  0.00    -0.083 Cl
ATOM      9  C   UNL     1      36.008 -23.111 -15.874  0.00  0.00    -0.023 C 
ATOM     10  C   UNL     1      34.820 -23.048 -16.603  0.00  0.00    +0.052 C 
ATOM     11  C   UNL     1      37.160 -22.491 -16.362  0.00  0.00    -0.005 C 
ATOM     12  C   UNL     1      34.784 -22.368 -17.819  0.00  0.00    +0.011 C 
ATOM     13  C   UNL     1      37.122 -21.811 -17.579  0.00  0.00    -0.000 C 
ATOM     14  C   UNL     1      35.935 -21.749 -18.307  0.00  0.00    +0.001 C 
ENDBRANCH   2   9
BRANCH   2  15
ATOM     15  N   UNL     1      35.274 -23.145 -13.531  0.00  0.00    +0.391 N 
ATOM     16  C   UNL     1      34.658 -24.090 -12.612  0.00  0.00    -0.104 C 
ATOM     17  H   UNL     1      34.543 -22.617 -14.008  0.00  0.00    -0.083 HD
ATOM     18  H   UNL     1      35.876 -22.516 -13.000  0.00  0.00    -0.083 HD
ENDBRANCH   2  15
TORSDOF 2
ENDMDL
MODEL 2
REMARK VINA RESULT:      -6.7      1.698      2.591
REMARK  Name = 3821
REMARK  2 active torsions:
REMARK  status: ('A' for Active; 'I' for Inactive)
REMARK    1  A    between atoms: C_2  and  C_9
REMARK    2  A    between atoms: C_2  and  N_15
REMARK                            x       y       z     vdW  Elec       q    Type
REMARK                         _______ _______ _______ _____ _____    ______ ____
ROOT
ATOM      1  O   UNL     1      34.563 -24.571 -12.541  0.00  0.00    -0.298 OA
ATOM      2  C   UNL     1      36.456 -24.804 -14.069  0.00  0.00    +0.028 C 
ATOM      3  C   UNL     1      37.815 -25.351 -13.560  0.00  0.00    -0.009 C 
ATOM      4  C   UNL     1      38.625 -24.315 -12.774  0.00  0.00    -0.001 C 
ATOM      5  C   UNL     1      37.834 -23.811 -11.571  0.00  0.00    +0.008 C 
ATOM      6  C   UNL     1      35.724 -24.267 -12.824  0.00  0.00    +0.136 C 
ATOM      7  C   UNL     1      36.480 -23.257 -11.980  0.00  0.00    +0.063 C 
ENDROOT
BRANCH   2   9
ATOM      8 CL   UNL     1      33.812 -23.909 -15.422  0.00  0.00    -0.083 Cl
ATOM      9  C   UNL     1      36.521 -23.746 -15.177  0.00  0.00    -0.023 C 
ATOM     10  C   UNL     1      35.373 -23.296 -15.829  0.00  0.00    +0.052 C 
ATOM     11  C   UNL     1      37.770 -23.232 -15.529  0.00  0.00    -0.005 C 
ATOM     12  C   UNL     1      35.473 -22.334 -16.833  0.00  0.00    +0.011 C 
ATOM     13  C   UNL     1      37.869 -22.270 -16.534  0.00  0.00    -0.000 C 
ATOM     14  C   UNL     1      36.722 -21.821 -17.185  0.00  0.00    +0.001 C 
ENDBRANCH   2   9
BRANCH   2  15
ATOM     15  N   UNL     1      35.695 -25.972 -14.549  0.00  0.00    +0.391 N 
ATOM     16  C   UNL     1      36.553 -26.867 -15.309  0.00  0.00    -0.104 C 
ATOM     17  H   UNL     1      34.932 -25.651 -15.147  0.00  0.00    -0.083 HD
ATOM     18  H   UNL     1      35.326 -26.477 -13.743  0.00  0.00    -0.083 HD
ENDBRANCH   2  15
TORSDOF 2
ENDMDL
MODEL 3
REMARK VINA RESULT:      -6.5      2.215      3.575
REMARK  Name = 3821
REMARK  2 active torsions:
REMARK  status: ('A' for Active; 'I' for Inactive)
REMARK    1  A    between atoms: C_2  and  C_9
REMARK    2  A    between atoms: C_2  and  N_15
REMARK                            x       y       z     vdW  Elec       q    Type
REMARK                         _______ _______ _______ _____ _____    ______ ____
ROOT
ATOM      1  O   UNL     1      36.839 -26.812 -13.038  0.00  0.00    -0.298 OA
ATOM      2  C   UNL     1      37.190 -24.628 -14.076  0.00  0.00    +0.028 C 
ATOM      3  C   UNL     1      38.065 -23.556 -13.377  0.00  0.00    -0.009 C 
ATOM      4  C   UNL     1      37.345 -22.850 -12.222  0.00  0.00    -0.001 C 
ATOM      5  C   UNL     1      36.896 -23.859 -11.170  0.00  0.00    +0.008 C 
ATOM      6  C   UNL     1      36.726 -25.587 -12.962  0.00  0.00    +0.136 C 
ATOM      7  C   UNL     1      36.031 -24.953 -11.772  0.00  0.00    +0.063 C 
ENDROOT
BRANCH   2   9
ATOM      8 CL   UNL     1      37.725 -22.534 -16.300  0.00  0.00    -0.083 Cl
ATOM      9  C   UNL     1      36.001 -24.107 -14.894  0.00  0.00    -0.023 C 
ATOM     10  C   UNL     1      36.167 -23.165 -15.909  0.00  0.00    +0.052 C 
ATOM     11  C   UNL     1      34.729 -24.599 -14.600  0.00  0.00    -0.005 C 
ATOM     12  C   UNL     1      35.062 -22.715 -16.630  0.00  0.00    +0.011 C 
ATOM     13  C   UNL     1      33.623 -24.147 -15.321  0.00  0.00    -0.000 C 
ATOM     14  C   UNL     1      33.790 -23.206 -16.335  0.00  0.00    +0.001 C 
ENDBRANCH   2   9
BRANCH   2  15
ATOM     15  N   UNL     1      38.094 -25.390 -14.955  0.00  0.00    +0.391 N 
ATOM     16  C   UNL     1      39.479 -25.213 -14.546  0.00  0.00    -0.104 C 
ATOM     17  H   UNL     1      37.984 -25.061 -15.915  0.00  0.00    -0.083 HD
ATOM     18  H   UNL     1      37.857 -26.380 -14.891  0.00  0.00    -0.083 HD
ENDBRANCH   2  15
TORSDOF 2
ENDMDL
MODEL 4
REMARK VINA RESULT:      -6.5     17.495     19.464
REMARK  Name = 3821
REMARK  2 active torsions:
REMARK  status: ('A' for Active; 'I' for Inactive)
REMARK    1  A    between atoms: C_2  and  C_9
REMARK    2  A    between atoms: C_2  and  N_15
REMARK                            x       y       z     vdW  Elec       q    Type
REMARK                         _______ _______ _______ _____ _____    ______ ____
ROOT
ATOM      1  O   UNL     1      33.454  -7.285 -21.003  0.00  0.00    -0.298 OA
ATOM      2  C   UNL     1      32.088  -6.519 -22.878  0.00  0.00    +0.028 C 
ATOM      3  C   UNL     1      30.670  -7.105 -23.109  0.00  0.00    -0.009 C 
ATOM      4  C   UNL     1      30.692  -8.500 -23.743  0.00  0.00    -0.001 C 
ATOM      5  C   UNL     1      31.474  -9.477 -22.871  0.00  0.00    +0.008 C 
ATOM      6  C   UNL     1      32.845  -7.565 -22.037  0.00  0.00    +0.136 C 
ATOM      7  C   UNL     1      32.881  -8.977 -22.591  0.00  0.00    +0.063 C 
ENDROOT
BRANCH   2   9
ATOM      8 CL   UNL     1      30.823  -4.502 -24.866  0.00  0.00    -0.083 Cl
ATOM      9  C   UNL     1      32.878  -6.135 -24.135  0.00  0.00    -0.023 C 
ATOM     10  C   UNL     1      32.372  -5.235 -25.072  0.00  0.00    +0.052 C 
ATOM     11  C   UNL     1      34.133  -6.713 -24.330  0.00  0.00    -0.005 C 
ATOM     12  C   UNL     1      33.120  -4.912 -26.204  0.00  0.00    +0.011 C 
ATOM     13  C   UNL     1      34.881  -6.390 -25.462  0.00  0.00    -0.000 C 
ATOM     14  C   UNL     1      34.374  -5.490 -26.399  0.00  0.00    +0.001 C 
ENDBRANCH   2   9
BRANCH   2  15
ATOM     15  N   UNL     1      31.908  -5.328 -22.028  0.00  0.00    +0.391 N 
ATOM     16  C   UNL     1      30.563  -5.289 -21.475  0.00  0.00    -0.104 C 
ATOM     17  H   UNL     1      32.063  -4.490 -22.590  0.00  0.00    -0.083 HD
ATOM     18  H   UNL     1      32.578  -5.369 -21.260  0.00  0.00    -0.083 HD
ENDBRANCH   2  15
TORSDOF 2
ENDMDL
MODEL 5
REMARK VINA RESULT:      -6.3     15.326     17.608
REMARK  Name = 3821
REMARK  2 active torsions:
REMARK  status: ('A' for Active; 'I' for Inactive)
REMARK    1  A    between atoms: C_2  and  C_9
REMARK    2  A    between atoms: C_2  and  N_15
REMARK                            x       y       z     vdW  Elec       q    Type
REMARK                         _______ _______ _______ _____ _____    ______ ____
ROOT
ATOM      1  O   UNL     1      30.943  -8.262 -24.608  0.00  0.00    -0.298 OA
ATOM      2  C   UNL     1      32.019  -7.808 -22.462  0.00  0.00    +0.028 C 
ATOM      3  C   UNL     1      33.330  -6.982 -22.398  0.00  0.00    -0.009 C 
ATOM      4  C   UNL     1      34.569  -7.786 -22.808  0.00  0.00    -0.001 C 
ATOM      5  C   UNL     1      34.416  -8.327 -24.226  0.00  0.00    +0.008 C 
ATOM      6  C   UNL     1      31.942  -8.370 -23.895  0.00  0.00    +0.136 C 
ATOM      7  C   UNL     1      33.149  -9.152 -24.379  0.00  0.00    +0.063 C 
ENDROOT
BRANCH   2   9
ATOM      8 CL   UNL     1      32.690  -7.168 -19.502  0.00  0.00    -0.083 Cl
ATOM      9  C   UNL     1      31.867  -8.922 -21.418  0.00  0.00    -0.023 C 
ATOM     10  C   UNL     1      32.151  -8.706 -20.070  0.00  0.00    +0.052 C 
ATOM     11  C   UNL     1      31.433 -10.177 -21.848  0.00  0.00    -0.005 C 
ATOM     12  C   UNL     1      32.001  -9.744 -19.151  0.00  0.00    +0.011 C 
ATOM     13  C   UNL     1      31.285 -11.215 -20.928  0.00  0.00    -0.000 C 
ATOM     14  C   UNL     1      31.569 -10.999 -19.580  0.00  0.00    +0.001 C 
ENDBRANCH   2   9
BRANCH   2  15
ATOM     15  N   UNL     1      30.915  -6.843 -22.314  0.00  0.00    +0.391 N 
ATOM     16  C   UNL     1      31.407  -5.479 -22.430  0.00  0.00    -0.104 C 
ATOM     17  H   UNL     1      30.483  -6.967 -21.398  0.00  0.00    -0.083 HD
ATOM     18  H   UNL     1      30.233  -7.010 -23.054  0.00  0.00    -0.083 HD
ENDBRANCH   2  15
TORSDOF 2
ENDMDL
MODEL 6
REMARK VINA RESULT:      -6.3     14.726     17.031
REMARK  Name = 3821
REMARK  2 active torsions:
REMARK  status: ('A' for Active; 'I' for Inactive)
REMARK    1  A    between atoms: C_2  and  C_9
REMARK    2  A    between atoms: C_2  and  N_15
REMARK                            x       y       z     vdW  Elec       q    Type
REMARK                         _______ _______ _______ _____ _____    ______ ____
ROOT
ATOM      1  O   UNL     1      34.783  -7.711 -22.695  0.00  0.00    -0.298 OA
ATOM      2  C   UNL     1      32.827  -9.165 -22.863  0.00  0.00    +0.028 C 
ATOM      3  C   UNL     1      31.785  -8.957 -23.993  0.00  0.00    -0.009 C 
ATOM      4  C   UNL     1      30.841  -7.778 -23.732  0.00  0.00    -0.001 C 
ATOM      5  C   UNL     1      31.628  -6.483 -23.565  0.00  0.00    +0.008 C 
ATOM      6  C   UNL     1      33.555  -7.816 -22.705  0.00  0.00    +0.136 C 
ATOM      7  C   UNL     1      32.678  -6.600 -22.473  0.00  0.00    +0.063 C 
ENDROOT
BRANCH   2   9
ATOM      8 CL   UNL     1      31.757 -12.071 -22.685  0.00  0.00    -0.083 Cl
ATOM      9  C   UNL     1      32.280  -9.664 -21.519  0.00  0.00    -0.023 C 
ATOM     10  C   UNL     1      31.783 -10.959 -21.366  0.00  0.00    +0.052 C 
ATOM     11  C   UNL     1      32.287  -8.787 -20.434  0.00  0.00    -0.005 C 
ATOM     12  C   UNL     1      31.293 -11.375 -20.129  0.00  0.00    +0.011 C 
ATOM     13  C   UNL     1      31.797  -9.204 -19.197  0.00  0.00    -0.000 C 
ATOM     14  C   UNL     1      31.300 -10.498 -19.045  0.00  0.00    +0.001 C 
ENDBRANCH   2   9
BRANCH   2  15
ATOM     15  N   UNL     1      33.811 -10.132 -23.382  0.00  0.00    +0.391 N 
ATOM     16  C   UNL     1      33.707 -10.244 -24.829  0.00  0.00    -0.104 C 
ATOM     17  H   UNL     1      33.638 -11.045 -22.961  0.00  0.00    -0.083 HD
ATOM     18  H   UNL     1      34.748  -9.804 -23.145  0.00  0.00    -0.083 HD
ENDBRANCH   2  15
TORSDOF 2
ENDMDL
MODEL 7
REMARK VINA RESULT:      -6.2     15.117     17.312
REMARK  Name = 3821
REMARK  2 active torsions:
REMARK  status: ('A' for Active; 'I' for Inactive)
REMARK    1  A    between atoms: C_2  and  C_9
REMARK    2  A    between atoms: C_2  and  N_15
REMARK                            x       y       z     vdW  Elec       q    Type
REMARK                         _______ _______ _______ _____ _____    ______ ____
ROOT
ATOM      1  O   UNL     1      30.542  -7.755 -22.878  0.00  0.00    -0.298 OA
ATOM      2  C   UNL     1      32.847  -8.522 -22.618  0.00  0.00    +0.028 C 
ATOM      3  C   UNL     1      34.017  -7.504 -22.587  0.00  0.00    -0.009 C 
ATOM      4  C   UNL     1      34.389  -6.972 -23.975  0.00  0.00    -0.001 C 
ATOM      5  C   UNL     1      33.190  -6.299 -24.635  0.00  0.00    +0.008 C 
ATOM      6  C   UNL     1      31.685  -7.809 -23.336  0.00  0.00    +0.136 C 
ATOM      7  C   UNL     1      31.991  -7.230 -24.705  0.00  0.00    +0.063 C 
ENDROOT
BRANCH   2   9
ATOM      8 CL   UNL     1      31.154 -10.974 -21.758  0.00  0.00    -0.083 Cl
ATOM      9  C   UNL     1      33.148  -9.882 -23.260  0.00  0.00    -0.023 C 
ATOM     10  C   UNL     1      32.427 -11.028 -22.921  0.00  0.00    +0.052 C 
ATOM     11  C   UNL     1      34.173  -9.957 -24.204  0.00  0.00    -0.005 C 
ATOM     12  C   UNL     1      32.731 -12.247 -23.525  0.00  0.00    +0.011 C 
ATOM     13  C   UNL     1      34.478 -11.177 -24.807  0.00  0.00    -0.000 C 
ATOM     14  C   UNL     1      33.757 -12.322 -24.468  0.00  0.00    +0.001 C 
ENDBRANCH   2   9
BRANCH   2  15
ATOM     15  N   UNL     1      32.435  -8.720 -21.217  0.00  0.00    +0.391 N 
ATOM     16  C   UNL     1      32.854  -7.596 -20.394  0.00  0.00    -0.104 C 
ATOM     17  H   UNL     1      32.863  -9.575 -20.860  0.00  0.00    -0.083 HD
ATOM     18  H   UNL     1      31.418  -8.792 -21.182  0.00  0.00    -0.083 HD
ENDBRANCH   2  15
TORSDOF 2
ENDMDL
MODEL 8
REMARK VINA RESULT:      -6.1     15.149     17.681
REMARK  Name = 3821
REMARK  2 active torsions:
REMARK  status: ('A' for Active; 'I' for Inactive)
REMARK    1  A    between atoms: C_2  and  C_9
REMARK    2  A    between atoms: C_2  and  N_15
REMARK                            x       y       z     vdW  Elec       q    Type
REMARK                         _______ _______ _______ _____ _____    ______ ____
ROOT
ATOM      1  O   UNL     1      33.091  -6.114 -20.241  0.00  0.00    -0.298 OA
ATOM      2  C   UNL     1      32.771  -7.758 -22.020  0.00  0.00    +0.028 C 
ATOM      3  C   UNL     1      32.375  -7.304 -23.449  0.00  0.00    -0.009 C 
ATOM      4  C   UNL     1      30.893  -6.935 -23.575  0.00  0.00    -0.001 C 
ATOM      5  C   UNL     1      30.532  -5.816 -22.603  0.00  0.00    +0.008 C 
ATOM      6  C   UNL     1      32.340  -6.616 -21.079  0.00  0.00    +0.136 C 
ATOM      7  C   UNL     1      30.890  -6.177 -21.171  0.00  0.00    +0.063 C 
ENDROOT
BRANCH   2   9
ATOM      8 CL   UNL     1      32.703 -10.113 -24.038  0.00  0.00    -0.083 Cl
ATOM      9  C   UNL     1      32.207  -9.107 -21.555  0.00  0.00    -0.023 C 
ATOM     10  C   UNL     1      32.145 -10.209 -22.408  0.00  0.00    +0.052 C 
ATOM     11  C   UNL     1      31.748  -9.215 -20.241  0.00  0.00    -0.005 C 
ATOM     12  C   UNL     1      31.625 -11.418 -21.948  0.00  0.00    +0.011 C 
ATOM     13  C   UNL     1      31.226 -10.424 -19.783  0.00  0.00    -0.000 C 
ATOM     14  C   UNL     1      31.165 -11.525 -20.636  0.00  0.00    +0.001 C 
ENDBRANCH   2   9
BRANCH   2  15
ATOM     15  N   UNL     1      34.244  -7.807 -21.996  0.00  0.00    +0.391 N 
ATOM     16  C   UNL     1      34.789  -7.521 -23.314  0.00  0.00    -0.104 C 
ATOM     17  H   UNL     1      34.543  -8.739 -21.705  0.00  0.00    -0.083 HD
ATOM     18  H   UNL     1      34.584  -7.104 -21.340  0.00  0.00    -0.083 HD
ENDBRANCH   2  15
TORSDOF 2
ENDMDL
MODEL 9
REMARK VINA RESULT:      -6.1     15.341     16.645
REMARK  Name = 3821
REMARK  2 active torsions:
REMARK  status: ('A' for Active; 'I' for Inactive)
REMARK    1  A    between atoms: C_2  and  C_9
REMARK    2  A    between atoms: C_2  and  N_15
REMARK                            x       y       z     vdW  Elec       q    Type
REMARK                         _______ _______ _______ _____ _____    ______ ____
ROOT
ATOM      1  O   UNL     1      32.464  -7.796 -20.308  0.00  0.00    -0.298 OA
ATOM      2  C   UNL     1      31.777  -9.088 -22.264  0.00  0.00    +0.028 C 
ATOM      3  C   UNL     1      30.516  -9.989 -22.209  0.00  0.00    -0.009 C 
ATOM      4  C   UNL     1      30.751 -11.309 -21.466  0.00  0.00    -0.001 C 
ATOM      5  C   UNL     1      31.213 -11.048 -20.036  0.00  0.00    +0.008 C 
ATOM      6  C   UNL     1      32.226  -8.899 -20.802  0.00  0.00    +0.136 C 
ATOM      7  C   UNL     1      32.449 -10.166 -19.997  0.00  0.00    +0.063 C 
ENDROOT
BRANCH   2   9
ATOM      8 CL   UNL     1      34.048  -7.106 -22.997  0.00  0.00    -0.083 Cl
ATOM      9  C   UNL     1      32.931  -9.587 -23.142  0.00  0.00    -0.023 C 
ATOM     10  C   UNL     1      33.986  -8.752 -23.511  0.00  0.00    +0.052 C 
ATOM     11  C   UNL     1      32.908 -10.914 -23.574  0.00  0.00    -0.005 C 
ATOM     12  C   UNL     1      35.017  -9.243 -24.311  0.00  0.00    +0.011 C 
ATOM     13  C   UNL     1      33.940 -11.404 -24.375  0.00  0.00    -0.000 C 
ATOM     14  C   UNL     1      34.993 -10.569 -24.744  0.00  0.00    +0.001 C 
ENDBRANCH   2   9
BRANCH   2  15
ATOM     15  N   UNL     1      31.324  -7.773 -22.752  0.00  0.00    +0.391 N 
ATOM     16  C   UNL     1      30.675  -7.901 -24.048  0.00  0.00    -0.104 C 
ATOM     17  H   UNL     1      32.129  -7.152 -22.840  0.00  0.00    -0.083 HD
ATOM     18  H   UNL     1      30.652  -7.390 -22.086  0.00  0.00    -0.083 HD
ENDBRANCH   2  15
TORSDOF 2
ENDMDL
