MODEL 1
REMARK VINA RESULT:      -7.9      0.000      0.000
REMARK  Name = 4158
REMARK  4 active torsions:
REMARK  status: ('A' for Active; 'I' for Inactive)
REMARK    1  A    between atoms: C_1  and  C_3
REMARK    2  A    between atoms: C_1  and  C_10
REMARK    3  A    between atoms: C_1  and  C_17
REMARK    4  A    between atoms: C_17  and  O_18
REMARK                            x       y       z     vdW  Elec       q    Type
REMARK                         _______ _______ _______ _____ _____    ______ ____
ROOT
ATOM      1  C   UNL     1      35.310 -17.866 -22.511  0.00  0.00    +0.102 C 
ENDROOT
BRANCH   1   3
ATOM      2  N   UNL     1      33.466 -16.269 -22.600  0.00  0.00    +0.386 N 
ATOM      3  C   UNL     1      34.838 -16.468 -22.114  0.00  0.00    -0.047 C 
ATOM      4  C   UNL     1      34.907 -16.288 -20.591  0.00  0.00    -0.021 C 
ATOM      5  C   UNL     1      34.363 -14.926 -20.170  0.00  0.00    -0.004 C 
ATOM      6  C   UNL     1      32.972 -14.701 -20.755  0.00  0.00    -0.023 C 
ATOM      7  C   UNL     1      32.962 -14.937 -22.263  0.00  0.00    -0.082 C 
ATOM      8  H   UNL     1      32.860 -16.970 -22.173  0.00  0.00    -0.084 HD
ATOM      9  H   UNL     1      33.471 -16.360 -23.616  0.00  0.00    -0.084 HD
ENDBRANCH   1   3
BRANCH   1  10
ATOM     10  C   UNL     1      34.782 -18.944 -21.577  0.00  0.00    -0.014 C 
ATOM     11  C   UNL     1      33.418 -19.074 -21.411  0.00  0.00    -0.004 C 
ATOM     12  C   UNL     1      35.683 -19.760 -20.922  0.00  0.00    -0.004 C 
ATOM     13  C   UNL     1      32.934 -20.063 -20.554  0.00  0.00    -0.000 C 
ATOM     14  C   UNL     1      35.198 -20.748 -20.065  0.00  0.00    -0.000 C 
ATOM     15  C   UNL     1      33.824 -20.899 -19.881  0.00  0.00    -0.000 C 
ENDBRANCH   1  10
BRANCH   1  17
ATOM     16  O   UNL     1      34.550 -19.229 -24.393  0.00  0.00    -0.250 OA
ATOM     17  C   UNL     1      34.954 -18.155 -23.965  0.00  0.00    +0.319 C 
BRANCH  17  18
ATOM     18  O   UNL     1      35.136 -17.024 -24.712  0.00  0.00    -0.444 OA
ATOM     19  C   UNL     1      34.115 -16.750 -25.678  0.00  0.00    +0.256 C 
ENDBRANCH  17  18
ENDBRANCH   1  17
TORSDOF 4
ENDMDL
MODEL 2
REMARK VINA RESULT:      -7.8      1.123      1.445
REMARK  Name = 4158
REMARK  4 active torsions:
REMARK  status: ('A' for Active; 'I' for Inactive)
REMARK    1  A    between atoms: C_1  and  C_3
REMARK    2  A    between atoms: C_1  and  C_10
REMARK    3  A    between atoms: C_1  and  C_17
REMARK    4  A    between atoms: C_17  and  O_18
REMARK                            x       y       z     vdW  Elec       q    Type
REMARK                         _______ _______ _______ _____ _____    ______ ____
ROOT
ATOM      1  C   UNL     1      35.401 -18.084 -21.671  0.00  0.00    +0.102 C 
ENDROOT
BRANCH   1   3
ATOM      2  N   UNL     1      35.049 -15.674 -21.530  0.00  0.00    +0.386 N 
ATOM      3  C   UNL     1      34.587 -16.971 -21.017  0.00  0.00    -0.047 C 
ATOM      4  C   UNL     1      33.089 -17.163 -21.297  0.00  0.00    -0.021 C 
ATOM      5  C   UNL     1      32.267 -16.014 -20.719  0.00  0.00    -0.004 C 
ATOM      6  C   UNL     1      32.814 -14.672 -21.194  0.00  0.00    -0.023 C 
ATOM      7  C   UNL     1      34.314 -14.562 -20.927  0.00  0.00    -0.082 C 
ATOM      8  H   UNL     1      34.913 -15.650 -22.541  0.00  0.00    -0.084 HD
ATOM      9  H   UNL     1      36.035 -15.570 -21.291  0.00  0.00    -0.084 HD
ENDBRANCH   1   3
BRANCH   1  10
ATOM     10  C   UNL     1      35.357 -19.381 -20.877  0.00  0.00    -0.014 C 
ATOM     11  C   UNL     1      34.130 -19.938 -20.576  0.00  0.00    -0.004 C 
ATOM     12  C   UNL     1      36.545 -19.961 -20.479  0.00  0.00    -0.004 C 
ATOM     13  C   UNL     1      34.090 -21.126 -19.846  0.00  0.00    -0.000 C 
ATOM     14  C   UNL     1      36.503 -21.149 -19.749  0.00  0.00    -0.000 C 
ATOM     15  C   UNL     1      35.276 -21.731 -19.433  0.00  0.00    -0.000 C 
ENDBRANCH   1  10
BRANCH   1  17
ATOM     16  O   UNL     1      34.358 -19.274 -23.535  0.00  0.00    -0.250 OA
ATOM     17  C   UNL     1      34.956 -18.292 -23.115  0.00  0.00    +0.319 C 
BRANCH  17  18
ATOM     18  O   UNL     1      35.308 -17.202 -23.861  0.00  0.00    -0.444 OA
ATOM     19  C   UNL     1      34.522 -16.976 -25.036  0.00  0.00    +0.256 C 
ENDBRANCH  17  18
ENDBRANCH   1  17
TORSDOF 4
ENDMDL
MODEL 3
REMARK VINA RESULT:      -7.7      2.108      5.084
REMARK  Name = 4158
REMARK  4 active torsions:
REMARK  status: ('A' for Active; 'I' for Inactive)
REMARK    1  A    between atoms: C_1  and  C_3
REMARK    2  A    between atoms: C_1  and  C_10
REMARK    3  A    between atoms: C_1  and  C_17
REMARK    4  A    between atoms: C_17  and  O_18
REMARK                            x       y       z     vdW  Elec       q    Type
REMARK                         _______ _______ _______ _____ _____    ______ ____
ROOT
ATOM      1  C   UNL     1      35.220 -17.209 -21.826  0.00  0.00    +0.102 C 
ENDROOT
BRANCH   1   3
ATOM      2  N   UNL     1      36.130 -19.119 -20.610  0.00  0.00    +0.386 N 
ATOM      3  C   UNL     1      35.077 -18.703 -21.546  0.00  0.00    -0.047 C 
ATOM      4  C   UNL     1      33.686 -19.013 -20.973  0.00  0.00    -0.021 C 
ATOM      5  C   UNL     1      33.554 -20.490 -20.612  0.00  0.00    -0.004 C 
ATOM      6  C   UNL     1      34.704 -20.926 -19.709  0.00  0.00    -0.023 C 
ATOM      7  C   UNL     1      36.055 -20.550 -20.314  0.00  0.00    -0.082 C 
ATOM      8  H   UNL     1      36.025 -18.596 -19.741  0.00  0.00    -0.084 HD
ATOM      9  H   UNL     1      37.033 -18.931 -21.043  0.00  0.00    -0.084 HD
ENDBRANCH   1   3
BRANCH   1  10
ATOM     10  C   UNL     1      34.726 -16.827 -23.213  0.00  0.00    -0.014 C 
ATOM     11  C   UNL     1      34.679 -17.796 -24.195  0.00  0.00    -0.004 C 
ATOM     12  C   UNL     1      34.342 -15.522 -23.449  0.00  0.00    -0.004 C 
ATOM     13  C   UNL     1      34.227 -17.445 -25.468  0.00  0.00    -0.000 C 
ATOM     14  C   UNL     1      33.890 -15.172 -24.722  0.00  0.00    -0.000 C 
ATOM     15  C   UNL     1      33.833 -16.133 -25.730  0.00  0.00    -0.000 C 
ENDBRANCH   1  10
BRANCH   1  17
ATOM     16  O   UNL     1      35.090 -15.867 -19.786  0.00  0.00    -0.250 OA
ATOM     17  C   UNL     1      34.528 -16.395 -20.737  0.00  0.00    +0.319 C 
BRANCH  17  18
ATOM     18  O   UNL     1      33.188 -16.330 -20.999  0.00  0.00    -0.444 OA
ATOM     19  C   UNL     1      32.501 -15.208 -20.434  0.00  0.00    +0.256 C 
ENDBRANCH  17  18
ENDBRANCH   1  17
TORSDOF 4
ENDMDL
MODEL 4
REMARK VINA RESULT:      -7.6      2.169      3.799
REMARK  Name = 4158
REMARK  4 active torsions:
REMARK  status: ('A' for Active; 'I' for Inactive)
REMARK    1  A    between atoms: C_1  and  C_3
REMARK    2  A    between atoms: C_1  and  C_10
REMARK    3  A    between atoms: C_1  and  C_17
REMARK    4  A    between atoms: C_17  and  O_18
REMARK                            x       y       z     vdW  Elec       q    Type
REMARK                         _______ _______ _______ _____ _____    ______ ____
ROOT
ATOM      1  C   UNL     1      33.726 -16.577 -21.643  0.00  0.00    +0.102 C 
ENDROOT
BRANCH   1   3
ATOM      2  N   UNL     1      34.167 -17.188 -23.964  0.00  0.00    +0.386 N 
ATOM      3  C   UNL     1      34.176 -16.070 -23.011  0.00  0.00    -0.047 C 
ATOM      4  C   UNL     1      33.260 -14.936 -23.494  0.00  0.00    -0.021 C 
ATOM      5  C   UNL     1      33.646 -14.473 -24.896  0.00  0.00    -0.004 C 
ATOM      6  C   UNL     1      33.715 -15.659 -25.853  0.00  0.00    -0.023 C 
ATOM      7  C   UNL     1      34.605 -16.767 -25.295  0.00  0.00    -0.082 C 
ATOM      8  H   UNL     1      33.218 -17.558 -24.030  0.00  0.00    -0.084 HD
ATOM      9  H   UNL     1      34.814 -17.900 -23.626  0.00  0.00    -0.084 HD
ENDBRANCH   1   3
BRANCH   1  10
ATOM     10  C   UNL     1      34.386 -17.895 -21.265  0.00  0.00    -0.014 C 
ATOM     11  C   UNL     1      35.764 -17.976 -21.266  0.00  0.00    -0.004 C 
ATOM     12  C   UNL     1      33.586 -18.970 -20.933  0.00  0.00    -0.004 C 
ATOM     13  C   UNL     1      36.368 -19.185 -20.920  0.00  0.00    -0.000 C 
ATOM     14  C   UNL     1      34.192 -20.178 -20.587  0.00  0.00    -0.000 C 
ATOM     15  C   UNL     1      35.582 -20.285 -20.581  0.00  0.00    -0.000 C 
ENDBRANCH   1  10
BRANCH   1  17
ATOM     16  O   UNL     1      35.044 -15.091 -20.218  0.00  0.00    -0.250 OA
ATOM     17  C   UNL     1      33.951 -15.507 -20.580  0.00  0.00    +0.319 C 
BRANCH  17  18
ATOM     18  O   UNL     1      32.744 -15.072 -20.110  0.00  0.00    -0.444 OA
ATOM     19  C   UNL     1      32.460 -13.685 -20.325  0.00  0.00    +0.256 C 
ENDBRANCH  17  18
ENDBRANCH   1  17
TORSDOF 4
ENDMDL
MODEL 5
REMARK VINA RESULT:      -7.5      1.554      4.485
REMARK  Name = 4158
REMARK  4 active torsions:
REMARK  status: ('A' for Active; 'I' for Inactive)
REMARK    1  A    between atoms: C_1  and  C_3
REMARK    2  A    between atoms: C_1  and  C_10
REMARK    3  A    between atoms: C_1  and  C_17
REMARK    4  A    between atoms: C_17  and  O_18
REMARK                            x       y       z     vdW  Elec       q    Type
REMARK                         _______ _______ _______ _____ _____    ______ ____
ROOT
ATOM      1  C   UNL     1      34.397 -18.362 -22.260  0.00  0.00    +0.102 C 
ENDROOT
BRANCH   1   3
ATOM      2  N   UNL     1      33.024 -19.899 -20.953  0.00  0.00    +0.386 N 
ATOM      3  C   UNL     1      34.307 -19.184 -20.976  0.00  0.00    -0.047 C 
ATOM      4  C   UNL     1      35.481 -20.171 -20.886  0.00  0.00    -0.021 C 
ATOM      5  C   UNL     1      35.363 -21.058 -19.650  0.00  0.00    -0.004 C 
ATOM      6  C   UNL     1      33.993 -21.725 -19.597  0.00  0.00    -0.023 C 
ATOM      7  C   UNL     1      32.872 -20.697 -19.735  0.00  0.00    -0.082 C 
ATOM      8  H   UNL     1      32.976 -20.519 -21.762  0.00  0.00    -0.084 HD
ATOM      9  H   UNL     1      32.275 -19.209 -20.977  0.00  0.00    -0.084 HD
ENDBRANCH   1   3
BRANCH   1  10
ATOM     10  C   UNL     1      34.372 -16.864 -21.993  0.00  0.00    -0.014 C 
ATOM     11  C   UNL     1      34.208 -16.000 -23.056  0.00  0.00    -0.004 C 
ATOM     12  C   UNL     1      34.516 -16.414 -20.696  0.00  0.00    -0.004 C 
ATOM     13  C   UNL     1      34.187 -14.626 -22.812  0.00  0.00    -0.000 C 
ATOM     14  C   UNL     1      34.495 -15.041 -20.452  0.00  0.00    -0.000 C 
ATOM     15  C   UNL     1      34.330 -14.147 -21.510  0.00  0.00    -0.000 C 
ENDBRANCH   1  10
BRANCH   1  17
ATOM     16  O   UNL     1      36.776 -18.445 -22.818  0.00  0.00    -0.250 OA
ATOM     17  C   UNL     1      35.622 -18.771 -23.070  0.00  0.00    +0.319 C 
BRANCH  17  18
ATOM     18  O   UNL     1      35.236 -19.574 -24.106  0.00  0.00    -0.444 OA
ATOM     19  C   UNL     1      34.280 -19.003 -25.008  0.00  0.00    +0.256 C 
ENDBRANCH  17  18
ENDBRANCH   1  17
TORSDOF 4
ENDMDL
MODEL 6
REMARK VINA RESULT:      -7.5      7.847     10.963
REMARK  Name = 4158
REMARK  4 active torsions:
REMARK  status: ('A' for Active; 'I' for Inactive)
REMARK    1  A    between atoms: C_1  and  C_3
REMARK    2  A    between atoms: C_1  and  C_10
REMARK    3  A    between atoms: C_1  and  C_17
REMARK    4  A    between atoms: C_17  and  O_18
REMARK                            x       y       z     vdW  Elec       q    Type
REMARK                         _______ _______ _______ _____ _____    ______ ____
ROOT
ATOM      1  C   UNL     1      32.267  -8.317 -23.308  0.00  0.00    +0.102 C 
ENDROOT
BRANCH   1   3
ATOM      2  N   UNL     1      31.469 -10.441 -22.409  0.00  0.00    +0.386 N 
ATOM      3  C   UNL     1      31.603  -9.007 -22.119  0.00  0.00    -0.047 C 
ATOM      4  C   UNL     1      32.423  -8.785 -20.840  0.00  0.00    -0.021 C 
ATOM      5  C   UNL     1      31.817  -9.535 -19.657  0.00  0.00    -0.004 C 
ATOM      6  C   UNL     1      31.606 -11.005 -20.006  0.00  0.00    -0.023 C 
ATOM      7  C   UNL     1      30.822 -11.156 -21.308  0.00  0.00    -0.082 C 
ATOM      8  H   UNL     1      32.397 -10.835 -22.559  0.00  0.00    -0.084 HD
ATOM      9  H   UNL     1      30.888 -10.544 -23.241  0.00  0.00    -0.084 HD
ENDBRANCH   1   3
BRANCH   1  10
ATOM     10  C   UNL     1      31.875  -6.852 -23.425  0.00  0.00    -0.014 C 
ATOM     11  C   UNL     1      32.171  -6.172 -24.589  0.00  0.00    -0.004 C 
ATOM     12  C   UNL     1      31.234  -6.246 -22.362  0.00  0.00    -0.004 C 
ATOM     13  C   UNL     1      31.812  -4.828 -24.695  0.00  0.00    -0.000 C 
ATOM     14  C   UNL     1      30.876  -4.902 -22.470  0.00  0.00    -0.000 C 
ATOM     15  C   UNL     1      31.164  -4.194 -23.636  0.00  0.00    -0.000 C 
ENDBRANCH   1  10
BRANCH   1  17
ATOM     16  O   UNL     1      34.575  -7.643 -22.863  0.00  0.00    -0.250 OA
ATOM     17  C   UNL     1      33.781  -8.493 -23.247  0.00  0.00    +0.319 C 
BRANCH  17  18
ATOM     18  O   UNL     1      34.111  -9.751 -23.667  0.00  0.00    -0.444 OA
ATOM     19  C   UNL     1      35.109  -9.820 -24.691  0.00  0.00    +0.256 C 
ENDBRANCH  17  18
ENDBRANCH   1  17
TORSDOF 4
ENDMDL
MODEL 7
REMARK VINA RESULT:      -7.5      5.988      8.656
REMARK  Name = 4158
REMARK  4 active torsions:
REMARK  status: ('A' for Active; 'I' for Inactive)
REMARK    1  A    between atoms: C_1  and  C_3
REMARK    2  A    between atoms: C_1  and  C_10
REMARK    3  A    between atoms: C_1  and  C_17
REMARK    4  A    between atoms: C_17  and  O_18
REMARK                            x       y       z     vdW  Elec       q    Type
REMARK                         _______ _______ _______ _____ _____    ______ ____
ROOT
ATOM      1  C   UNL     1      33.675 -22.806 -16.572  0.00  0.00    +0.102 C 
ENDROOT
BRANCH   1   3
ATOM      2  N   UNL     1      32.587 -22.848 -14.388  0.00  0.00    +0.386 N 
ATOM      3  C   UNL     1      32.638 -23.509 -15.699  0.00  0.00    -0.047 C 
ATOM      4  C   UNL     1      31.260 -23.485 -16.374  0.00  0.00    -0.021 C 
ATOM      5  C   UNL     1      30.195 -24.112 -15.479  0.00  0.00    -0.004 C 
ATOM      6  C   UNL     1      30.214 -23.471 -14.094  0.00  0.00    -0.023 C 
ATOM      7  C   UNL     1      31.619 -23.488 -13.497  0.00  0.00    -0.082 C 
ATOM      8  H   UNL     1      32.320 -21.872 -14.520  0.00  0.00    -0.084 HD
ATOM      9  H   UNL     1      33.510 -22.919 -13.959  0.00  0.00    -0.084 HD
ENDBRANCH   1   3
BRANCH   1  10
ATOM     10  C   UNL     1      35.102 -23.126 -16.154  0.00  0.00    -0.014 C 
ATOM     11  C   UNL     1      35.338 -24.258 -15.401  0.00  0.00    -0.004 C 
ATOM     12  C   UNL     1      36.118 -22.274 -16.538  0.00  0.00    -0.004 C 
ATOM     13  C   UNL     1      36.647 -24.551 -15.016  0.00  0.00    -0.000 C 
ATOM     14  C   UNL     1      37.426 -22.568 -16.153  0.00  0.00    -0.000 C 
ATOM     15  C   UNL     1      37.690 -23.706 -15.392  0.00  0.00    -0.000 C 
ENDBRANCH   1  10
BRANCH   1  17
ATOM     16  O   UNL     1      33.741 -24.171 -18.599  0.00  0.00    -0.250 OA
ATOM     17  C   UNL     1      33.434 -23.123 -18.044  0.00  0.00    +0.319 C 
BRANCH  17  18
ATOM     18  O   UNL     1      32.803 -22.067 -18.641  0.00  0.00    -0.444 OA
ATOM     19  C   UNL     1      33.563 -21.377 -19.639  0.00  0.00    +0.256 C 
ENDBRANCH  17  18
ENDBRANCH   1  17
TORSDOF 4
ENDMDL
MODEL 8
REMARK VINA RESULT:      -7.3      7.933     10.182
REMARK  Name = 4158
REMARK  4 active torsions:
REMARK  status: ('A' for Active; 'I' for Inactive)
REMARK    1  A    between atoms: C_1  and  C_3
REMARK    2  A    between atoms: C_1  and  C_10
REMARK    3  A    between atoms: C_1  and  C_17
REMARK    4  A    between atoms: C_17  and  O_18
REMARK                            x       y       z     vdW  Elec       q    Type
REMARK                         _______ _______ _______ _____ _____    ______ ____
ROOT
ATOM      1  C   UNL     1      34.697 -23.517 -14.761  0.00  0.00    +0.102 C 
ENDROOT
BRANCH   1   3
ATOM      2  N   UNL     1      32.936 -24.793 -13.653  0.00  0.00    +0.386 N 
ATOM      3  C   UNL     1      33.239 -23.966 -14.829  0.00  0.00    -0.047 C 
ATOM      4  C   UNL     1      32.304 -22.749 -14.893  0.00  0.00    -0.021 C 
ATOM      5  C   UNL     1      30.839 -23.177 -14.880  0.00  0.00    -0.004 C 
ATOM      6  C   UNL     1      30.562 -24.105 -13.701  0.00  0.00    -0.023 C 
ATOM      7  C   UNL     1      31.552 -25.268 -13.669  0.00  0.00    -0.082 C 
ATOM      8  H   UNL     1      33.085 -24.237 -12.811  0.00  0.00    -0.084 HD
ATOM      9  H   UNL     1      33.551 -25.606 -13.669  0.00  0.00    -0.084 HD
ENDBRANCH   1   3
BRANCH   1  10
ATOM     10  C   UNL     1      35.628 -24.632 -14.307  0.00  0.00    -0.014 C 
ATOM     11  C   UNL     1      35.960 -25.629 -15.200  0.00  0.00    -0.004 C 
ATOM     12  C   UNL     1      36.111 -24.612 -13.014  0.00  0.00    -0.004 C 
ATOM     13  C   UNL     1      36.812 -26.652 -14.783  0.00  0.00    -0.000 C 
ATOM     14  C   UNL     1      36.964 -25.635 -12.598  0.00  0.00    -0.000 C 
ATOM     15  C   UNL     1      37.314 -26.654 -13.482  0.00  0.00    -0.000 C 
ENDBRANCH   1  10
BRANCH   1  17
ATOM     16  O   UNL     1      34.607 -23.157 -17.177  0.00  0.00    -0.250 OA
ATOM     17  C   UNL     1      35.134 -22.926 -16.097  0.00  0.00    +0.319 C 
BRANCH  17  18
ATOM     18  O   UNL     1      36.192 -22.082 -15.897  0.00  0.00    -0.444 OA
ATOM     19  C   UNL     1      37.108 -21.970 -16.991  0.00  0.00    +0.256 C 
ENDBRANCH  17  18
ENDBRANCH   1  17
TORSDOF 4
ENDMDL
MODEL 9
REMARK VINA RESULT:      -7.3      2.479      5.673
REMARK  Name = 4158
REMARK  4 active torsions:
REMARK  status: ('A' for Active; 'I' for Inactive)
REMARK    1  A    between atoms: C_1  and  C_3
REMARK    2  A    between atoms: C_1  and  C_10
REMARK    3  A    between atoms: C_1  and  C_17
REMARK    4  A    between atoms: C_17  and  O_18
REMARK                            x       y       z     vdW  Elec       q    Type
REMARK                         _______ _______ _______ _____ _____    ______ ____
ROOT
ATOM      1  C   UNL     1      34.681 -15.490 -22.684  0.00  0.00    +0.102 C 
ENDROOT
BRANCH   1   3
ATOM      2  N   UNL     1      35.519 -17.686 -23.340  0.00  0.00    +0.386 N 
ATOM      3  C   UNL     1      34.402 -16.991 -22.685  0.00  0.00    -0.047 C 
ATOM      4  C   UNL     1      34.209 -17.505 -21.251  0.00  0.00    -0.021 C 
ATOM      5  C   UNL     1      34.011 -19.018 -21.228  0.00  0.00    -0.004 C 
ATOM      6  C   UNL     1      35.134 -19.717 -21.987  0.00  0.00    -0.023 C 
ATOM      7  C   UNL     1      35.302 -19.132 -23.387  0.00  0.00    -0.082 C 
ATOM      8  H   UNL     1      36.376 -17.496 -22.822  0.00  0.00    -0.084 HD
ATOM      9  H   UNL     1      35.588 -17.343 -24.299  0.00  0.00    -0.084 HD
ENDBRANCH   1   3
BRANCH   1  10
ATOM     10  C   UNL     1      34.102 -14.789 -23.904  0.00  0.00    -0.014 C 
ATOM     11  C   UNL     1      33.636 -15.554 -24.954  0.00  0.00    -0.004 C 
ATOM     12  C   UNL     1      34.060 -13.410 -23.924  0.00  0.00    -0.004 C 
ATOM     13  C   UNL     1      33.106 -14.912 -26.074  0.00  0.00    -0.000 C 
ATOM     14  C   UNL     1      33.530 -12.768 -25.044  0.00  0.00    -0.000 C 
ATOM     15  C   UNL     1      33.053 -13.519 -26.118  0.00  0.00    -0.000 C 
ENDBRANCH   1  10
BRANCH   1  17
ATOM     16  O   UNL     1      34.901 -14.550 -20.437  0.00  0.00    -0.250 OA
ATOM     17  C   UNL     1      34.190 -14.859 -21.385  0.00  0.00    +0.319 C 
BRANCH  17  18
ATOM     18  O   UNL     1      32.837 -14.672 -21.452  0.00  0.00    -0.444 OA
ATOM     19  C   UNL     1      32.333 -13.537 -20.740  0.00  0.00    +0.256 C 
ENDBRANCH  17  18
ENDBRANCH   1  17
TORSDOF 4
ENDMDL
