MODEL 1
REMARK VINA RESULT:     -10.5      0.000      0.000
REMARK  Name = 5287845
REMARK  0 active torsions:
REMARK  status: ('A' for Active; 'I' for Inactive)
REMARK                            x       y       z     vdW  Elec       q    Type
REMARK                         _______ _______ _______ _____ _____    ______ ____
ROOT
ATOM      1 BR   UNL     1      35.563 -18.870 -20.980  0.00  0.00    -0.049 Br
ATOM      2  O   UNL     1      33.458 -15.041 -20.969  0.00  0.00    -0.285 OA
ATOM      3  O   UNL     1      32.651 -13.825 -26.030  0.00  0.00    -0.270 OA
ATOM      4  N   UNL     1      32.150 -12.781 -23.294  0.00  0.00    -0.310 N 
ATOM      5  N   UNL     1      33.791 -15.891 -25.912  0.00  0.00    -0.280 N 
ATOM      6  C   UNL     1      33.284 -14.872 -23.926  0.00  0.00    +0.071 C 
ATOM      7  C   UNL     1      32.808 -13.965 -23.071  0.00  0.00    +0.092 C 
ATOM      8  C   UNL     1      33.979 -16.121 -23.632  0.00  0.00    +0.020 C 
ATOM      9  C   UNL     1      34.264 -16.699 -24.873  0.00  0.00    +0.051 C 
ATOM     10  C   UNL     1      32.296 -12.936 -21.007  0.00  0.00    +0.054 C 
ATOM     11  C   UNL     1      31.844 -12.166 -22.086  0.00  0.00    +0.051 C 
ATOM     12  C   UNL     1      32.939 -14.131 -21.581  0.00  0.00    +0.210 C 
ATOM     13  C   UNL     1      33.170 -14.739 -25.417  0.00  0.00    +0.251 C 
ATOM     14  C   UNL     1      34.355 -16.747 -22.458  0.00  0.00    +0.008 C 
ATOM     15  C   UNL     1      34.924 -17.905 -24.992  0.00  0.00    +0.015 C 
ATOM     16  C   UNL     1      32.128 -12.565 -19.690  0.00  0.00    +0.004 C 
ATOM     17  C   UNL     1      31.193 -10.971 -21.859  0.00  0.00    +0.015 C 
ATOM     18  C   UNL     1      35.026 -17.971 -22.556  0.00  0.00    +0.035 C 
ATOM     19  C   UNL     1      35.307 -18.544 -23.810  0.00  0.00    +0.008 C 
ATOM     20  C   UNL     1      31.470 -11.356 -19.459  0.00  0.00    +0.000 C 
ATOM     21  C   UNL     1      31.008 -10.567 -20.531  0.00  0.00    +0.001 C 
ATOM     22  H   UNL     1      31.927 -12.419 -24.181  0.00  0.00    +0.152 HD
ATOM     23  H   UNL     1      33.883 -16.105 -26.869  0.00  0.00    +0.155 HD
ENDROOT
TORSDOF 0
ENDMDL
MODEL 2
REMARK VINA RESULT:     -10.2      8.805     11.128
REMARK  Name = 5287845
REMARK  0 active torsions:
REMARK  status: ('A' for Active; 'I' for Inactive)
REMARK                            x       y       z     vdW  Elec       q    Type
REMARK                         _______ _______ _______ _____ _____    ______ ____
ROOT
ATOM      1 BR   UNL     1      33.321 -20.085 -21.295  0.00  0.00    -0.049 Br
ATOM      2  O   UNL     1      32.095 -22.429 -17.817  0.00  0.00    -0.285 OA
ATOM      3  O   UNL     1      36.538 -23.671 -15.276  0.00  0.00    -0.270 OA
ATOM      4  N   UNL     1      33.596 -24.041 -15.102  0.00  0.00    -0.310 N 
ATOM      5  N   UNL     1      37.082 -22.394 -17.188  0.00  0.00    -0.280 N 
ATOM      6  C   UNL     1      34.863 -22.822 -16.825  0.00  0.00    +0.071 C 
ATOM      7  C   UNL     1      33.759 -23.294 -16.242  0.00  0.00    +0.092 C 
ATOM      8  C   UNL     1      34.979 -22.029 -18.044  0.00  0.00    +0.020 C 
ATOM      9  C   UNL     1      36.347 -21.797 -18.218  0.00  0.00    +0.051 C 
ATOM     10  C   UNL     1      31.463 -23.720 -15.890  0.00  0.00    +0.054 C 
ATOM     11  C   UNL     1      32.248 -24.298 -14.884  0.00  0.00    +0.051 C 
ATOM     12  C   UNL     1      32.390 -23.046 -16.815  0.00  0.00    +0.210 C 
ATOM     13  C   UNL     1      36.244 -23.051 -16.281  0.00  0.00    +0.251 C 
ATOM     14  C   UNL     1      34.058 -21.530 -18.946  0.00  0.00    +0.008 C 
ATOM     15  C   UNL     1      36.843 -21.070 -19.281  0.00  0.00    +0.015 C 
ATOM     16  C   UNL     1      30.088 -23.818 -15.926  0.00  0.00    +0.004 C 
ATOM     17  C   UNL     1      31.652 -25.008 -13.863  0.00  0.00    +0.015 C 
ATOM     18  C   UNL     1      34.540 -20.790 -20.031  0.00  0.00    +0.035 C 
ATOM     19  C   UNL     1      35.919 -20.563 -20.197  0.00  0.00    +0.008 C 
ATOM     20  C   UNL     1      29.483 -24.536 -14.893  0.00  0.00    +0.000 C 
ATOM     21  C   UNL     1      30.256 -25.125 -13.873  0.00  0.00    +0.001 C 
ATOM     22  H   UNL     1      34.328 -24.349 -14.522  0.00  0.00    +0.152 HD
ATOM     23  H   UNL     1      38.063 -22.357 -17.112  0.00  0.00    +0.155 HD
ENDROOT
TORSDOF 0
ENDMDL
MODEL 3
REMARK VINA RESULT:     -10.1      7.945     10.362
REMARK  Name = 5287845
REMARK  0 active torsions:
REMARK  status: ('A' for Active; 'I' for Inactive)
REMARK                            x       y       z     vdW  Elec       q    Type
REMARK                         _______ _______ _______ _____ _____    ______ ____
ROOT
ATOM      1 BR   UNL     1      38.015 -24.366 -14.827  0.00  0.00    -0.049 Br
ATOM      2  O   UNL     1      35.968 -22.195 -18.019  0.00  0.00    -0.285 OA
ATOM      3  O   UNL     1      30.818 -22.743 -17.063  0.00  0.00    -0.270 OA
ATOM      4  N   UNL     1      32.688 -21.482 -18.996  0.00  0.00    -0.310 N 
ATOM      5  N   UNL     1      32.033 -23.885 -15.388  0.00  0.00    -0.280 N 
ATOM      6  C   UNL     1      33.250 -22.822 -17.009  0.00  0.00    +0.071 C 
ATOM      7  C   UNL     1      33.522 -22.099 -18.097  0.00  0.00    +0.092 C 
ATOM      8  C   UNL     1      34.182 -23.457 -16.084  0.00  0.00    +0.020 C 
ATOM      9  C   UNL     1      33.390 -24.089 -15.120  0.00  0.00    +0.051 C 
ATOM     10  C   UNL     1      34.803 -21.010 -19.756  0.00  0.00    +0.054 C 
ATOM     11  C   UNL     1      33.430 -20.838 -19.977  0.00  0.00    +0.051 C 
ATOM     12  C   UNL     1      34.935 -21.828 -18.538  0.00  0.00    +0.210 C 
ATOM     13  C   UNL     1      31.853 -23.111 -16.540  0.00  0.00    +0.251 C 
ATOM     14  C   UNL     1      35.561 -23.525 -16.019  0.00  0.00    +0.008 C 
ATOM     15  C   UNL     1      33.933 -24.801 -14.069  0.00  0.00    +0.015 C 
ATOM     16  C   UNL     1      35.774 -20.477 -20.578  0.00  0.00    +0.004 C 
ATOM     17  C   UNL     1      32.991 -20.106 -21.061  0.00  0.00    +0.015 C 
ATOM     18  C   UNL     1      36.132 -24.242 -14.962  0.00  0.00    +0.035 C 
ATOM     19  C   UNL     1      35.326 -24.874 -13.997  0.00  0.00    +0.008 C 
ATOM     20  C   UNL     1      35.330 -19.737 -21.674  0.00  0.00    +0.000 C 
ATOM     21  C   UNL     1      33.954 -19.553 -21.914  0.00  0.00    +0.001 C 
ATOM     22  H   UNL     1      31.705 -21.495 -18.952  0.00  0.00    +0.152 HD
ATOM     23  H   UNL     1      31.297 -24.241 -14.838  0.00  0.00    +0.155 HD
ENDROOT
TORSDOF 0
ENDMDL
MODEL 4
REMARK VINA RESULT:      -9.8     10.489     12.366
REMARK  Name = 5287845
REMARK  0 active torsions:
REMARK  status: ('A' for Active; 'I' for Inactive)
REMARK                            x       y       z     vdW  Elec       q    Type
REMARK                         _______ _______ _______ _____ _____    ______ ____
ROOT
ATOM      1 BR   UNL     1      36.127 -21.316 -19.389  0.00  0.00    -0.049 Br
ATOM      2  O   UNL     1      32.755 -22.971 -17.156  0.00  0.00    -0.285 OA
ATOM      3  O   UNL     1      34.705 -24.470 -12.499  0.00  0.00    -0.270 OA
ATOM      4  N   UNL     1      32.155 -24.394 -14.021  0.00  0.00    -0.310 N 
ATOM      5  N   UNL     1      36.451 -23.554 -13.800  0.00  0.00    -0.280 N 
ATOM      6  C   UNL     1      34.371 -23.612 -14.752  0.00  0.00    +0.071 C 
ATOM      7  C   UNL     1      33.063 -23.840 -14.887  0.00  0.00    +0.092 C 
ATOM      8  C   UNL     1      35.293 -23.015 -15.712  0.00  0.00    +0.020 C 
ATOM      9  C   UNL     1      36.542 -23.004 -15.084  0.00  0.00    +0.051 C 
ATOM     10  C   UNL     1      30.926 -23.886 -15.893  0.00  0.00    +0.054 C 
ATOM     11  C   UNL     1      30.893 -24.427 -14.601  0.00  0.00    +0.051 C 
ATOM     12  C   UNL     1      32.320 -23.481 -16.146  0.00  0.00    +0.210 C 
ATOM     13  C   UNL     1      35.143 -23.957 -13.511  0.00  0.00    +0.251 C 
ATOM     14  C   UNL     1      35.144 -22.519 -16.994  0.00  0.00    +0.008 C 
ATOM     15  C   UNL     1      37.673 -22.506 -15.697  0.00  0.00    +0.015 C 
ATOM     16  C   UNL     1      29.814 -23.794 -16.702  0.00  0.00    +0.004 C 
ATOM     17  C   UNL     1      29.707 -24.901 -14.079  0.00  0.00    +0.015 C 
ATOM     18  C   UNL     1      36.278 -22.008 -17.634  0.00  0.00    +0.035 C 
ATOM     19  C   UNL     1      37.530 -22.002 -16.992  0.00  0.00    +0.008 C 
ATOM     20  C   UNL     1      28.613 -24.272 -16.176  0.00  0.00    +0.000 C 
ATOM     21  C   UNL     1      28.560 -24.821 -14.879  0.00  0.00    +0.001 C 
ATOM     22  H   UNL     1      32.366 -24.722 -13.117  0.00  0.00    +0.152 HD
ATOM     23  H   UNL     1      37.211 -23.645 -13.180  0.00  0.00    +0.155 HD
ENDROOT
TORSDOF 0
ENDMDL
MODEL 5
REMARK VINA RESULT:      -9.7      9.267     12.029
REMARK  Name = 5287845
REMARK  0 active torsions:
REMARK  status: ('A' for Active; 'I' for Inactive)
REMARK                            x       y       z     vdW  Elec       q    Type
REMARK                         _______ _______ _______ _____ _____    ______ ____
ROOT
ATOM      1 BR   UNL     1      37.041 -20.417 -20.335  0.00  0.00    -0.049 Br
ATOM      2  O   UNL     1      37.077 -22.798 -16.671  0.00  0.00    -0.285 OA
ATOM      3  O   UNL     1      32.051 -24.049 -15.714  0.00  0.00    -0.270 OA
ATOM      4  N   UNL     1      34.780 -24.432 -14.603  0.00  0.00    -0.310 N 
ATOM      5  N   UNL     1      32.154 -22.752 -17.686  0.00  0.00    -0.280 N 
ATOM      6  C   UNL     1      34.137 -23.192 -16.630  0.00  0.00    +0.071 C 
ATOM      7  C   UNL     1      34.993 -23.673 -15.727  0.00  0.00    +0.092 C 
ATOM      8  C   UNL     1      34.421 -22.387 -17.813  0.00  0.00    +0.020 C 
ATOM      9  C   UNL     1      33.183 -22.148 -18.417  0.00  0.00    +0.051 C 
ATOM     10  C   UNL     1      37.053 -24.113 -14.659  0.00  0.00    +0.054 C 
ATOM     11  C   UNL     1      35.985 -24.698 -13.966  0.00  0.00    +0.051 C 
ATOM     12  C   UNL     1      36.474 -23.425 -15.825  0.00  0.00    +0.210 C 
ATOM     13  C   UNL     1      32.654 -23.421 -16.564  0.00  0.00    +0.251 C 
ATOM     14  C   UNL     1      35.584 -21.882 -18.365  0.00  0.00    +0.008 C 
ATOM     15  C   UNL     1      33.056 -21.409 -19.576  0.00  0.00    +0.015 C 
ATOM     16  C   UNL     1      38.366 -24.216 -14.249  0.00  0.00    +0.004 C 
ATOM     17  C   UNL     1      36.219 -25.418 -12.813  0.00  0.00    +0.015 C 
ATOM     18  C   UNL     1      35.479 -21.130 -19.540  0.00  0.00    +0.035 C 
ATOM     19  C   UNL     1      34.227 -20.896 -20.139  0.00  0.00    +0.008 C 
ATOM     20  C   UNL     1      38.604 -24.944 -13.083  0.00  0.00    +0.000 C 
ATOM     21  C   UNL     1      37.543 -25.538 -12.372  0.00  0.00    +0.001 C 
ATOM     22  H   UNL     1      33.899 -24.743 -14.294  0.00  0.00    +0.152 HD
ATOM     23  H   UNL     1      31.201 -22.712 -17.931  0.00  0.00    +0.155 HD
ENDROOT
TORSDOF 0
ENDMDL
MODEL 6
REMARK VINA RESULT:      -9.3      4.041      6.346
REMARK  Name = 5287845
REMARK  0 active torsions:
REMARK  status: ('A' for Active; 'I' for Inactive)
REMARK                            x       y       z     vdW  Elec       q    Type
REMARK                         _______ _______ _______ _____ _____    ______ ____
ROOT
ATOM      1 BR   UNL     1      33.069 -13.895 -25.059  0.00  0.00    -0.049 Br
ATOM      2  O   UNL     1      32.385  -9.691 -24.080  0.00  0.00    -0.285 OA
ATOM      3  O   UNL     1      31.406  -9.556 -18.907  0.00  0.00    -0.270 OA
ATOM      4  N   UNL     1      31.632  -7.762 -21.264  0.00  0.00    -0.310 N 
ATOM      5  N   UNL     1      31.793 -11.795 -19.554  0.00  0.00    -0.280 N 
ATOM      6  C   UNL     1      31.910 -10.207 -21.197  0.00  0.00    +0.071 C 
ATOM      7  C   UNL     1      31.877  -9.008 -21.784  0.00  0.00    +0.092 C 
ATOM      8  C   UNL     1      32.178 -11.507 -21.802  0.00  0.00    +0.020 C 
ATOM      9  C   UNL     1      32.094 -12.436 -20.761  0.00  0.00    +0.051 C 
ATOM     10  C   UNL     1      32.005  -7.390 -23.499  0.00  0.00    +0.054 C 
ATOM     11  C   UNL     1      31.704  -6.801 -22.264  0.00  0.00    +0.051 C 
ATOM     12  C   UNL     1      32.131  -8.837 -23.257  0.00  0.00    +0.210 C 
ATOM     13  C   UNL     1      31.662 -10.414 -19.731  0.00  0.00    +0.251 C 
ATOM     14  C   UNL     1      32.467 -11.916 -23.091  0.00  0.00    +0.008 C 
ATOM     15  C   UNL     1      32.292 -13.787 -20.958  0.00  0.00    +0.015 C 
ATOM     16  C   UNL     1      32.137  -6.670 -24.668  0.00  0.00    +0.004 C 
ATOM     17  C   UNL     1      31.524  -5.436 -22.174  0.00  0.00    +0.015 C 
ATOM     18  C   UNL     1      32.671 -13.282 -23.313  0.00  0.00    +0.035 C 
ATOM     19  C   UNL     1      32.584 -14.208 -22.257  0.00  0.00    +0.008 C 
ATOM     20  C   UNL     1      31.955  -5.289 -24.578  0.00  0.00    +0.000 C 
ATOM     21  C   UNL     1      31.651  -4.679 -23.345  0.00  0.00    +0.001 C 
ATOM     22  H   UNL     1      31.433  -7.576 -20.318  0.00  0.00    +0.152 HD
ATOM     23  H   UNL     1      31.687 -12.257 -18.690  0.00  0.00    +0.155 HD
ENDROOT
TORSDOF 0
ENDMDL
MODEL 7
REMARK VINA RESULT:      -9.2     10.534     13.161
REMARK  Name = 5287845
REMARK  0 active torsions:
REMARK  status: ('A' for Active; 'I' for Inactive)
REMARK                            x       y       z     vdW  Elec       q    Type
REMARK                         _______ _______ _______ _____ _____    ______ ____
ROOT
ATOM      1 BR   UNL     1      30.066 -24.261 -12.816  0.00  0.00    -0.049 Br
ATOM      2  O   UNL     1      34.380 -24.624 -13.406  0.00  0.00    -0.285 OA
ATOM      3  O   UNL     1      35.342 -22.721 -18.222  0.00  0.00    -0.270 OA
ATOM      4  N   UNL     1      36.739 -23.909 -15.884  0.00  0.00    -0.310 N 
ATOM      5  N   UNL     1      33.024 -22.575 -17.791  0.00  0.00    -0.280 N 
ATOM      6  C   UNL     1      34.332 -23.461 -16.135  0.00  0.00    +0.071 C 
ATOM      7  C   UNL     1      35.423 -23.887 -15.496  0.00  0.00    +0.092 C 
ATOM      8  C   UNL     1      32.949 -23.461 -15.671  0.00  0.00    +0.020 C 
ATOM      9  C   UNL     1      32.197 -22.913 -16.714  0.00  0.00    +0.051 C 
ATOM     10  C   UNL     1      36.749 -24.804 -13.770  0.00  0.00    +0.054 C 
ATOM     11  C   UNL     1      37.530 -24.446 -14.877  0.00  0.00    +0.051 C 
ATOM     12  C   UNL     1      35.356 -24.464 -14.108  0.00  0.00    +0.210 C 
ATOM     13  C   UNL     1      34.361 -22.880 -17.519  0.00  0.00    +0.251 C 
ATOM     14  C   UNL     1      32.338 -23.870 -14.500  0.00  0.00    +0.008 C 
ATOM     15  C   UNL     1      30.828 -22.753 -16.634  0.00  0.00    +0.015 C 
ATOM     16  C   UNL     1      37.274 -25.364 -12.624  0.00  0.00    +0.004 C 
ATOM     17  C   UNL     1      38.894 -24.650 -14.856  0.00  0.00    +0.015 C 
ATOM     18  C   UNL     1      30.951 -23.717 -14.397  0.00  0.00    +0.035 C 
ATOM     19  C   UNL     1      30.204 -23.164 -15.454  0.00  0.00    +0.008 C 
ATOM     20  C   UNL     1      38.654 -25.570 -12.602  0.00  0.00    +0.000 C 
ATOM     21  C   UNL     1      39.456 -25.217 -13.706  0.00  0.00    +0.001 C 
ATOM     22  H   UNL     1      37.075 -23.589 -16.753  0.00  0.00    +0.152 HD
ATOM     23  H   UNL     1      32.705 -22.174 -18.632  0.00  0.00    +0.155 HD
ENDROOT
TORSDOF 0
ENDMDL
MODEL 8
REMARK VINA RESULT:      -9.2     10.671     13.476
REMARK  Name = 5287845
REMARK  0 active torsions:
REMARK  status: ('A' for Active; 'I' for Inactive)
REMARK                            x       y       z     vdW  Elec       q    Type
REMARK                         _______ _______ _______ _____ _____    ______ ____
ROOT
ATOM      1 BR   UNL     1      33.875 -21.614 -19.597  0.00  0.00    -0.049 Br
ATOM      2  O   UNL     1      36.078 -23.583 -16.379  0.00  0.00    -0.285 OA
ATOM      3  O   UNL     1      32.457 -25.075 -12.856  0.00  0.00    -0.270 OA
ATOM      4  N   UNL     1      35.390 -25.146 -13.328  0.00  0.00    -0.310 N 
ATOM      5  N   UNL     1      31.374 -23.990 -14.654  0.00  0.00    -0.280 N 
ATOM      6  C   UNL     1      33.652 -24.176 -14.777  0.00  0.00    +0.071 C 
ATOM      7  C   UNL     1      34.901 -24.498 -14.435  0.00  0.00    +0.092 C 
ATOM      8  C   UNL     1      33.187 -23.483 -15.973  0.00  0.00    +0.020 C 
ATOM      9  C   UNL     1      31.798 -23.396 -15.848  0.00  0.00    +0.051 C 
ATOM     10  C   UNL     1      37.252 -24.676 -14.588  0.00  0.00    +0.054 C 
ATOM     11  C   UNL     1      36.772 -25.258 -13.406  0.00  0.00    +0.051 C 
ATOM     12  C   UNL     1      36.077 -24.158 -15.310  0.00  0.00    +0.210 C 
ATOM     13  C   UNL     1      32.456 -24.499 -13.928  0.00  0.00    +0.251 C 
ATOM     14  C   UNL     1      33.830 -22.960 -17.080  0.00  0.00    +0.008 C 
ATOM     15  C   UNL     1      31.005 -22.795 -16.805  0.00  0.00    +0.015 C 
ATOM     16  C   UNL     1      38.588 -24.643 -14.925  0.00  0.00    +0.004 C 
ATOM     17  C   UNL     1      37.650 -25.833 -12.512  0.00  0.00    +0.015 C 
ATOM     18  C   UNL     1      33.045 -22.346 -18.063  0.00  0.00    +0.035 C 
ATOM     19  C   UNL     1      31.647 -22.265 -17.926  0.00  0.00    +0.008 C 
ATOM     20  C   UNL     1      39.478 -25.225 -14.021  0.00  0.00    +0.000 C 
ATOM     21  C   UNL     1      39.015 -25.814 -12.827  0.00  0.00    +0.001 C 
ATOM     22  H   UNL     1      34.839 -25.484 -12.585  0.00  0.00    +0.152 HD
ATOM     23  H   UNL     1      30.435 -24.043 -14.362  0.00  0.00    +0.155 HD
ENDROOT
TORSDOF 0
ENDMDL
MODEL 9
REMARK VINA RESULT:      -9.1      2.553      6.048
REMARK  Name = 5287845
REMARK  0 active torsions:
REMARK  status: ('A' for Active; 'I' for Inactive)
REMARK                            x       y       z     vdW  Elec       q    Type
REMARK                         _______ _______ _______ _____ _____    ______ ____
ROOT
ATOM      1 BR   UNL     1      31.194 -10.784 -18.835  0.00  0.00    -0.049 Br
ATOM      2  O   UNL     1      32.984 -14.144 -20.979  0.00  0.00    -0.285 OA
ATOM      3  O   UNL     1      34.105 -12.344 -25.801  0.00  0.00    -0.270 OA
ATOM      4  N   UNL     1      34.296 -14.807 -24.151  0.00  0.00    -0.310 N 
ATOM      5  N   UNL     1      33.125 -10.601 -24.542  0.00  0.00    -0.280 N 
ATOM      6  C   UNL     1      33.386 -12.618 -23.492  0.00  0.00    +0.071 C 
ATOM      7  C   UNL     1      33.718 -13.896 -23.303  0.00  0.00    +0.092 C 
ATOM      8  C   UNL     1      32.769 -11.690 -22.549  0.00  0.00    +0.020 C 
ATOM      9  C   UNL     1      32.634 -10.481 -23.238  0.00  0.00    +0.051 C 
ATOM     10  C   UNL     1      33.976 -15.966 -22.194  0.00  0.00    +0.054 C 
ATOM     11  C   UNL     1      34.454 -16.029 -23.510  0.00  0.00    +0.051 C 
ATOM     12  C   UNL     1      33.478 -14.594 -21.992  0.00  0.00    +0.210 C 
ATOM     13  C   UNL     1      33.611 -11.890 -24.786  0.00  0.00    +0.251 C 
ATOM     14  C   UNL     1      32.349 -11.806 -21.237  0.00  0.00    +0.008 C 
ATOM     15  C   UNL     1      32.082  -9.358 -22.657  0.00  0.00    +0.015 C 
ATOM     16  C   UNL     1      34.007 -17.037 -21.326  0.00  0.00    +0.004 C 
ATOM     17  C   UNL     1      34.987 -17.205 -23.996  0.00  0.00    +0.015 C 
ATOM     18  C   UNL     1      31.786 -10.679 -20.629  0.00  0.00    +0.035 C 
ATOM     19  C   UNL     1      31.654  -9.467 -21.332  0.00  0.00    +0.008 C 
ATOM     20  C   UNL     1      34.546 -18.226 -21.817  0.00  0.00    +0.000 C 
ATOM     21  C   UNL     1      35.031 -18.310 -23.137  0.00  0.00    +0.001 C 
ATOM     22  H   UNL     1      34.562 -14.622 -25.080  0.00  0.00    +0.152 HD
ATOM     23  H   UNL     1      33.129  -9.872 -25.204  0.00  0.00    +0.155 HD
ENDROOT
TORSDOF 0
ENDMDL
