MODEL 1
REMARK VINA RESULT:      -6.2      0.000      0.000
REMARK  Name = 51351707
REMARK  9 active torsions:
REMARK  status: ('A' for Active; 'I' for Inactive)
REMARK    1  A    between atoms: C_1  and  C_2
REMARK    2  A    between atoms: C_1  and  C_11
REMARK    3  A    between atoms: C_2  and  CA_3
REMARK    4  A    between atoms: CA_3  and  N_4
REMARK    5  A    between atoms: CA_3  and  C_10
REMARK    6  A    between atoms: C_11  and  N_12
REMARK    7  A    between atoms: N_12  and  C_15
REMARK    8  A    between atoms: N_13  and  C_15
REMARK    9  A    between atoms: N_14  and  C_15
REMARK                            x       y       z     vdW  Elec       q    Type
REMARK                         _______ _______ _______ _____ _____    ______ ____
ROOT
ATOM      1  C   UNL     1      37.162 -26.922 -13.805  0.00  0.00    +0.016 C 
ENDROOT
BRANCH   1   2
ATOM      2  C   UNL     1      37.734 -26.206 -15.038  0.00  0.00    -0.009 C 
BRANCH   2   3
ATOM      3  CA  UNL     1      38.649 -25.017 -14.712  0.00  0.00    +0.040 C 
BRANCH   3   4
ATOM      4  N   UNL     1      38.094 -23.817 -15.415  0.00  0.00    +0.389 N 
ATOM      5  H1  UNL     1      37.278 -24.090 -15.963  0.00  0.00    -0.088 HD
ATOM      6  H2  UNL     1      38.804 -23.427 -16.034  0.00  0.00    -0.088 HD
ATOM      7  H3  UNL     1      37.821 -23.116 -14.726  0.00  0.00    -0.088 HD
ENDBRANCH   3   4
BRANCH   3  10
ATOM      8  O   UNL     1      40.932 -24.655 -14.153  0.00  0.00    -0.248 OA
ATOM      9  OXT UNL     1      40.430 -26.038 -15.897  0.00  0.00    -0.248 OA
ATOM     10  C   UNL     1      40.151 -25.251 -14.947  0.00  0.00    +0.345 C 
ENDBRANCH   3  10
ENDBRANCH   2   3
ENDBRANCH   1   2
BRANCH   1  11
ATOM     11  C   UNL     1      37.456 -26.175 -12.505  0.00  0.00    +0.071 C 
BRANCH  11  12
ATOM     12  N   UNL     1      36.251 -25.588 -11.969  0.00  0.00    -0.273 NA
ATOM     13  H   UNL     1      35.865 -26.031 -11.178  0.00  0.00    +0.126 HD
BRANCH  12  14
ATOM     14  C   UNL     1      35.571 -24.468 -12.441  0.00  0.00    +0.174 C 
BRANCH  14  15
ATOM     15  N   UNL     1      34.215 -24.672 -12.665  0.00  0.00    -0.272 NA
ATOM     16  C   UNL     1      33.462 -24.066 -13.739  0.00  0.00    +0.088 C 
ATOM     17  H   UNL     1      33.734 -25.271 -12.049  0.00  0.00    +0.126 HD
ENDBRANCH  14  15
BRANCH  14  18
ATOM     18  N   UNL     1      36.108 -23.301 -12.673  0.00  0.00    -0.272 NA
ATOM     19  C   UNL     1      37.137 -22.825 -11.761  0.00  0.00    +0.088 C 
ATOM     20  H   UNL     1      35.824 -22.759 -13.444  0.00  0.00    +0.126 HD
ENDBRANCH  14  18
ENDBRANCH  12  14
ENDBRANCH  11  12
ENDBRANCH   1  11
TORSDOF 9
ENDMDL
MODEL 2
REMARK VINA RESULT:      -6.0      5.981      8.019
REMARK  Name = 51351707
REMARK  9 active torsions:
REMARK  status: ('A' for Active; 'I' for Inactive)
REMARK    1  A    between atoms: C_1  and  C_2
REMARK    2  A    between atoms: C_1  and  C_11
REMARK    3  A    between atoms: C_2  and  CA_3
REMARK    4  A    between atoms: CA_3  and  N_4
REMARK    5  A    between atoms: CA_3  and  C_10
REMARK    6  A    between atoms: C_11  and  N_12
REMARK    7  A    between atoms: N_12  and  C_15
REMARK    8  A    between atoms: N_13  and  C_15
REMARK    9  A    between atoms: N_14  and  C_15
REMARK                            x       y       z     vdW  Elec       q    Type
REMARK                         _______ _______ _______ _____ _____    ______ ____
ROOT
ATOM      1  C   UNL     1      30.262 -25.353 -14.655  0.00  0.00    +0.016 C 
ENDROOT
BRANCH   1   2
ATOM      2  C   UNL     1      29.178 -24.338 -15.053  0.00  0.00    -0.009 C 
BRANCH   2   3
ATOM      3  CA  UNL     1      29.406 -23.672 -16.417  0.00  0.00    +0.040 C 
BRANCH   3   4
ATOM      4  N   UNL     1      30.605 -22.785 -16.289  0.00  0.00    +0.389 N 
ATOM      5  H1  UNL     1      30.487 -21.965 -16.884  0.00  0.00    -0.088 HD
ATOM      6  H2  UNL     1      31.439 -23.297 -16.579  0.00  0.00    -0.088 HD
ATOM      7  H3  UNL     1      30.707 -22.489 -15.319  0.00  0.00    -0.088 HD
ENDBRANCH   3   4
BRANCH   3  10
ATOM      8  O   UNL     1      28.021 -21.767 -16.751  0.00  0.00    -0.248 OA
ATOM      9  OXT UNL     1      27.470 -23.725 -17.785  0.00  0.00    -0.248 OA
ATOM     10  C   UNL     1      28.175 -22.988 -17.036  0.00  0.00    +0.345 C 
ENDBRANCH   3  10
ENDBRANCH   2   3
ENDBRANCH   1   2
BRANCH   1  11
ATOM     11  C   UNL     1      30.982 -24.964 -13.365  0.00  0.00    +0.071 C 
BRANCH  11  12
ATOM     12  N   UNL     1      32.413 -25.006 -13.546  0.00  0.00    -0.273 NA
ATOM     13  H   UNL     1      32.819 -25.902 -13.601  0.00  0.00    +0.126 HD
BRANCH  12  14
ATOM     14  C   UNL     1      33.286 -23.926 -13.651  0.00  0.00    +0.174 C 
BRANCH  14  15
ATOM     15  N   UNL     1      34.095 -23.731 -12.538  0.00  0.00    -0.272 NA
ATOM     16  C   UNL     1      35.333 -24.433 -12.292  0.00  0.00    +0.088 C 
ATOM     17  H   UNL     1      33.803 -23.067 -11.871  0.00  0.00    +0.126 HD
ENDBRANCH  14  15
BRANCH  14  18
ATOM     18  N   UNL     1      33.382 -23.129 -14.681  0.00  0.00    -0.272 NA
ATOM     19  C   UNL     1      34.115 -23.599 -15.847  0.00  0.00    +0.088 C 
ATOM     20  H   UNL     1      32.969 -22.235 -14.668  0.00  0.00    +0.126 HD
ENDBRANCH  14  18
ENDBRANCH  12  14
ENDBRANCH  11  12
ENDBRANCH   1  11
TORSDOF 9
ENDMDL
MODEL 3
REMARK VINA RESULT:      -6.0      1.701      2.042
REMARK  Name = 51351707
REMARK  9 active torsions:
REMARK  status: ('A' for Active; 'I' for Inactive)
REMARK    1  A    between atoms: C_1  and  C_2
REMARK    2  A    between atoms: C_1  and  C_11
REMARK    3  A    between atoms: C_2  and  CA_3
REMARK    4  A    between atoms: CA_3  and  N_4
REMARK    5  A    between atoms: CA_3  and  C_10
REMARK    6  A    between atoms: C_11  and  N_12
REMARK    7  A    between atoms: N_12  and  C_15
REMARK    8  A    between atoms: N_13  and  C_15
REMARK    9  A    between atoms: N_14  and  C_15
REMARK                            x       y       z     vdW  Elec       q    Type
REMARK                         _______ _______ _______ _____ _____    ______ ____
ROOT
ATOM      1  C   UNL     1      36.878 -23.740 -15.366  0.00  0.00    +0.016 C 
ENDROOT
BRANCH   1   2
ATOM      2  C   UNL     1      37.911 -24.307 -14.380  0.00  0.00    -0.009 C 
BRANCH   2   3
ATOM      3  CA  UNL     1      38.622 -25.576 -14.869  0.00  0.00    +0.040 C 
BRANCH   3   4
ATOM      4  N   UNL     1      38.120 -26.720 -14.043  0.00  0.00    +0.389 N 
ATOM      5  H1  UNL     1      38.186 -26.481 -13.054  0.00  0.00    -0.088 HD
ATOM      6  H2  UNL     1      38.685 -27.549 -14.231  0.00  0.00    -0.088 HD
ATOM      7  H3  UNL     1      37.147 -26.910 -14.283  0.00  0.00    -0.088 HD
ENDBRANCH   3   4
BRANCH   3  10
ATOM      8  O   UNL     1      40.722 -24.807 -14.057  0.00  0.00    -0.248 OA
ATOM      9  OXT UNL     1      40.676 -26.129 -15.917  0.00  0.00    -0.248 OA
ATOM     10  C   UNL     1      40.156 -25.486 -14.960  0.00  0.00    +0.345 C 
ENDBRANCH   3  10
ENDBRANCH   2   3
ENDBRANCH   1   2
BRANCH   1  11
ATOM     11  C   UNL     1      35.549 -24.491 -15.318  0.00  0.00    +0.071 C 
BRANCH  11  12
ATOM     12  N   UNL     1      35.287 -24.981 -13.986  0.00  0.00    -0.273 NA
ATOM     13  H   UNL     1      35.764 -25.802 -13.721  0.00  0.00    +0.126 HD
BRANCH  12  14
ATOM     14  C   UNL     1      34.437 -24.428 -13.031  0.00  0.00    +0.174 C 
BRANCH  14  15
ATOM     15  N   UNL     1      33.100 -24.772 -13.184  0.00  0.00    -0.272 NA
ATOM     16  C   UNL     1      32.102 -23.928 -13.798  0.00  0.00    +0.088 C 
ATOM     17  H   UNL     1      32.813 -25.653 -12.850  0.00  0.00    +0.126 HD
ENDBRANCH  14  15
BRANCH  14  18
ATOM     18  N   UNL     1      34.807 -23.645 -12.054  0.00  0.00    -0.272 NA
ATOM     19  C   UNL     1      35.821 -24.132 -11.130  0.00  0.00    +0.088 C 
ATOM     20  H   UNL     1      34.411 -22.751 -11.945  0.00  0.00    +0.126 HD
ENDBRANCH  14  18
ENDBRANCH  12  14
ENDBRANCH  11  12
ENDBRANCH   1  11
TORSDOF 9
ENDMDL
MODEL 4
REMARK VINA RESULT:      -5.9      4.105      5.444
REMARK  Name = 51351707
REMARK  9 active torsions:
REMARK  status: ('A' for Active; 'I' for Inactive)
REMARK    1  A    between atoms: C_1  and  C_2
REMARK    2  A    between atoms: C_1  and  C_11
REMARK    3  A    between atoms: C_2  and  CA_3
REMARK    4  A    between atoms: CA_3  and  N_4
REMARK    5  A    between atoms: CA_3  and  C_10
REMARK    6  A    between atoms: C_11  and  N_12
REMARK    7  A    between atoms: N_12  and  C_15
REMARK    8  A    between atoms: N_13  and  C_15
REMARK    9  A    between atoms: N_14  and  C_15
REMARK                            x       y       z     vdW  Elec       q    Type
REMARK                         _______ _______ _______ _____ _____    ______ ____
ROOT
ATOM      1  C   UNL     1      34.990 -23.361 -15.291  0.00  0.00    +0.016 C 
ENDROOT
BRANCH   1   2
ATOM      2  C   UNL     1      35.302 -24.741 -14.691  0.00  0.00    -0.009 C 
BRANCH   2   3
ATOM      3  CA  UNL     1      36.789 -25.122 -14.719  0.00  0.00    +0.040 C 
BRANCH   3   4
ATOM      4  N   UNL     1      37.509 -24.067 -15.500  0.00  0.00    +0.389 N 
ATOM      5  H1  UNL     1      36.847 -23.576 -16.101  0.00  0.00    -0.088 HD
ATOM      6  H2  UNL     1      38.231 -24.502 -16.075  0.00  0.00    -0.088 HD
ATOM      7  H3  UNL     1      37.941 -23.404 -14.857  0.00  0.00    -0.088 HD
ENDBRANCH   3   4
BRANCH   3  10
ATOM      8  O   UNL     1      38.090 -27.111 -14.608  0.00  0.00    -0.248 OA
ATOM      9  OXT UNL     1      36.302 -27.041 -16.024  0.00  0.00    -0.248 OA
ATOM     10  C   UNL     1      37.098 -26.562 -15.165  0.00  0.00    +0.345 C 
ENDBRANCH   3  10
ENDBRANCH   2   3
ENDBRANCH   1   2
BRANCH   1  11
ATOM     11  C   UNL     1      33.747 -23.377 -16.179  0.00  0.00    +0.071 C 
BRANCH  11  12
ATOM     12  N   UNL     1      34.111 -23.539 -17.566  0.00  0.00    -0.273 NA
ATOM     13  H   UNL     1      34.426 -24.434 -17.833  0.00  0.00    +0.126 HD
BRANCH  12  14
ATOM     14  C   UNL     1      34.070 -22.575 -18.571  0.00  0.00    +0.174 C 
BRANCH  14  15
ATOM     15  N   UNL     1      35.311 -22.248 -19.104  0.00  0.00    -0.272 NA
ATOM     16  C   UNL     1      36.410 -21.699 -18.343  0.00  0.00    +0.088 C 
ATOM     17  H   UNL     1      35.450 -22.401 -20.066  0.00  0.00    +0.126 HD
ENDBRANCH  14  15
BRANCH  14  18
ATOM     18  N   UNL     1      32.989 -21.994 -19.015  0.00  0.00    -0.272 NA
ATOM     19  C   UNL     1      33.139 -20.816 -19.857  0.00  0.00    +0.088 C 
ATOM     20  H   UNL     1      32.097 -22.342 -18.786  0.00  0.00    +0.126 HD
ENDBRANCH  14  18
ENDBRANCH  12  14
ENDBRANCH  11  12
ENDBRANCH   1  11
TORSDOF 9
ENDMDL
MODEL 5
REMARK VINA RESULT:      -5.9      1.467      2.029
REMARK  Name = 51351707
REMARK  9 active torsions:
REMARK  status: ('A' for Active; 'I' for Inactive)
REMARK    1  A    between atoms: C_1  and  C_2
REMARK    2  A    between atoms: C_1  and  C_11
REMARK    3  A    between atoms: C_2  and  CA_3
REMARK    4  A    between atoms: CA_3  and  N_4
REMARK    5  A    between atoms: CA_3  and  C_10
REMARK    6  A    between atoms: C_11  and  N_12
REMARK    7  A    between atoms: N_12  and  C_15
REMARK    8  A    between atoms: N_13  and  C_15
REMARK    9  A    between atoms: N_14  and  C_15
REMARK                            x       y       z     vdW  Elec       q    Type
REMARK                         _______ _______ _______ _____ _____    ______ ____
ROOT
ATOM      1  C   UNL     1      37.926 -24.278 -11.950  0.00  0.00    +0.016 C 
ENDROOT
BRANCH   1   2
ATOM      2  C   UNL     1      38.283 -25.497 -12.815  0.00  0.00    -0.009 C 
BRANCH   2   3
ATOM      3  CA  UNL     1      38.811 -25.148 -14.213  0.00  0.00    +0.040 C 
BRANCH   3   4
ATOM      4  N   UNL     1      37.795 -25.618 -15.208  0.00  0.00    +0.389 N 
ATOM      5  H1  UNL     1      37.622 -26.614 -15.073  0.00  0.00    -0.088 HD
ATOM      6  H2  UNL     1      38.145 -25.459 -16.153  0.00  0.00    -0.088 HD
ATOM      7  H3  UNL     1      36.926 -25.100 -15.075  0.00  0.00    -0.088 HD
ENDBRANCH   3   4
BRANCH   3  10
ATOM      8  O   UNL     1      41.100 -24.680 -14.659  0.00  0.00    -0.248 OA
ATOM      9  OXT UNL     1      40.419 -26.855 -14.554  0.00  0.00    -0.248 OA
ATOM     10  C   UNL     1      40.250 -25.603 -14.514  0.00  0.00    +0.345 C 
ENDBRANCH   3  10
ENDBRANCH   2   3
ENDBRANCH   1   2
BRANCH   1  11
ATOM     11  C   UNL     1      36.417 -24.077 -11.817  0.00  0.00    +0.071 C 
BRANCH  11  12
ATOM     12  N   UNL     1      35.704 -24.952 -12.715  0.00  0.00    -0.273 NA
ATOM     13  H   UNL     1      35.956 -25.904 -12.690  0.00  0.00    +0.126 HD
BRANCH  12  14
ATOM     14  C   UNL     1      34.699 -24.606 -13.616  0.00  0.00    +0.174 C 
BRANCH  14  15
ATOM     15  N   UNL     1      33.414 -24.658 -13.092  0.00  0.00    -0.272 NA
ATOM     16  C   UNL     1      32.210 -24.749 -13.884  0.00  0.00    +0.088 C 
ATOM     17  H   UNL     1      33.318 -24.633 -12.112  0.00  0.00    +0.126 HD
ENDBRANCH  14  15
BRANCH  14  18
ATOM     18  N   UNL     1      34.889 -24.253 -14.859  0.00  0.00    -0.272 NA
ATOM     19  C   UNL     1      35.301 -22.883 -15.129  0.00  0.00    +0.088 C 
ATOM     20  H   UNL     1      34.755 -24.896 -15.593  0.00  0.00    +0.126 HD
ENDBRANCH  14  18
ENDBRANCH  12  14
ENDBRANCH  11  12
ENDBRANCH   1  11
TORSDOF 9
ENDMDL
MODEL 6
REMARK VINA RESULT:      -5.9      2.675      4.534
REMARK  Name = 51351707
REMARK  9 active torsions:
REMARK  status: ('A' for Active; 'I' for Inactive)
REMARK    1  A    between atoms: C_1  and  C_2
REMARK    2  A    between atoms: C_1  and  C_11
REMARK    3  A    between atoms: C_2  and  CA_3
REMARK    4  A    between atoms: CA_3  and  N_4
REMARK    5  A    between atoms: CA_3  and  C_10
REMARK    6  A    between atoms: C_11  and  N_12
REMARK    7  A    between atoms: N_12  and  C_15
REMARK    8  A    between atoms: N_13  and  C_15
REMARK    9  A    between atoms: N_14  and  C_15
REMARK                            x       y       z     vdW  Elec       q    Type
REMARK                         _______ _______ _______ _____ _____    ______ ____
ROOT
ATOM      1  C   UNL     1      34.999 -24.502 -14.649  0.00  0.00    +0.016 C 
ENDROOT
BRANCH   1   2
ATOM      2  C   UNL     1      34.467 -24.460 -13.208  0.00  0.00    -0.009 C 
BRANCH   2   3
ATOM      3  CA  UNL     1      35.371 -23.708 -12.221  0.00  0.00    +0.040 C 
BRANCH   3   4
ATOM      4  N   UNL     1      36.326 -22.881 -13.026  0.00  0.00    +0.389 N 
ATOM      5  H1  UNL     1      36.571 -22.040 -12.504  0.00  0.00    -0.088 HD
ATOM      6  H2  UNL     1      35.888 -22.619 -13.909  0.00  0.00    -0.088 HD
ATOM      7  H3  UNL     1      37.169 -23.423 -13.213  0.00  0.00    -0.088 HD
ENDBRANCH   3   4
BRANCH   3  10
ATOM      8  O   UNL     1      35.255 -25.157 -10.338  0.00  0.00    -0.248 OA
ATOM      9  OXT UNL     1      37.302 -24.624 -11.195  0.00  0.00    -0.248 OA
ATOM     10  C   UNL     1      36.040 -24.574 -11.139  0.00  0.00    +0.345 C 
ENDBRANCH   3  10
ENDBRANCH   2   3
ENDBRANCH   1   2
BRANCH   1  11
ATOM     11  C   UNL     1      35.898 -25.711 -14.905  0.00  0.00    +0.071 C 
BRANCH  11  12
ATOM     12  N   UNL     1      37.135 -25.305 -15.527  0.00  0.00    -0.273 NA
ATOM     13  H   UNL     1      37.309 -25.663 -16.428  0.00  0.00    +0.126 HD
BRANCH  12  14
ATOM     14  C   UNL     1      38.113 -24.465 -14.999  0.00  0.00    +0.174 C 
BRANCH  14  15
ATOM     15  N   UNL     1      38.405 -23.358 -15.785  0.00  0.00    -0.272 NA
ATOM     16  C   UNL     1      37.420 -22.434 -16.296  0.00  0.00    +0.088 C 
ATOM     17  H   UNL     1      39.350 -23.191 -16.008  0.00  0.00    +0.126 HD
ENDBRANCH  14  15
BRANCH  14  18
ATOM     18  N   UNL     1      38.737 -24.652 -13.867  0.00  0.00    -0.272 NA
ATOM     19  C   UNL     1      39.894 -25.535 -13.857  0.00  0.00    +0.088 C 
ATOM     20  H   UNL     1      38.433 -24.207 -13.043  0.00  0.00    +0.126 HD
ENDBRANCH  14  18
ENDBRANCH  12  14
ENDBRANCH  11  12
ENDBRANCH   1  11
TORSDOF 9
ENDMDL
MODEL 7
REMARK VINA RESULT:      -5.9     11.073     12.314
REMARK  Name = 51351707
REMARK  9 active torsions:
REMARK  status: ('A' for Active; 'I' for Inactive)
REMARK    1  A    between atoms: C_1  and  C_2
REMARK    2  A    between atoms: C_1  and  C_11
REMARK    3  A    between atoms: C_2  and  CA_3
REMARK    4  A    between atoms: CA_3  and  N_4
REMARK    5  A    between atoms: CA_3  and  C_10
REMARK    6  A    between atoms: C_11  and  N_12
REMARK    7  A    between atoms: N_12  and  C_15
REMARK    8  A    between atoms: N_13  and  C_15
REMARK    9  A    between atoms: N_14  and  C_15
REMARK                            x       y       z     vdW  Elec       q    Type
REMARK                         _______ _______ _______ _____ _____    ______ ____
ROOT
ATOM      1  C   UNL     1      35.551 -18.375 -23.483  0.00  0.00    +0.016 C 
ENDROOT
BRANCH   1   2
ATOM      2  C   UNL     1      34.539 -19.317 -22.813  0.00  0.00    -0.009 C 
BRANCH   2   3
ATOM      3  CA  UNL     1      34.288 -19.022 -21.328  0.00  0.00    +0.040 C 
BRANCH   3   4
ATOM      4  N   UNL     1      35.484 -18.287 -20.806  0.00  0.00    +0.389 N 
ATOM      5  H1  UNL     1      35.827 -18.749 -19.964  0.00  0.00    -0.088 HD
ATOM      6  H2  UNL     1      35.222 -17.326 -20.584  0.00  0.00    -0.088 HD
ATOM      7  H3  UNL     1      36.216 -18.285 -21.515  0.00  0.00    -0.088 HD
ENDBRANCH   3   4
BRANCH   3  10
ATOM      8  O   UNL     1      32.631 -20.508 -20.485  0.00  0.00    -0.248 OA
ATOM      9  OXT UNL     1      34.808 -20.823 -19.875  0.00  0.00    -0.248 OA
ATOM     10  C   UNL     1      33.864 -20.230 -20.473  0.00  0.00    +0.345 C 
ENDBRANCH   3  10
ENDBRANCH   2   3
ENDBRANCH   1   2
BRANCH   1  11
ATOM     11  C   UNL     1      34.898 -17.104 -24.024  0.00  0.00    +0.071 C 
BRANCH  11  12
ATOM     12  N   UNL     1      35.362 -15.944 -23.302  0.00  0.00    -0.273 NA
ATOM     13  H   UNL     1      36.312 -15.709 -23.418  0.00  0.00    +0.126 HD
BRANCH  12  14
ATOM     14  C   UNL     1      34.622 -15.119 -22.460  0.00  0.00    +0.174 C 
BRANCH  14  15
ATOM     15  N   UNL     1      34.381 -13.848 -22.967  0.00  0.00    -0.272 NA
ATOM     16  C   UNL     1      33.570 -13.570 -24.129  0.00  0.00    +0.088 C 
ATOM     17  H   UNL     1      34.792 -13.084 -22.501  0.00  0.00    +0.126 HD
ENDBRANCH  14  15
BRANCH  14  18
ATOM     18  N   UNL     1      34.165 -15.454 -21.283  0.00  0.00    -0.272 NA
ATOM     19  C   UNL     1      32.725 -15.439 -21.075  0.00  0.00    +0.088 C 
ATOM     20  H   UNL     1      34.779 -15.711 -20.558  0.00  0.00    +0.126 HD
ENDBRANCH  14  18
ENDBRANCH  12  14
ENDBRANCH  11  12
ENDBRANCH   1  11
TORSDOF 9
ENDMDL
MODEL 8
REMARK VINA RESULT:      -5.7      1.905      3.137
REMARK  Name = 51351707
REMARK  9 active torsions:
REMARK  status: ('A' for Active; 'I' for Inactive)
REMARK    1  A    between atoms: C_1  and  C_2
REMARK    2  A    between atoms: C_1  and  C_11
REMARK    3  A    between atoms: C_2  and  CA_3
REMARK    4  A    between atoms: CA_3  and  N_4
REMARK    5  A    between atoms: CA_3  and  C_10
REMARK    6  A    between atoms: C_11  and  N_12
REMARK    7  A    between atoms: N_12  and  C_15
REMARK    8  A    between atoms: N_13  and  C_15
REMARK    9  A    between atoms: N_14  and  C_15
REMARK                            x       y       z     vdW  Elec       q    Type
REMARK                         _______ _______ _______ _____ _____    ______ ____
ROOT
ATOM      1  C   UNL     1      36.498 -25.055 -12.305  0.00  0.00    +0.016 C 
ENDROOT
BRANCH   1   2
ATOM      2  C   UNL     1      37.843 -24.603 -12.894  0.00  0.00    -0.009 C 
BRANCH   2   3
ATOM      3  CA  UNL     1      37.978 -24.826 -14.407  0.00  0.00    +0.040 C 
BRANCH   3   4
ATOM      4  N   UNL     1      37.342 -23.656 -15.092  0.00  0.00    +0.389 N 
ATOM      5  H1  UNL     1      36.953 -23.957 -15.986  0.00  0.00    -0.088 HD
ATOM      6  H2  UNL     1      38.044 -22.934 -15.253  0.00  0.00    -0.088 HD
ATOM      7  H3  UNL     1      36.598 -23.282 -14.505  0.00  0.00    -0.088 HD
ENDBRANCH   3   4
BRANCH   3  10
ATOM      8  O   UNL     1      38.221 -27.185 -14.594  0.00  0.00    -0.248 OA
ATOM      9  OXT UNL     1      36.435 -26.177 -15.595  0.00  0.00    -0.248 OA
ATOM     10  C   UNL     1      37.505 -26.196 -14.922  0.00  0.00    +0.345 C 
ENDBRANCH   3  10
ENDBRANCH   2   3
ENDBRANCH   1   2
BRANCH   1  11
ATOM     11  C   UNL     1      35.602 -23.879 -11.922  0.00  0.00    +0.071 C 
BRANCH  11  12
ATOM     12  N   UNL     1      34.772 -23.485 -13.035  0.00  0.00    -0.273 NA
ATOM     13  H   UNL     1      34.792 -22.531 -13.278  0.00  0.00    +0.126 HD
BRANCH  12  14
ATOM     14  C   UNL     1      33.945 -24.300 -13.805  0.00  0.00    +0.174 C 
BRANCH  14  15
ATOM     15  N   UNL     1      34.257 -24.319 -15.159  0.00  0.00    -0.272 NA
ATOM     16  C   UNL     1      33.936 -23.261 -16.088  0.00  0.00    +0.088 C 
ATOM     17  H   UNL     1      34.730 -25.109 -15.508  0.00  0.00    +0.126 HD
ENDBRANCH  14  15
BRANCH  14  18
ATOM     18  N   UNL     1      32.947 -25.008 -13.350  0.00  0.00    -0.272 NA
ATOM     19  C   UNL     1      31.598 -24.618 -13.733  0.00  0.00    +0.088 C 
ATOM     20  H   UNL     1      33.103 -25.783 -12.764  0.00  0.00    +0.126 HD
ENDBRANCH  14  18
ENDBRANCH  12  14
ENDBRANCH  11  12
ENDBRANCH   1  11
TORSDOF 9
ENDMDL
MODEL 9
REMARK VINA RESULT:      -5.7      5.873      7.926
REMARK  Name = 51351707
REMARK  9 active torsions:
REMARK  status: ('A' for Active; 'I' for Inactive)
REMARK    1  A    between atoms: C_1  and  C_2
REMARK    2  A    between atoms: C_1  and  C_11
REMARK    3  A    between atoms: C_2  and  CA_3
REMARK    4  A    between atoms: CA_3  and  N_4
REMARK    5  A    between atoms: CA_3  and  C_10
REMARK    6  A    between atoms: C_11  and  N_12
REMARK    7  A    between atoms: N_12  and  C_15
REMARK    8  A    between atoms: N_13  and  C_15
REMARK    9  A    between atoms: N_14  and  C_15
REMARK                            x       y       z     vdW  Elec       q    Type
REMARK                         _______ _______ _______ _____ _____    ______ ____
ROOT
ATOM      1  C   UNL     1      31.630 -23.127 -15.010  0.00  0.00    +0.016 C 
ENDROOT
BRANCH   1   2
ATOM      2  C   UNL     1      30.631 -22.915 -16.158  0.00  0.00    -0.009 C 
BRANCH   2   3
ATOM      3  CA  UNL     1      29.171 -23.212 -15.789  0.00  0.00    +0.040 C 
BRANCH   3   4
ATOM      4  N   UNL     1      29.127 -24.588 -15.201  0.00  0.00    +0.389 N 
ATOM      5  H1  UNL     1      29.210 -24.528 -14.186  0.00  0.00    -0.088 HD
ATOM      6  H2  UNL     1      29.899 -25.142 -15.573  0.00  0.00    -0.088 HD
ATOM      7  H3  UNL     1      28.242 -25.033 -15.444  0.00  0.00    -0.088 HD
ENDBRANCH   3   4
BRANCH   3  10
ATOM      8  O   UNL     1      27.728 -23.995 -17.511  0.00  0.00    -0.248 OA
ATOM      9  OXT UNL     1      27.803 -21.758 -17.068  0.00  0.00    -0.248 OA
ATOM     10  C   UNL     1      28.140 -22.966 -16.905  0.00  0.00    +0.345 C 
ENDBRANCH   3  10
ENDBRANCH   2   3
ENDBRANCH   1   2
BRANCH   1  11
ATOM     11  C   UNL     1      33.028 -23.487 -15.510  0.00  0.00    +0.071 C 
BRANCH  11  12
ATOM     12  N   UNL     1      34.028 -23.136 -14.531  0.00  0.00    -0.273 NA
ATOM     13  H   UNL     1      34.358 -22.209 -14.557  0.00  0.00    +0.126 HD
BRANCH  12  14
ATOM     14  C   UNL     1      34.580 -23.959 -13.552  0.00  0.00    +0.174 C 
BRANCH  14  15
ATOM     15  N   UNL     1      35.201 -25.100 -14.044  0.00  0.00    -0.272 NA
ATOM     16  C   UNL     1      36.286 -25.095 -14.998  0.00  0.00    +0.088 C 
ATOM     17  H   UNL     1      34.880 -25.972 -13.719  0.00  0.00    +0.126 HD
ENDBRANCH  14  15
BRANCH  14  18
ATOM     18  N   UNL     1      34.548 -23.730 -12.267  0.00  0.00    -0.272 NA
ATOM     19  C   UNL     1      35.628 -24.259 -11.447  0.00  0.00    +0.088 C 
ATOM     20  H   UNL     1      33.813 -23.214 -11.864  0.00  0.00    +0.126 HD
ENDBRANCH  14  18
ENDBRANCH  12  14
ENDBRANCH  11  12
ENDBRANCH   1  11
TORSDOF 9
ENDMDL
