MODEL 1
REMARK VINA RESULT:      -9.3      0.000      0.000
REMARK  Name = 4369593
REMARK  11 active torsions:
REMARK  status: ('A' for Active; 'I' for Inactive)
REMARK    1  A    between atoms: C_1  and  N_3
REMARK    2  A    between atoms: C_1  and  C_18
REMARK    3  A    between atoms: C_4  and  O_6
REMARK    4  A    between atoms: O_6  and  C_9
REMARK    5  A    between atoms: C_10  and  C_15
REMARK    6  A    between atoms: C_15  and  O_16
REMARK    7  A    between atoms: C_18  and  N_20
REMARK    8  A    between atoms: C_21  and  O_23
REMARK    9  A    between atoms: O_23  and  C_26
REMARK   10  A    between atoms: C_27  and  C_32
REMARK   11  A    between atoms: C_32  and  O_33
REMARK                            x       y       z     vdW  Elec       q    Type
REMARK                         _______ _______ _______ _____ _____    ______ ____
ROOT
ATOM      1  C   UNL     1      33.118 -23.123 -17.553  0.00  0.00    +0.114 C 
ENDROOT
BRANCH   1   3
ATOM      2  O   UNL     1      32.976 -23.161 -14.652  0.00  0.00    -0.226 OA
ATOM      3  N   UNL     1      34.201 -23.275 -16.619  0.00  0.00    -0.269 N 
ATOM      4  C   UNL     1      34.042 -23.282 -15.246  0.00  0.00    +0.402 C 
ATOM      5  H   UNL     1      35.111 -23.381 -16.981  0.00  0.00    +0.153 HD
BRANCH   4   6
ATOM      6  O   UNL     1      35.254 -23.443 -14.637  0.00  0.00    -0.433 OA
BRANCH   6   9
ATOM      7  O   UNL     1      38.077 -23.452 -13.962  0.00  0.00    -0.322 OA
ATOM      8  O   UNL     1      36.974 -25.520 -13.531  0.00  0.00    -0.322 OA
ATOM      9  C   UNL     1      36.242 -24.145 -15.392  0.00  0.00    +0.229 C 
ATOM     10  C   UNL     1      38.191 -24.784 -13.475  0.00  0.00    +0.280 C 
ATOM     11  C   UNL     1      37.552 -23.378 -15.287  0.00  0.00    +0.191 C 
ATOM     12  C   UNL     1      36.394 -25.553 -14.834  0.00  0.00    +0.191 C 
ATOM     13  C   UNL     1      38.569 -24.679 -11.999  0.00  0.00    +0.074 C 
BRANCH  10  15
ATOM     14  O   UNL     1      39.220 -26.632 -14.664  0.00  0.00    -0.245 OA
ATOM     15  C   UNL     1      39.316 -25.526 -14.155  0.00  0.00    +0.366 C 
BRANCH  15  16
ATOM     16  O   UNL     1      40.458 -24.797 -14.123  0.00  0.00    -0.477 OA
ATOM     17  H   UNL     1      41.137 -25.015 -13.514  0.00  0.00    +0.295 HD
ENDBRANCH  15  16
ENDBRANCH  10  15
ENDBRANCH   6   9
ENDBRANCH   4   6
ENDBRANCH   1   3
BRANCH   1  18
ATOM     18  C   UNL     1      33.604 -23.108 -18.992  0.00  0.00    +0.114 C 
BRANCH  18  20
ATOM     19  O   UNL     1      36.218 -21.846 -18.915  0.00  0.00    -0.226 OA
ATOM     20  N   UNL     1      33.959 -21.779 -19.435  0.00  0.00    -0.269 N 
ATOM     21  C   UNL     1      35.235 -21.262 -19.358  0.00  0.00    +0.402 C 
ATOM     22  H   UNL     1      33.248 -21.211 -19.812  0.00  0.00    +0.153 HD
BRANCH  21  23
ATOM     23  O   UNL     1      35.250 -19.987 -19.855  0.00  0.00    -0.433 OA
BRANCH  23  26
ATOM     24  O   UNL     1      33.692 -18.284 -21.614  0.00  0.00    -0.322 OA
ATOM     25  O   UNL     1      35.886 -17.467 -21.173  0.00  0.00    -0.322 OA
ATOM     26  C   UNL     1      35.502 -19.863 -21.254  0.00  0.00    +0.229 C 
ATOM     27  C   UNL     1      34.647 -17.253 -21.837  0.00  0.00    +0.280 C 
ATOM     28  C   UNL     1      34.178 -19.584 -21.951  0.00  0.00    +0.191 C 
ATOM     29  C   UNL     1      36.484 -18.724 -21.487  0.00  0.00    +0.191 C 
ATOM     30  C   UNL     1      34.052 -15.975 -21.248  0.00  0.00    +0.074 C 
BRANCH  27  32
ATOM     31  O   UNL     1      34.354 -17.656 -24.212  0.00  0.00    -0.245 OA
ATOM     32  C   UNL     1      34.847 -16.995 -23.311  0.00  0.00    +0.366 C 
BRANCH  32  33
ATOM     33  O   UNL     1      35.655 -15.923 -23.503  0.00  0.00    -0.477 OA
ATOM     34  H   UNL     1      35.284 -15.070 -23.611  0.00  0.00    +0.295 HD
ENDBRANCH  32  33
ENDBRANCH  27  32
ENDBRANCH  23  26
ENDBRANCH  21  23
ENDBRANCH  18  20
ENDBRANCH   1  18
TORSDOF 11
ENDMDL
MODEL 2
REMARK VINA RESULT:      -9.3      0.153      9.727
REMARK  Name = 4369593
REMARK  11 active torsions:
REMARK  status: ('A' for Active; 'I' for Inactive)
REMARK    1  A    between atoms: C_1  and  N_3
REMARK    2  A    between atoms: C_1  and  C_18
REMARK    3  A    between atoms: C_4  and  O_6
REMARK    4  A    between atoms: O_6  and  C_9
REMARK    5  A    between atoms: C_10  and  C_15
REMARK    6  A    between atoms: C_15  and  O_16
REMARK    7  A    between atoms: C_18  and  N_20
REMARK    8  A    between atoms: C_21  and  O_23
REMARK    9  A    between atoms: O_23  and  C_26
REMARK   10  A    between atoms: C_27  and  C_32
REMARK   11  A    between atoms: C_32  and  O_33
REMARK                            x       y       z     vdW  Elec       q    Type
REMARK                         _______ _______ _______ _____ _____    ______ ____
ROOT
ATOM      1  C   UNL     1      33.614 -23.133 -18.974  0.00  0.00    +0.114 C 
ENDROOT
BRANCH   1   3
ATOM      2  O   UNL     1      36.265 -21.960 -18.794  0.00  0.00    -0.226 OA
ATOM      3  N   UNL     1      34.030 -21.824 -19.402  0.00  0.00    -0.269 N 
ATOM      4  C   UNL     1      35.321 -21.345 -19.277  0.00  0.00    +0.402 C 
ATOM      5  H   UNL     1      33.354 -21.235 -19.807  0.00  0.00    +0.153 HD
BRANCH   4   6
ATOM      6  O   UNL     1      35.395 -20.074 -19.773  0.00  0.00    -0.433 OA
BRANCH   6   9
ATOM      7  O   UNL     1      33.792 -18.240 -21.349  0.00  0.00    -0.322 OA
ATOM      8  O   UNL     1      36.083 -17.610 -21.168  0.00  0.00    -0.322 OA
ATOM      9  C   UNL     1      35.494 -19.964 -21.192  0.00  0.00    +0.229 C 
ATOM     10  C   UNL     1      34.797 -17.289 -21.685  0.00  0.00    +0.280 C 
ATOM     11  C   UNL     1      34.126 -19.573 -21.733  0.00  0.00    +0.191 C 
ATOM     12  C   UNL     1      36.534 -18.910 -21.543  0.00  0.00    +0.191 C 
ATOM     13  C   UNL     1      34.382 -15.970 -21.038  0.00  0.00    +0.074 C 
BRANCH  10  15
ATOM     14  O   UNL     1      34.250 -17.696 -24.014  0.00  0.00    -0.245 OA
ATOM     15  C   UNL     1      34.846 -17.041 -23.173  0.00  0.00    +0.366 C 
BRANCH  15  16
ATOM     16  O   UNL     1      35.650 -15.987 -23.456  0.00  0.00    -0.477 OA
ATOM     17  H   UNL     1      35.885 -15.801 -24.345  0.00  0.00    +0.295 HD
ENDBRANCH  15  16
ENDBRANCH  10  15
ENDBRANCH   6   9
ENDBRANCH   4   6
ENDBRANCH   1   3
BRANCH   1  18
ATOM     18  C   UNL     1      33.125 -23.134 -17.536  0.00  0.00    +0.114 C 
BRANCH  18  20
ATOM     19  O   UNL     1      32.953 -23.284 -14.642  0.00  0.00    -0.226 OA
ATOM     20  N   UNL     1      34.206 -23.307 -16.593  0.00  0.00    -0.269 N 
ATOM     21  C   UNL     1      34.027 -23.367 -15.227  0.00  0.00    +0.402 C 
ATOM     22  H   UNL     1      35.122 -23.385 -16.946  0.00  0.00    +0.153 HD
BRANCH  21  23
ATOM     23  O   UNL     1      35.235 -23.534 -14.607  0.00  0.00    -0.433 OA
BRANCH  23  26
ATOM     24  O   UNL     1      38.060 -23.484 -13.941  0.00  0.00    -0.322 OA
ATOM     25  O   UNL     1      36.994 -25.563 -13.474  0.00  0.00    -0.322 OA
ATOM     26  C   UNL     1      36.231 -24.230 -15.355  0.00  0.00    +0.229 C 
ATOM     27  C   UNL     1      38.198 -24.807 -13.435  0.00  0.00    +0.280 C 
ATOM     28  C   UNL     1      37.529 -23.440 -15.266  0.00  0.00    +0.191 C 
ATOM     29  C   UNL     1      36.410 -25.626 -14.775  0.00  0.00    +0.191 C 
ATOM     30  C   UNL     1      38.580 -24.672 -11.962  0.00  0.00    +0.074 C 
BRANCH  27  32
ATOM     31  O   UNL     1      39.255 -26.656 -14.598  0.00  0.00    -0.245 OA
ATOM     32  C   UNL     1      39.333 -25.539 -14.109  0.00  0.00    +0.366 C 
BRANCH  32  33
ATOM     33  O   UNL     1      40.462 -24.788 -14.096  0.00  0.00    -0.477 OA
ATOM     34  H   UNL     1      40.617 -24.165 -14.778  0.00  0.00    +0.295 HD
ENDBRANCH  32  33
ENDBRANCH  27  32
ENDBRANCH  23  26
ENDBRANCH  21  23
ENDBRANCH  18  20
ENDBRANCH   1  18
TORSDOF 11
ENDMDL
MODEL 3
REMARK VINA RESULT:      -9.1      6.342     11.086
REMARK  Name = 4369593
REMARK  11 active torsions:
REMARK  status: ('A' for Active; 'I' for Inactive)
REMARK    1  A    between atoms: C_1  and  N_3
REMARK    2  A    between atoms: C_1  and  C_18
REMARK    3  A    between atoms: C_4  and  O_6
REMARK    4  A    between atoms: O_6  and  C_9
REMARK    5  A    between atoms: C_10  and  C_15
REMARK    6  A    between atoms: C_15  and  O_16
REMARK    7  A    between atoms: C_18  and  N_20
REMARK    8  A    between atoms: C_21  and  O_23
REMARK    9  A    between atoms: O_23  and  C_26
REMARK   10  A    between atoms: C_27  and  C_32
REMARK   11  A    between atoms: C_32  and  O_33
REMARK                            x       y       z     vdW  Elec       q    Type
REMARK                         _______ _______ _______ _____ _____    ______ ____
ROOT
ATOM      1  C   UNL     1      32.996 -13.895 -26.011  0.00  0.00    +0.114 C 
ENDROOT
BRANCH   1   3
ATOM      2  O   UNL     1      34.561 -16.340 -25.920  0.00  0.00    -0.226 OA
ATOM      3  N   UNL     1      33.163 -14.794 -24.901  0.00  0.00    -0.269 N 
ATOM      4  C   UNL     1      33.931 -15.942 -24.946  0.00  0.00    +0.402 C 
ATOM      5  H   UNL     1      32.702 -14.578 -24.058  0.00  0.00    +0.153 HD
BRANCH   4   6
ATOM      6  O   UNL     1      33.889 -16.579 -23.738  0.00  0.00    -0.433 OA
BRANCH   6   9
ATOM      7  O   UNL     1      34.238 -17.678 -21.075  0.00  0.00    -0.322 OA
ATOM      8  O   UNL     1      34.328 -19.307 -22.812  0.00  0.00    -0.322 OA
ATOM      9  C   UNL     1      35.138 -17.059 -23.243  0.00  0.00    +0.229 C 
ATOM     10  C   UNL     1      34.387 -19.053 -21.414  0.00  0.00    +0.280 C 
ATOM     11  C   UNL     1      35.173 -16.829 -21.740  0.00  0.00    +0.191 C 
ATOM     12  C   UNL     1      35.269 -18.542 -23.565  0.00  0.00    +0.191 C 
ATOM     13  C   UNL     1      33.204 -19.787 -20.787  0.00  0.00    +0.074 C 
BRANCH  10  15
ATOM     14  O   UNL     1      36.614 -19.000 -20.453  0.00  0.00    -0.245 OA
ATOM     15  C   UNL     1      35.633 -19.640 -20.797  0.00  0.00    +0.366 C 
BRANCH  15  16
ATOM     16  O   UNL     1      35.520 -20.986 -20.679  0.00  0.00    -0.477 OA
ATOM     17  H   UNL     1      35.811 -21.414 -19.897  0.00  0.00    +0.295 HD
ENDBRANCH  15  16
ENDBRANCH  10  15
ENDBRANCH   6   9
ENDBRANCH   4   6
ENDBRANCH   1   3
BRANCH   1  18
ATOM     18  C   UNL     1      33.994 -12.750 -25.972  0.00  0.00    +0.114 C 
BRANCH  18  20
ATOM     19  O   UNL     1      35.394 -10.283 -25.355  0.00  0.00    -0.226 OA
ATOM     20  N   UNL     1      33.697 -11.803 -24.922  0.00  0.00    -0.269 N 
ATOM     21  C   UNL     1      34.423 -10.651 -24.703  0.00  0.00    +0.402 C 
ATOM     22  H   UNL     1      32.934 -11.991 -24.329  0.00  0.00    +0.153 HD
BRANCH  21  23
ATOM     23  O   UNL     1      33.898  -9.965 -23.642  0.00  0.00    -0.433 OA
BRANCH  23  26
ATOM     24  O   UNL     1      31.611  -8.892 -22.213  0.00  0.00    -0.322 OA
ATOM     25  O   UNL     1      33.662  -7.782 -21.726  0.00  0.00    -0.322 OA
ATOM     26  C   UNL     1      33.303  -8.703 -23.944  0.00  0.00    +0.229 C 
ATOM     27  C   UNL     1      32.265  -7.869 -21.472  0.00  0.00    +0.280 C 
ATOM     28  C   UNL     1      31.819  -8.789 -23.622  0.00  0.00    +0.191 C 
ATOM     29  C   UNL     1      33.974  -7.621 -23.110  0.00  0.00    +0.191 C 
ATOM     30  C   UNL     1      32.113  -8.233 -19.997  0.00  0.00    +0.074 C 
BRANCH  27  32
ATOM     31  O   UNL     1      30.656  -6.319 -22.422  0.00  0.00    -0.245 OA
ATOM     32  C   UNL     1      31.585  -6.533 -21.657  0.00  0.00    +0.366 C 
BRANCH  32  33
ATOM     33  O   UNL     1      32.149  -5.595 -20.859  0.00  0.00    -0.477 OA
ATOM     34  H   UNL     1      31.610  -4.958 -20.432  0.00  0.00    +0.295 HD
ENDBRANCH  32  33
ENDBRANCH  27  32
ENDBRANCH  23  26
ENDBRANCH  21  23
ENDBRANCH  18  20
ENDBRANCH   1  18
TORSDOF 11
ENDMDL
MODEL 4
REMARK VINA RESULT:      -9.1      6.319     13.764
REMARK  Name = 4369593
REMARK  11 active torsions:
REMARK  status: ('A' for Active; 'I' for Inactive)
REMARK    1  A    between atoms: C_1  and  N_3
REMARK    2  A    between atoms: C_1  and  C_18
REMARK    3  A    between atoms: C_4  and  O_6
REMARK    4  A    between atoms: O_6  and  C_9
REMARK    5  A    between atoms: C_10  and  C_15
REMARK    6  A    between atoms: C_15  and  O_16
REMARK    7  A    between atoms: C_18  and  N_20
REMARK    8  A    between atoms: C_21  and  O_23
REMARK    9  A    between atoms: O_23  and  C_26
REMARK   10  A    between atoms: C_27  and  C_32
REMARK   11  A    between atoms: C_32  and  O_33
REMARK                            x       y       z     vdW  Elec       q    Type
REMARK                         _______ _______ _______ _____ _____    ______ ____
ROOT
ATOM      1  C   UNL     1      33.956 -12.713 -26.080  0.00  0.00    +0.114 C 
ENDROOT
BRANCH   1   3
ATOM      2  O   UNL     1      35.439 -10.314 -25.385  0.00  0.00    -0.226 OA
ATOM      3  N   UNL     1      33.688 -11.789 -25.010  0.00  0.00    -0.269 N 
ATOM      4  C   UNL     1      34.450 -10.666 -24.751  0.00  0.00    +0.402 C 
ATOM      5  H   UNL     1      32.914 -11.969 -24.429  0.00  0.00    +0.153 HD
BRANCH   4   6
ATOM      6  O   UNL     1      33.942  -9.996 -23.674  0.00  0.00    -0.433 OA
BRANCH   6   9
ATOM      7  O   UNL     1      31.638  -8.954 -22.250  0.00  0.00    -0.322 OA
ATOM      8  O   UNL     1      33.685  -7.860 -21.709  0.00  0.00    -0.322 OA
ATOM      9  C   UNL     1      33.354  -8.726 -23.952  0.00  0.00    +0.229 C 
ATOM     10  C   UNL     1      32.285  -7.950 -21.475  0.00  0.00    +0.280 C 
ATOM     11  C   UNL     1      31.865  -8.816 -23.652  0.00  0.00    +0.191 C 
ATOM     12  C   UNL     1      34.016  -7.666 -23.083  0.00  0.00    +0.191 C 
ATOM     13  C   UNL     1      32.112  -8.351 -20.011  0.00  0.00    +0.074 C 
BRANCH  10  15
ATOM     14  O   UNL     1      30.727  -6.360 -22.441  0.00  0.00    -0.245 OA
ATOM     15  C   UNL     1      31.610  -6.609 -21.635  0.00  0.00    +0.366 C 
BRANCH  15  16
ATOM     16  O   UNL     1      32.122  -5.708 -20.761  0.00  0.00    -0.477 OA
ATOM     17  H   UNL     1      32.302  -5.963 -19.877  0.00  0.00    +0.295 HD
ENDBRANCH  15  16
ENDBRANCH  10  15
ENDBRANCH   6   9
ENDBRANCH   4   6
ENDBRANCH   1   3
BRANCH   1  18
ATOM     18  C   UNL     1      32.977 -13.874 -26.089  0.00  0.00    +0.114 C 
BRANCH  18  20
ATOM     19  O   UNL     1      34.570 -16.294 -25.901  0.00  0.00    -0.226 OA
ATOM     20  N   UNL     1      33.144 -14.738 -24.942  0.00  0.00    -0.269 N 
ATOM     21  C   UNL     1      33.926 -15.873 -24.947  0.00  0.00    +0.402 C 
ATOM     22  H   UNL     1      32.672 -14.501 -24.110  0.00  0.00    +0.153 HD
BRANCH  21  23
ATOM     23  O   UNL     1      33.881 -16.473 -23.718  0.00  0.00    -0.433 OA
BRANCH  23  26
ATOM     24  O   UNL     1      34.195 -17.616 -21.069  0.00  0.00    -0.322 OA
ATOM     25  O   UNL     1      34.294 -19.218 -22.830  0.00  0.00    -0.322 OA
ATOM     26  C   UNL     1      35.122 -16.969 -23.218  0.00  0.00    +0.229 C 
ATOM     27  C   UNL     1      34.341 -18.986 -21.427  0.00  0.00    +0.280 C 
ATOM     28  C   UNL     1      35.143 -16.762 -21.711  0.00  0.00    +0.191 C 
ATOM     29  C   UNL     1      35.247 -18.447 -23.561  0.00  0.00    +0.191 C 
ATOM     30  C   UNL     1      33.147 -19.722 -20.824  0.00  0.00    +0.074 C 
BRANCH  27  32
ATOM     31  O   UNL     1      36.613 -18.985 -20.575  0.00  0.00    -0.245 OA
ATOM     32  C   UNL     1      35.577 -19.590 -20.807  0.00  0.00    +0.366 C 
BRANCH  32  33
ATOM     33  O   UNL     1      35.386 -20.906 -20.543  0.00  0.00    -0.477 OA
ATOM     34  H   UNL     1      34.627 -21.183 -20.069  0.00  0.00    +0.295 HD
ENDBRANCH  32  33
ENDBRANCH  27  32
ENDBRANCH  23  26
ENDBRANCH  21  23
ENDBRANCH  18  20
ENDBRANCH   1  18
TORSDOF 11
ENDMDL
MODEL 5
REMARK VINA RESULT:      -9.1      2.291      8.949
REMARK  Name = 4369593
REMARK  11 active torsions:
REMARK  status: ('A' for Active; 'I' for Inactive)
REMARK    1  A    between atoms: C_1  and  N_3
REMARK    2  A    between atoms: C_1  and  C_18
REMARK    3  A    between atoms: C_4  and  O_6
REMARK    4  A    between atoms: O_6  and  C_9
REMARK    5  A    between atoms: C_10  and  C_15
REMARK    6  A    between atoms: C_15  and  O_16
REMARK    7  A    between atoms: C_18  and  N_20
REMARK    8  A    between atoms: C_21  and  O_23
REMARK    9  A    between atoms: O_23  and  C_26
REMARK   10  A    between atoms: C_27  and  C_32
REMARK   11  A    between atoms: C_32  and  O_33
REMARK                            x       y       z     vdW  Elec       q    Type
REMARK                         _______ _______ _______ _____ _____    ______ ____
ROOT
ATOM      1  C   UNL     1      37.064 -22.363 -17.066  0.00  0.00    +0.114 C 
ENDROOT
BRANCH   1   3
ATOM      2  O   UNL     1      35.007 -22.712 -19.087  0.00  0.00    -0.226 OA
ATOM      3  N   UNL     1      36.442 -21.350 -17.875  0.00  0.00    -0.269 N 
ATOM      4  C   UNL     1      35.465 -21.606 -18.819  0.00  0.00    +0.402 C 
ATOM      5  H   UNL     1      36.730 -20.417 -17.749  0.00  0.00    +0.153 HD
BRANCH   4   6
ATOM      6  O   UNL     1      35.078 -20.441 -19.418  0.00  0.00    -0.433 OA
BRANCH   6   9
ATOM      7  O   UNL     1      33.735 -18.531 -21.141  0.00  0.00    -0.322 OA
ATOM      8  O   UNL     1      36.041 -18.051 -20.779  0.00  0.00    -0.322 OA
ATOM      9  C   UNL     1      35.298 -20.361 -20.825  0.00  0.00    +0.229 C 
ATOM     10  C   UNL     1      34.826 -17.655 -21.403  0.00  0.00    +0.280 C 
ATOM     11  C   UNL     1      34.009 -19.890 -21.481  0.00  0.00    +0.191 C 
ATOM     12  C   UNL     1      36.433 -19.385 -21.102  0.00  0.00    +0.191 C 
ATOM     13  C   UNL     1      34.450 -16.300 -20.807  0.00  0.00    +0.074 C 
BRANCH  10  15
ATOM     14  O   UNL     1      34.617 -18.188 -23.761  0.00  0.00    -0.245 OA
ATOM     15  C   UNL     1      35.012 -17.435 -22.885  0.00  0.00    +0.366 C 
BRANCH  15  16
ATOM     16  O   UNL     1      35.685 -16.281 -23.117  0.00  0.00    -0.477 OA
ATOM     17  H   UNL     1      35.604 -15.850 -23.945  0.00  0.00    +0.295 HD
ENDBRANCH  15  16
ENDBRANCH  10  15
ENDBRANCH   6   9
ENDBRANCH   4   6
ENDBRANCH   1   3
BRANCH   1  18
ATOM     18  C   UNL     1      36.614 -22.290 -15.617  0.00  0.00    +0.114 C 
BRANCH  18  20
ATOM     19  O   UNL     1      35.587 -25.005 -15.539  0.00  0.00    -0.226 OA
ATOM     20  N   UNL     1      35.242 -22.714 -15.450  0.00  0.00    -0.269 N 
ATOM     21  C   UNL     1      34.847 -24.034 -15.425  0.00  0.00    +0.402 C 
ATOM     22  H   UNL     1      34.551 -22.019 -15.348  0.00  0.00    +0.153 HD
BRANCH  21  23
ATOM     23  O   UNL     1      33.492 -24.110 -15.253  0.00  0.00    -0.433 OA
BRANCH  23  26
ATOM     24  O   UNL     1      30.929 -24.043 -16.613  0.00  0.00    -0.322 OA
ATOM     25  O   UNL     1      30.791 -23.627 -14.271  0.00  0.00    -0.322 OA
ATOM     26  C   UNL     1      32.761 -22.908 -15.494  0.00  0.00    +0.229 C 
ATOM     27  C   UNL     1      30.087 -23.765 -15.500  0.00  0.00    +0.280 C 
ATOM     28  C   UNL     1      31.973 -23.083 -16.783  0.00  0.00    +0.191 C 
ATOM     29  C   UNL     1      31.827 -22.646 -14.321  0.00  0.00    +0.191 C 
ATOM     30  C   UNL     1      29.165 -24.971 -15.339  0.00  0.00    +0.074 C 
BRANCH  27  32
ATOM     31  O   UNL     1      28.733 -21.841 -14.904  0.00  0.00    -0.245 OA
ATOM     32  C   UNL     1      29.197 -22.575 -15.764  0.00  0.00    +0.366 C 
BRANCH  32  33
ATOM     33  O   UNL     1      28.977 -22.427 -17.093  0.00  0.00    -0.477 OA
ATOM     34  H   UNL     1      29.585 -21.946 -17.618  0.00  0.00    +0.295 HD
ENDBRANCH  32  33
ENDBRANCH  27  32
ENDBRANCH  23  26
ENDBRANCH  21  23
ENDBRANCH  18  20
ENDBRANCH   1  18
TORSDOF 11
ENDMDL
MODEL 6
REMARK VINA RESULT:      -9.1      2.306      5.201
REMARK  Name = 4369593
REMARK  11 active torsions:
REMARK  status: ('A' for Active; 'I' for Inactive)
REMARK    1  A    between atoms: C_1  and  N_3
REMARK    2  A    between atoms: C_1  and  C_18
REMARK    3  A    between atoms: C_4  and  O_6
REMARK    4  A    between atoms: O_6  and  C_9
REMARK    5  A    between atoms: C_10  and  C_15
REMARK    6  A    between atoms: C_15  and  O_16
REMARK    7  A    between atoms: C_18  and  N_20
REMARK    8  A    between atoms: C_21  and  O_23
REMARK    9  A    between atoms: O_23  and  C_26
REMARK   10  A    between atoms: C_27  and  C_32
REMARK   11  A    between atoms: C_32  and  O_33
REMARK                            x       y       z     vdW  Elec       q    Type
REMARK                         _______ _______ _______ _____ _____    ______ ____
ROOT
ATOM      1  C   UNL     1      36.600 -22.289 -15.566  0.00  0.00    +0.114 C 
ENDROOT
BRANCH   1   3
ATOM      2  O   UNL     1      35.521 -24.986 -15.571  0.00  0.00    -0.226 OA
ATOM      3  N   UNL     1      35.238 -22.694 -15.346  0.00  0.00    -0.269 N 
ATOM      4  C   UNL     1      34.809 -24.008 -15.366  0.00  0.00    +0.402 C 
ATOM      5  H   UNL     1      34.570 -21.992 -15.170  0.00  0.00    +0.153 HD
BRANCH   4   6
ATOM      6  O   UNL     1      33.466 -24.064 -15.123  0.00  0.00    -0.433 OA
BRANCH   6   9
ATOM      7  O   UNL     1      30.926 -24.078 -16.526  0.00  0.00    -0.322 OA
ATOM      8  O   UNL     1      30.745 -23.566 -14.206  0.00  0.00    -0.322 OA
ATOM      9  C   UNL     1      32.729 -22.881 -15.426  0.00  0.00    +0.229 C 
ATOM     10  C   UNL     1      30.063 -23.763 -15.439  0.00  0.00    +0.280 C 
ATOM     11  C   UNL     1      31.964 -23.117 -16.720  0.00  0.00    +0.191 C 
ATOM     12  C   UNL     1      31.772 -22.578 -14.281  0.00  0.00    +0.191 C 
ATOM     13  C   UNL     1      29.149 -24.971 -15.244  0.00  0.00    +0.074 C 
BRANCH  10  15
ATOM     14  O   UNL     1      28.647 -21.856 -14.945  0.00  0.00    -0.245 OA
ATOM     15  C   UNL     1      29.166 -22.594 -15.768  0.00  0.00    +0.366 C 
BRANCH  15  16
ATOM     16  O   UNL     1      29.010 -22.473 -17.109  0.00  0.00    -0.477 OA
ATOM     17  H   UNL     1      29.182 -21.652 -17.528  0.00  0.00    +0.295 HD
ENDBRANCH  15  16
ENDBRANCH  10  15
ENDBRANCH   6   9
ENDBRANCH   4   6
ENDBRANCH   1   3
BRANCH   1  18
ATOM     18  C   UNL     1      36.999 -22.404 -17.027  0.00  0.00    +0.114 C 
BRANCH  18  20
ATOM     19  O   UNL     1      35.005 -22.755 -19.108  0.00  0.00    -0.226 OA
ATOM     20  N   UNL     1      36.382 -21.383 -17.843  0.00  0.00    -0.269 N 
ATOM     21  C   UNL     1      35.438 -21.646 -18.814  0.00  0.00    +0.402 C 
ATOM     22  H   UNL     1      36.651 -20.447 -17.698  0.00  0.00    +0.153 HD
BRANCH  21  23
ATOM     23  O   UNL     1      35.047 -20.479 -19.410  0.00  0.00    -0.433 OA
BRANCH  23  26
ATOM     24  O   UNL     1      33.749 -18.509 -21.101  0.00  0.00    -0.322 OA
ATOM     25  O   UNL     1      36.074 -18.113 -20.767  0.00  0.00    -0.322 OA
ATOM     26  C   UNL     1      35.251 -20.397 -20.820  0.00  0.00    +0.229 C 
ATOM     27  C   UNL     1      34.865 -17.671 -21.373  0.00  0.00    +0.280 C 
ATOM     28  C   UNL     1      33.970 -19.875 -21.455  0.00  0.00    +0.191 C 
ATOM     29  C   UNL     1      36.415 -19.458 -21.104  0.00  0.00    +0.191 C 
ATOM     30  C   UNL     1      34.546 -16.308 -20.762  0.00  0.00    +0.074 C 
BRANCH  27  32
ATOM     31  O   UNL     1      34.640 -18.201 -23.731  0.00  0.00    -0.245 OA
ATOM     32  C   UNL     1      35.040 -17.447 -22.856  0.00  0.00    +0.366 C 
BRANCH  32  33
ATOM     33  O   UNL     1      35.706 -16.291 -23.090  0.00  0.00    -0.477 OA
ATOM     34  H   UNL     1      35.268 -15.469 -22.991  0.00  0.00    +0.295 HD
ENDBRANCH  32  33
ENDBRANCH  27  32
ENDBRANCH  23  26
ENDBRANCH  21  23
ENDBRANCH  18  20
ENDBRANCH   1  18
TORSDOF 11
ENDMDL
MODEL 7
REMARK VINA RESULT:      -8.9      2.312      3.836
REMARK  Name = 4369593
REMARK  11 active torsions:
REMARK  status: ('A' for Active; 'I' for Inactive)
REMARK    1  A    between atoms: C_1  and  N_3
REMARK    2  A    between atoms: C_1  and  C_18
REMARK    3  A    between atoms: C_4  and  O_6
REMARK    4  A    between atoms: O_6  and  C_9
REMARK    5  A    between atoms: C_10  and  C_15
REMARK    6  A    between atoms: C_15  and  O_16
REMARK    7  A    between atoms: C_18  and  N_20
REMARK    8  A    between atoms: C_21  and  O_23
REMARK    9  A    between atoms: O_23  and  C_26
REMARK   10  A    between atoms: C_27  and  C_32
REMARK   11  A    between atoms: C_32  and  O_33
REMARK                            x       y       z     vdW  Elec       q    Type
REMARK                         _______ _______ _______ _____ _____    ______ ____
ROOT
ATOM      1  C   UNL     1      34.647 -20.938 -19.875  0.00  0.00    +0.114 C 
ENDROOT
BRANCH   1   3
ATOM      2  O   UNL     1      32.674 -22.456 -18.379  0.00  0.00    -0.226 OA
ATOM      3  N   UNL     1      34.882 -21.946 -18.877  0.00  0.00    -0.269 N 
ATOM      4  C   UNL     1      33.877 -22.623 -18.211  0.00  0.00    +0.402 C 
ATOM      5  H   UNL     1      35.815 -22.168 -18.656  0.00  0.00    +0.153 HD
BRANCH   4   6
ATOM      6  O   UNL     1      34.420 -23.513 -17.329  0.00  0.00    -0.433 OA
BRANCH   6   9
ATOM      7  O   UNL     1      34.753 -25.255 -15.032  0.00  0.00    -0.322 OA
ATOM      8  O   UNL     1      36.752 -24.144 -15.699  0.00  0.00    -0.322 OA
ATOM      9  C   UNL     1      34.615 -23.033 -16.000  0.00  0.00    +0.229 C 
ATOM     10  C   UNL     1      36.142 -25.058 -14.796  0.00  0.00    +0.280 C 
ATOM     11  C   UNL     1      34.004 -24.040 -15.037  0.00  0.00    +0.191 C 
ATOM     12  C   UNL     1      36.106 -22.872 -15.738  0.00  0.00    +0.191 C 
ATOM     13  C   UNL     1      36.818 -26.409 -15.019  0.00  0.00    +0.074 C 
BRANCH  10  15
ATOM     14  O   UNL     1      36.695 -23.553 -12.974  0.00  0.00    -0.245 OA
ATOM     15  C   UNL     1      36.409 -24.676 -13.360  0.00  0.00    +0.366 C 
BRANCH  15  16
ATOM     16  O   UNL     1      36.291 -25.755 -12.548  0.00  0.00    -0.477 OA
ATOM     17  H   UNL     1      37.056 -26.139 -12.164  0.00  0.00    +0.295 HD
ENDBRANCH  15  16
ENDBRANCH  10  15
ENDBRANCH   6   9
ENDBRANCH   4   6
ENDBRANCH   1   3
BRANCH   1  18
ATOM     18  C   UNL     1      35.942 -20.336 -20.393  0.00  0.00    +0.114 C 
BRANCH  18  20
ATOM     19  O   UNL     1      35.041 -19.029 -22.823  0.00  0.00    -0.226 OA
ATOM     20  N   UNL     1      35.823 -18.917 -20.643  0.00  0.00    -0.269 N 
ATOM     21  C   UNL     1      35.382 -18.386 -21.837  0.00  0.00    +0.402 C 
ATOM     22  H   UNL     1      36.070 -18.296 -19.920  0.00  0.00    +0.153 HD
BRANCH  21  23
ATOM     23  O   UNL     1      35.380 -17.020 -21.764  0.00  0.00    -0.433 OA
BRANCH  23  26
ATOM     24  O   UNL     1      34.815 -14.173 -21.727  0.00  0.00    -0.322 OA
ATOM     25  O   UNL     1      33.189 -15.465 -22.894  0.00  0.00    -0.322 OA
ATOM     26  C   UNL     1      34.335 -16.436 -20.987  0.00  0.00    +0.229 C 
ATOM     27  C   UNL     1      33.607 -14.170 -22.478  0.00  0.00    +0.280 C 
ATOM     28  C   UNL     1      34.769 -15.033 -20.588  0.00  0.00    +0.191 C 
ATOM     29  C   UNL     1      33.059 -16.390 -21.815  0.00  0.00    +0.191 C 
ATOM     30  C   UNL     1      33.886 -13.373 -23.750  0.00  0.00    +0.074 C 
BRANCH  27  32
ATOM     31  O   UNL     1      32.395 -13.373 -20.532  0.00  0.00    -0.245 OA
ATOM     32  C   UNL     1      32.504 -13.443 -21.747  0.00  0.00    +0.366 C 
BRANCH  32  33
ATOM     33  O   UNL     1      31.642 -12.874 -22.625  0.00  0.00    -0.477 OA
ATOM     34  H   UNL     1      31.694 -13.085 -23.536  0.00  0.00    +0.295 HD
ENDBRANCH  32  33
ENDBRANCH  27  32
ENDBRANCH  23  26
ENDBRANCH  21  23
ENDBRANCH  18  20
ENDBRANCH   1  18
TORSDOF 11
ENDMDL
MODEL 8
REMARK VINA RESULT:      -8.9      2.087      3.473
REMARK  Name = 4369593
REMARK  11 active torsions:
REMARK  status: ('A' for Active; 'I' for Inactive)
REMARK    1  A    between atoms: C_1  and  N_3
REMARK    2  A    between atoms: C_1  and  C_18
REMARK    3  A    between atoms: C_4  and  O_6
REMARK    4  A    between atoms: O_6  and  C_9
REMARK    5  A    between atoms: C_10  and  C_15
REMARK    6  A    between atoms: C_15  and  O_16
REMARK    7  A    between atoms: C_18  and  N_20
REMARK    8  A    between atoms: C_21  and  O_23
REMARK    9  A    between atoms: O_23  and  C_26
REMARK   10  A    between atoms: C_27  and  C_32
REMARK   11  A    between atoms: C_32  and  O_33
REMARK                            x       y       z     vdW  Elec       q    Type
REMARK                         _______ _______ _______ _____ _____    ______ ____
ROOT
ATOM      1  C   UNL     1      37.546 -22.401 -16.704  0.00  0.00    +0.114 C 
ENDROOT
BRANCH   1   3
ATOM      2  O   UNL     1      39.726 -23.932 -15.545  0.00  0.00    -0.226 OA
ATOM      3  N   UNL     1      37.457 -23.510 -15.793  0.00  0.00    -0.269 N 
ATOM      4  C   UNL     1      38.553 -24.185 -15.288  0.00  0.00    +0.402 C 
ATOM      5  H   UNL     1      36.561 -23.806 -15.511  0.00  0.00    +0.153 HD
BRANCH   4   6
ATOM      6  O   UNL     1      38.141 -25.184 -14.453  0.00  0.00    -0.433 OA
BRANCH   6   9
ATOM      7  O   UNL     1      36.571 -23.382 -12.806  0.00  0.00    -0.322 OA
ATOM      8  O   UNL     1      36.174 -25.690 -12.363  0.00  0.00    -0.322 OA
ATOM      9  C   UNL     1      38.385 -24.975 -13.063  0.00  0.00    +0.229 C 
ATOM     10  C   UNL     1      35.846 -24.342 -12.045  0.00  0.00    +0.280 C 
ATOM     11  C   UNL     1      37.987 -23.547 -12.720  0.00  0.00    +0.191 C 
ATOM     12  C   UNL     1      37.568 -25.972 -12.254  0.00  0.00    +0.191 C 
ATOM     13  C   UNL     1      34.372 -24.156 -12.399  0.00  0.00    +0.074 C 
BRANCH  10  15
ATOM     14  O   UNL     1      36.646 -23.195 -10.062  0.00  0.00    -0.245 OA
ATOM     15  C   UNL     1      35.969 -24.079 -10.564  0.00  0.00    +0.366 C 
BRANCH  15  16
ATOM     16  O   UNL     1      35.223 -24.963  -9.857  0.00  0.00    -0.477 OA
ATOM     17  H   UNL     1      34.744 -24.675  -9.104  0.00  0.00    +0.295 HD
ENDBRANCH  15  16
ENDBRANCH  10  15
ENDBRANCH   6   9
ENDBRANCH   4   6
ENDBRANCH   1   3
BRANCH   1  18
ATOM     18  C   UNL     1      36.186 -22.002 -17.250  0.00  0.00    +0.114 C 
BRANCH  18  20
ATOM     19  O   UNL     1      34.731 -22.627 -19.683  0.00  0.00    -0.226 OA
ATOM     20  N   UNL     1      36.285 -21.345 -18.533  0.00  0.00    -0.269 N 
ATOM     21  C   UNL     1      35.549 -21.714 -19.640  0.00  0.00    +0.402 C 
ATOM     22  H   UNL     1      36.913 -20.593 -18.622  0.00  0.00    +0.153 HD
BRANCH  21  23
ATOM     23  O   UNL     1      35.864 -20.906 -20.698  0.00  0.00    -0.433 OA
BRANCH  23  26
ATOM     24  O   UNL     1      36.359 -18.911 -22.747  0.00  0.00    -0.322 OA
ATOM     25  O   UNL     1      34.051 -19.237 -22.253  0.00  0.00    -0.322 OA
ATOM     26  C   UNL     1      35.696 -19.505 -20.487  0.00  0.00    +0.229 C 
ATOM     27  C   UNL     1      35.015 -18.544 -23.037  0.00  0.00    +0.280 C 
ATOM     28  C   UNL     1      36.697 -18.770 -21.367  0.00  0.00    +0.191 C 
ATOM     29  C   UNL     1      34.271 -19.111 -20.848  0.00  0.00    +0.191 C 
ATOM     30  C   UNL     1      34.759 -18.938 -24.490  0.00  0.00    +0.074 C 
BRANCH  27  32
ATOM     31  O   UNL     1      33.925 -16.490 -22.343  0.00  0.00    -0.245 OA
ATOM     32  C   UNL     1      34.822 -17.049 -22.956  0.00  0.00    +0.366 C 
BRANCH  32  33
ATOM     33  O   UNL     1      35.782 -16.404 -23.661  0.00  0.00    -0.477 OA
ATOM     34  H   UNL     1      35.546 -15.868 -24.393  0.00  0.00    +0.295 HD
ENDBRANCH  32  33
ENDBRANCH  27  32
ENDBRANCH  23  26
ENDBRANCH  21  23
ENDBRANCH  18  20
ENDBRANCH   1  18
TORSDOF 11
ENDMDL
MODEL 9
REMARK VINA RESULT:      -8.7      6.672     11.246
REMARK  Name = 4369593
REMARK  11 active torsions:
REMARK  status: ('A' for Active; 'I' for Inactive)
REMARK    1  A    between atoms: C_1  and  N_3
REMARK    2  A    between atoms: C_1  and  C_18
REMARK    3  A    between atoms: C_4  and  O_6
REMARK    4  A    between atoms: O_6  and  C_9
REMARK    5  A    between atoms: C_10  and  C_15
REMARK    6  A    between atoms: C_15  and  O_16
REMARK    7  A    between atoms: C_18  and  N_20
REMARK    8  A    between atoms: C_21  and  O_23
REMARK    9  A    between atoms: O_23  and  C_26
REMARK   10  A    between atoms: C_27  and  C_32
REMARK   11  A    between atoms: C_32  and  O_33
REMARK                            x       y       z     vdW  Elec       q    Type
REMARK                         _______ _______ _______ _____ _____    ______ ____
ROOT
ATOM      1  C   UNL     1      33.321 -13.877 -24.626  0.00  0.00    +0.114 C 
ENDROOT
BRANCH   1   3
ATOM      2  O   UNL     1      34.589 -16.091 -26.013  0.00  0.00    -0.226 OA
ATOM      3  N   UNL     1      33.427 -15.244 -24.192  0.00  0.00    -0.269 N 
ATOM      4  C   UNL     1      34.053 -16.239 -24.920  0.00  0.00    +0.402 C 
ATOM      5  H   UNL     1      33.031 -15.485 -23.324  0.00  0.00    +0.153 HD
BRANCH   4   6
ATOM      6  O   UNL     1      33.987 -17.423 -24.243  0.00  0.00    -0.433 OA
BRANCH   6   9
ATOM      7  O   UNL     1      34.325 -17.848 -21.392  0.00  0.00    -0.322 OA
ATOM      8  O   UNL     1      34.227 -19.861 -22.664  0.00  0.00    -0.322 OA
ATOM      9  C   UNL     1      35.206 -17.873 -23.654  0.00  0.00    +0.229 C 
ATOM     10  C   UNL     1      34.350 -19.271 -21.375  0.00  0.00    +0.280 C 
ATOM     11  C   UNL     1      35.306 -17.278 -22.258  0.00  0.00    +0.191 C 
ATOM     12  C   UNL     1      35.203 -19.394 -23.594  0.00  0.00    +0.191 C 
ATOM     13  C   UNL     1      33.130 -19.718 -20.572  0.00  0.00    +0.074 C 
BRANCH  10  15
ATOM     14  O   UNL     1      36.548 -19.132 -20.358  0.00  0.00    -0.245 OA
ATOM     15  C   UNL     1      35.561 -19.793 -20.642  0.00  0.00    +0.366 C 
BRANCH  15  16
ATOM     16  O   UNL     1      35.409 -21.106 -20.340  0.00  0.00    -0.477 OA
ATOM     17  H   UNL     1      36.124 -21.588 -19.971  0.00  0.00    +0.295 HD
ENDBRANCH  15  16
ENDBRANCH  10  15
ENDBRANCH   6   9
ENDBRANCH   4   6
ENDBRANCH   1   3
BRANCH   1  18
ATOM     18  C   UNL     1      33.931 -12.912 -23.624  0.00  0.00    +0.114 C 
BRANCH  18  20
ATOM     19  O   UNL     1      34.972 -10.586 -25.014  0.00  0.00    -0.226 OA
ATOM     20  N   UNL     1      33.344 -11.595 -23.708  0.00  0.00    -0.269 N 
ATOM     21  C   UNL     1      33.915 -10.544 -24.395  0.00  0.00    +0.402 C 
ATOM     22  H   UNL     1      32.487 -11.438 -23.247  0.00  0.00    +0.153 HD
BRANCH  21  23
ATOM     23  O   UNL     1      33.123  -9.434 -24.289  0.00  0.00    -0.433 OA
BRANCH  23  26
ATOM     24  O   UNL     1      33.036  -6.651 -23.468  0.00  0.00    -0.322 OA
ATOM     25  O   UNL     1      30.892  -7.679 -23.626  0.00  0.00    -0.322 OA
ATOM     26  C   UNL     1      32.807  -9.015 -22.961  0.00  0.00    +0.229 C 
ATOM     27  C   UNL     1      31.627  -6.495 -23.340  0.00  0.00    +0.280 C 
ATOM     28  C   UNL     1      33.558  -7.722 -22.681  0.00  0.00    +0.191 C 
ATOM     29  C   UNL     1      31.305  -8.801 -22.847  0.00  0.00    +0.191 C 
ATOM     30  C   UNL     1      31.207  -5.460 -24.381  0.00  0.00    +0.074 C 
BRANCH  27  32
ATOM     31  O   UNL     1      31.937  -6.013 -20.982  0.00  0.00    -0.245 OA
ATOM     32  C   UNL     1      31.256  -5.926 -21.992  0.00  0.00    +0.366 C 
BRANCH  32  33
ATOM     33  O   UNL     1      30.054  -5.303 -22.051  0.00  0.00    -0.477 OA
ATOM     34  H   UNL     1      29.564  -5.304 -22.849  0.00  0.00    +0.295 HD
ENDBRANCH  32  33
ENDBRANCH  27  32
ENDBRANCH  23  26
ENDBRANCH  21  23
ENDBRANCH  18  20
ENDBRANCH   1  18
TORSDOF 11
ENDMDL
