MODEL 1
REMARK VINA RESULT:     -11.3      0.000      0.000
REMARK  Name = 42627769
REMARK  10 active torsions:
REMARK  status: ('A' for Active; 'I' for Inactive)
REMARK    1  A    between atoms: C_1  and  C_3
REMARK    2  A    between atoms: C_1  and  N_6
REMARK    3  A    between atoms: C_1  and  C_22
REMARK    4  A    between atoms: C_3  and  O_4
REMARK    5  A    between atoms: N_6  and  S_8
REMARK    6  A    between atoms: S_8  and  C_11
REMARK    7  A    between atoms: C_16  and  O_17
REMARK    8  A    between atoms: O_17  and  C_18
REMARK    9  A    between atoms: C_18  and  C_19
REMARK   10  A    between atoms: C_22  and  C_24
REMARK                            x       y       z     vdW  Elec       q    Type
REMARK                         _______ _______ _______ _____ _____    ______ ____
ROOT
ATOM      1  C   UNL     1      34.867 -23.351 -16.304  0.00  0.00    +0.178 C 
ENDROOT
BRANCH   1   3
ATOM      2  O   UNL     1      36.992 -22.556 -15.420  0.00  0.00    -0.249 OA
ATOM      3  C   UNL     1      36.264 -23.486 -15.741  0.00  0.00    +0.330 C 
BRANCH   3   4
ATOM      4  O   UNL     1      36.636 -24.788 -15.621  0.00  0.00    -0.479 OA
ATOM      5  H   UNL     1      37.530 -25.005 -15.441  0.00  0.00    +0.295 HD
ENDBRANCH   3   4
ENDBRANCH   1   3
BRANCH   1   6
ATOM      6  N   UNL     1      34.960 -22.460 -17.484  0.00  0.00    -0.170 NA
ATOM      7  H   UNL     1      34.887 -21.503 -17.140  0.00  0.00    +0.149 HD
BRANCH   6   8
ATOM      8  S   UNL     1      33.837 -22.612 -18.749  0.00  0.00    +0.061 S 
ATOM      9  O   UNL     1      32.498 -22.392 -18.236  0.00  0.00    -0.153 OA
ATOM     10  O   UNL     1      34.141 -23.815 -19.502  0.00  0.00    -0.153 OA
BRANCH   8  11
ATOM     11  C   UNL     1      34.258 -21.239 -19.778  0.00  0.00    +0.122 C 
ATOM     12  C   UNL     1      33.252 -20.490 -20.387  0.00  0.00    +0.023 C 
ATOM     13  C   UNL     1      35.598 -20.906 -19.985  0.00  0.00    +0.023 C 
ATOM     14  C   UNL     1      33.584 -19.407 -21.202  0.00  0.00    +0.038 C 
ATOM     15  C   UNL     1      35.929 -19.824 -20.799  0.00  0.00    +0.038 C 
ATOM     16  C   UNL     1      34.923 -19.074 -21.407  0.00  0.00    +0.140 C 
BRANCH  16  17
ATOM     17  O   UNL     1      35.247 -18.019 -22.203  0.00  0.00    -0.461 OA
BRANCH  17  18
ATOM     18  C   UNL     1      35.454 -18.288 -23.588  0.00  0.00    +0.281 C 
BRANCH  18  19
ATOM     19  C   UNL     1      34.744 -17.298 -24.395  0.00  0.00    -0.044 C 
ATOM     20  C   UNL     1      34.162 -16.484 -25.060  0.00  0.00    -0.086 C 
ATOM     21  C   UNL     1      33.453 -15.494 -25.869  0.00  0.00    +0.090 C 
ENDBRANCH  18  19
ENDBRANCH  17  18
ENDBRANCH  16  17
ENDBRANCH   8  11
ENDBRANCH   6   8
ENDBRANCH   1   6
BRANCH   1  22
ATOM     22  C   UNL     1      33.888 -22.743 -15.277  0.00  0.00    +0.056 C 
BRANCH  22  24
ATOM     23  N   UNL     1      32.039 -25.385 -13.564  0.00  0.00    -0.312 N 
ATOM     24  C   UNL     1      32.917 -23.712 -14.729  0.00  0.00    -0.004 C 
ATOM     25  C   UNL     1      31.531 -23.791 -15.041  0.00  0.00    +0.010 C 
ATOM     26  C   UNL     1      31.004 -24.849 -14.297  0.00  0.00    +0.048 C 
ATOM     27  C   UNL     1      33.199 -24.704 -13.818  0.00  0.00    +0.058 C 
ATOM     28  C   UNL     1      30.673 -23.064 -15.888  0.00  0.00    -0.003 C 
ATOM     29  C   UNL     1      29.655 -25.217 -14.358  0.00  0.00    +0.014 C 
ATOM     30  C   UNL     1      29.321 -23.420 -15.959  0.00  0.00    -0.022 C 
ATOM     31  C   UNL     1      28.822 -24.480 -15.204  0.00  0.00    -0.003 C 
ATOM     32  C   UNL     1      28.404 -22.652 -16.853  0.00  0.00    +0.031 C 
ATOM     33  H   UNL     1      31.957 -26.147 -12.946  0.00  0.00    +0.152 HD
ENDBRANCH  22  24
ENDBRANCH   1  22
TORSDOF 10
ENDMDL
MODEL 2
REMARK VINA RESULT:     -10.7      5.829     12.812
REMARK  Name = 42627769
REMARK  10 active torsions:
REMARK  status: ('A' for Active; 'I' for Inactive)
REMARK    1  A    between atoms: C_1  and  C_3
REMARK    2  A    between atoms: C_1  and  N_6
REMARK    3  A    between atoms: C_1  and  C_22
REMARK    4  A    between atoms: C_3  and  O_4
REMARK    5  A    between atoms: N_6  and  S_8
REMARK    6  A    between atoms: S_8  and  C_11
REMARK    7  A    between atoms: C_16  and  O_17
REMARK    8  A    between atoms: O_17  and  C_18
REMARK    9  A    between atoms: C_18  and  C_19
REMARK   10  A    between atoms: C_22  and  C_24
REMARK                            x       y       z     vdW  Elec       q    Type
REMARK                         _______ _______ _______ _____ _____    ______ ____
ROOT
ATOM      1  C   UNL     1      33.796 -13.758 -25.330  0.00  0.00    +0.178 C 
ENDROOT
BRANCH   1   3
ATOM      2  O   UNL     1      33.722 -13.536 -27.753  0.00  0.00    -0.249 OA
ATOM      3  C   UNL     1      33.180 -13.867 -26.707  0.00  0.00    +0.330 C 
BRANCH   3   4
ATOM      4  O   UNL     1      31.927 -14.392 -26.660  0.00  0.00    -0.479 OA
ATOM      5  H   UNL     1      31.294 -14.042 -26.065  0.00  0.00    +0.295 HD
ENDBRANCH   3   4
ENDBRANCH   1   3
BRANCH   1   6
ATOM      6  N   UNL     1      33.533 -15.040 -24.635  0.00  0.00    -0.170 NA
ATOM      7  H   UNL     1      33.877 -14.936 -23.681  0.00  0.00    +0.149 HD
BRANCH   6   8
ATOM      8  S   UNL     1      34.198 -16.481 -25.241  0.00  0.00    +0.061 S 
ATOM      9  O   UNL     1      35.443 -16.188 -25.926  0.00  0.00    -0.153 OA
ATOM     10  O   UNL     1      33.154 -17.231 -25.914  0.00  0.00    -0.153 OA
BRANCH   8  11
ATOM     11  C   UNL     1      34.586 -17.356 -23.756  0.00  0.00    +0.122 C 
ATOM     12  C   UNL     1      34.843 -16.653 -22.579  0.00  0.00    +0.023 C 
ATOM     13  C   UNL     1      34.640 -18.750 -23.761  0.00  0.00    +0.023 C 
ATOM     14  C   UNL     1      35.152 -17.343 -21.407  0.00  0.00    +0.038 C 
ATOM     15  C   UNL     1      34.949 -19.440 -22.589  0.00  0.00    +0.038 C 
ATOM     16  C   UNL     1      35.204 -18.737 -21.412  0.00  0.00    +0.140 C 
BRANCH  16  17
ATOM     17  O   UNL     1      35.506 -19.410 -20.268  0.00  0.00    -0.461 OA
BRANCH  17  18
ATOM     18  C   UNL     1      35.823 -20.795 -20.394  0.00  0.00    +0.281 C 
BRANCH  18  19
ATOM     19  C   UNL     1      34.956 -21.581 -19.517  0.00  0.00    -0.044 C 
ATOM     20  C   UNL     1      34.246 -22.227 -18.794  0.00  0.00    -0.086 C 
ATOM     21  C   UNL     1      33.381 -23.011 -17.915  0.00  0.00    +0.090 C 
ENDBRANCH  18  19
ENDBRANCH  17  18
ENDBRANCH  16  17
ENDBRANCH   8  11
ENDBRANCH   6   8
ENDBRANCH   1   6
BRANCH   1  22
ATOM     22  C   UNL     1      33.185 -12.598 -24.515  0.00  0.00    +0.056 C 
BRANCH  22  24
ATOM     23  N   UNL     1      35.371  -9.785 -25.318  0.00  0.00    -0.312 N 
ATOM     24  C   UNL     1      33.929 -11.327 -24.633  0.00  0.00    -0.004 C 
ATOM     25  C   UNL     1      33.730 -10.154 -23.852  0.00  0.00    +0.010 C 
ATOM     26  C   UNL     1      34.647  -9.203 -24.303  0.00  0.00    +0.048 C 
ATOM     27  C   UNL     1      34.944 -11.070 -25.525  0.00  0.00    +0.058 C 
ATOM     28  C   UNL     1      32.856  -9.810 -22.803  0.00  0.00    -0.003 C 
ATOM     29  C   UNL     1      34.735  -7.919 -23.753  0.00  0.00    +0.014 C 
ATOM     30  C   UNL     1      32.932  -8.529 -22.243  0.00  0.00    -0.022 C 
ATOM     31  C   UNL     1      33.857  -7.600 -22.713  0.00  0.00    -0.003 C 
ATOM     32  C   UNL     1      32.007  -8.157 -21.132  0.00  0.00    +0.031 C 
ATOM     33  H   UNL     1      36.091  -9.343 -25.823  0.00  0.00    +0.152 HD
ENDBRANCH  22  24
ENDBRANCH   1  22
TORSDOF 10
ENDMDL
MODEL 3
REMARK VINA RESULT:     -10.6      3.473     10.838
REMARK  Name = 42627769
REMARK  10 active torsions:
REMARK  status: ('A' for Active; 'I' for Inactive)
REMARK    1  A    between atoms: C_1  and  C_3
REMARK    2  A    between atoms: C_1  and  N_6
REMARK    3  A    between atoms: C_1  and  C_22
REMARK    4  A    between atoms: C_3  and  O_4
REMARK    5  A    between atoms: N_6  and  S_8
REMARK    6  A    between atoms: S_8  and  C_11
REMARK    7  A    between atoms: C_16  and  O_17
REMARK    8  A    between atoms: O_17  and  C_18
REMARK    9  A    between atoms: C_18  and  C_19
REMARK   10  A    between atoms: C_22  and  C_24
REMARK                            x       y       z     vdW  Elec       q    Type
REMARK                         _______ _______ _______ _____ _____    ______ ____
ROOT
ATOM      1  C   UNL     1      33.582 -16.562 -21.619  0.00  0.00    +0.178 C 
ENDROOT
BRANCH   1   3
ATOM      2  O   UNL     1      32.734 -14.906 -20.048  0.00  0.00    -0.249 OA
ATOM      3  C   UNL     1      32.580 -15.952 -20.665  0.00  0.00    +0.330 C 
BRANCH   3   4
ATOM      4  O   UNL     1      31.453 -16.706 -20.564  0.00  0.00    -0.479 OA
ATOM      5  H   UNL     1      31.358 -17.315 -19.858  0.00  0.00    +0.295 HD
ENDBRANCH   3   4
ENDBRANCH   1   3
BRANCH   1   6
ATOM      6  N   UNL     1      34.429 -17.483 -20.825  0.00  0.00    -0.170 NA
ATOM      7  H   UNL     1      35.133 -16.911 -20.360  0.00  0.00    +0.149 HD
BRANCH   6   8
ATOM      8  S   UNL     1      35.258 -18.747 -21.600  0.00  0.00    +0.061 S 
ATOM      9  O   UNL     1      36.687 -18.527 -21.489  0.00  0.00    -0.153 OA
ATOM     10  O   UNL     1      34.653 -18.976 -22.899  0.00  0.00    -0.153 OA
BRANCH   8  11
ATOM     11  C   UNL     1      34.839 -20.133 -20.586  0.00  0.00    +0.122 C 
ATOM     12  C   UNL     1      35.848 -20.921 -20.033  0.00  0.00    +0.023 C 
ATOM     13  C   UNL     1      33.501 -20.440 -20.341  0.00  0.00    +0.023 C 
ATOM     14  C   UNL     1      35.518 -22.016 -19.234  0.00  0.00    +0.038 C 
ATOM     15  C   UNL     1      33.171 -21.535 -19.543  0.00  0.00    +0.038 C 
ATOM     16  C   UNL     1      34.180 -22.323 -18.989  0.00  0.00    +0.140 C 
BRANCH  16  17
ATOM     17  O   UNL     1      33.859 -23.392 -18.211  0.00  0.00    -0.461 OA
BRANCH  17  18
ATOM     18  C   UNL     1      33.770 -23.169 -16.804  0.00  0.00    +0.281 C 
BRANCH  18  19
ATOM     19  C   UNL     1      32.368 -23.176 -16.391  0.00  0.00    -0.044 C 
ATOM     20  C   UNL     1      31.215 -23.180 -16.053  0.00  0.00    -0.086 C 
ATOM     21  C   UNL     1      29.812 -23.185 -15.642  0.00  0.00    +0.090 C 
ENDBRANCH  18  19
ENDBRANCH  17  18
ENDBRANCH  16  17
ENDBRANCH   8  11
ENDBRANCH   6   8
ENDBRANCH   1   6
BRANCH   1  22
ATOM     22  C   UNL     1      34.471 -15.490 -22.284  0.00  0.00    +0.056 C 
BRANCH  22  24
ATOM     23  N   UNL     1      33.580 -15.476 -25.825  0.00  0.00    -0.312 N 
ATOM     24  C   UNL     1      34.112 -15.203 -23.688  0.00  0.00    -0.004 C 
ATOM     25  C   UNL     1      33.940 -13.916 -24.271  0.00  0.00    +0.010 C 
ATOM     26  C   UNL     1      33.606 -14.117 -25.612  0.00  0.00    +0.048 C 
ATOM     27  C   UNL     1      33.884 -16.141 -24.668  0.00  0.00    +0.058 C 
ATOM     28  C   UNL     1      34.037 -12.598 -23.786  0.00  0.00    -0.003 C 
ATOM     29  C   UNL     1      33.364 -13.059 -26.496  0.00  0.00    +0.014 C 
ATOM     30  C   UNL     1      33.797 -11.530 -24.659  0.00  0.00    -0.022 C 
ATOM     31  C   UNL     1      33.465 -11.759 -25.992  0.00  0.00    -0.003 C 
ATOM     32  C   UNL     1      33.896 -10.129 -24.151  0.00  0.00    +0.031 C 
ATOM     33  H   UNL     1      33.372 -15.909 -26.685  0.00  0.00    +0.152 HD
ENDBRANCH  22  24
ENDBRANCH   1  22
TORSDOF 10
ENDMDL
MODEL 4
REMARK VINA RESULT:     -10.6      4.629     11.234
REMARK  Name = 42627769
REMARK  10 active torsions:
REMARK  status: ('A' for Active; 'I' for Inactive)
REMARK    1  A    between atoms: C_1  and  C_3
REMARK    2  A    between atoms: C_1  and  N_6
REMARK    3  A    between atoms: C_1  and  C_22
REMARK    4  A    between atoms: C_3  and  O_4
REMARK    5  A    between atoms: N_6  and  S_8
REMARK    6  A    between atoms: S_8  and  C_11
REMARK    7  A    between atoms: C_16  and  O_17
REMARK    8  A    between atoms: O_17  and  C_18
REMARK    9  A    between atoms: C_18  and  C_19
REMARK   10  A    between atoms: C_22  and  C_24
REMARK                            x       y       z     vdW  Elec       q    Type
REMARK                         _______ _______ _______ _____ _____    ______ ____
ROOT
ATOM      1  C   UNL     1      34.016 -15.634 -23.657  0.00  0.00    +0.178 C 
ENDROOT
BRANCH   1   3
ATOM      2  O   UNL     1      33.358 -15.947 -25.980  0.00  0.00    -0.249 OA
ATOM      3  C   UNL     1      34.162 -16.133 -25.076  0.00  0.00    +0.330 C 
BRANCH   3   4
ATOM      4  O   UNL     1      35.318 -16.827 -25.251  0.00  0.00    -0.479 OA
ATOM      5  H   UNL     1      35.385 -17.459 -25.940  0.00  0.00    +0.295 HD
ENDBRANCH   3   4
ENDBRANCH   1   3
BRANCH   1   6
ATOM      6  N   UNL     1      33.874 -16.828 -22.790  0.00  0.00    -0.170 NA
ATOM      7  H   UNL     1      33.044 -16.681 -22.218  0.00  0.00    +0.149 HD
BRANCH   6   8
ATOM      8  S   UNL     1      35.131 -17.257 -21.732  0.00  0.00    +0.061 S 
ATOM      9  O   UNL     1      35.213 -16.284 -20.659  0.00  0.00    -0.153 OA
ATOM     10  O   UNL     1      36.309 -17.584 -22.513  0.00  0.00    -0.153 OA
BRANCH   8  11
ATOM     11  C   UNL     1      34.529 -18.772 -21.047  0.00  0.00    +0.122 C 
ATOM     12  C   UNL     1      35.428 -19.735 -20.590  0.00  0.00    +0.023 C 
ATOM     13  C   UNL     1      33.156 -19.005 -20.968  0.00  0.00    +0.023 C 
ATOM     14  C   UNL     1      34.954 -20.932 -20.052  0.00  0.00    +0.038 C 
ATOM     15  C   UNL     1      32.682 -20.202 -20.430  0.00  0.00    +0.038 C 
ATOM     16  C   UNL     1      33.581 -21.165 -19.972  0.00  0.00    +0.140 C 
BRANCH  16  17
ATOM     17  O   UNL     1      33.119 -22.332 -19.448  0.00  0.00    -0.461 OA
BRANCH  17  18
ATOM     18  C   UNL     1      33.719 -22.783 -18.235  0.00  0.00    +0.281 C 
BRANCH  18  19
ATOM     19  C   UNL     1      32.685 -23.005 -17.225  0.00  0.00    -0.044 C 
ATOM     20  C   UNL     1      31.837 -23.187 -16.394  0.00  0.00    -0.086 C 
ATOM     21  C   UNL     1      30.805 -23.408 -15.383  0.00  0.00    +0.090 C 
ENDBRANCH  18  19
ENDBRANCH  17  18
ENDBRANCH  16  17
ENDBRANCH   8  11
ENDBRANCH   6   8
ENDBRANCH   1   6
BRANCH   1  22
ATOM     22  C   UNL     1      32.777 -14.728 -23.489  0.00  0.00    +0.056 C 
BRANCH  22  24
ATOM     23  N   UNL     1      33.816 -11.397 -24.567  0.00  0.00    -0.312 N 
ATOM     24  C   UNL     1      33.055 -13.292 -23.697  0.00  0.00    -0.004 C 
ATOM     25  C   UNL     1      32.611 -12.216 -22.877  0.00  0.00    +0.010 C 
ATOM     26  C   UNL     1      33.103 -11.039 -23.445  0.00  0.00    +0.048 C 
ATOM     27  C   UNL     1      33.792 -12.756 -24.727  0.00  0.00    +0.058 C 
ATOM     28  C   UNL     1      31.838 -12.132 -21.703  0.00  0.00    -0.003 C 
ATOM     29  C   UNL     1      32.859  -9.776 -22.895  0.00  0.00    +0.014 C 
ATOM     30  C   UNL     1      31.585 -10.875 -21.141  0.00  0.00    -0.022 C 
ATOM     31  C   UNL     1      32.088  -9.716 -21.730  0.00  0.00    -0.003 C 
ATOM     32  C   UNL     1      30.764 -10.777 -19.898  0.00  0.00    +0.031 C 
ATOM     33  H   UNL     1      34.276 -10.767 -25.167  0.00  0.00    +0.152 HD
ENDBRANCH  22  24
ENDBRANCH   1  22
TORSDOF 10
ENDMDL
MODEL 5
REMARK VINA RESULT:     -10.5      4.891      8.251
REMARK  Name = 42627769
REMARK  10 active torsions:
REMARK  status: ('A' for Active; 'I' for Inactive)
REMARK    1  A    between atoms: C_1  and  C_3
REMARK    2  A    between atoms: C_1  and  N_6
REMARK    3  A    between atoms: C_1  and  C_22
REMARK    4  A    between atoms: C_3  and  O_4
REMARK    5  A    between atoms: N_6  and  S_8
REMARK    6  A    between atoms: S_8  and  C_11
REMARK    7  A    between atoms: C_16  and  O_17
REMARK    8  A    between atoms: O_17  and  C_18
REMARK    9  A    between atoms: C_18  and  C_19
REMARK   10  A    between atoms: C_22  and  C_24
REMARK                            x       y       z     vdW  Elec       q    Type
REMARK                         _______ _______ _______ _____ _____    ______ ____
ROOT
ATOM      1  C   UNL     1      34.418 -17.768 -22.831  0.00  0.00    +0.178 C 
ENDROOT
BRANCH   1   3
ATOM      2  O   UNL     1      34.800 -18.935 -24.934  0.00  0.00    -0.249 OA
ATOM      3  C   UNL     1      34.855 -17.906 -24.272  0.00  0.00    +0.330 C 
BRANCH   3   4
ATOM      4  O   UNL     1      35.326 -16.733 -24.772  0.00  0.00    -0.479 OA
ATOM      5  H   UNL     1      35.842 -16.731 -25.554  0.00  0.00    +0.295 HD
ENDBRANCH   3   4
ENDBRANCH   1   3
BRANCH   1   6
ATOM      6  N   UNL     1      34.707 -16.373 -22.423  0.00  0.00    -0.170 NA
ATOM      7  H   UNL     1      35.713 -16.310 -22.275  0.00  0.00    +0.149 HD
BRANCH   6   8
ATOM      8  S   UNL     1      33.966 -15.727 -21.038  0.00  0.00    +0.061 S 
ATOM      9  O   UNL     1      34.979 -15.419 -20.047  0.00  0.00    -0.153 OA
ATOM     10  O   UNL     1      32.829 -16.557 -20.686  0.00  0.00    -0.153 OA
BRANCH   8  11
ATOM     11  C   UNL     1      33.320 -14.200 -21.649  0.00  0.00    +0.122 C 
ATOM     12  C   UNL     1      32.415 -13.468 -20.880  0.00  0.00    +0.023 C 
ATOM     13  C   UNL     1      33.711 -13.728 -22.902  0.00  0.00    +0.023 C 
ATOM     14  C   UNL     1      31.903 -12.264 -21.362  0.00  0.00    +0.038 C 
ATOM     15  C   UNL     1      33.199 -12.523 -23.384  0.00  0.00    +0.038 C 
ATOM     16  C   UNL     1      32.295 -11.791 -22.615  0.00  0.00    +0.140 C 
BRANCH  16  17
ATOM     17  O   UNL     1      31.794 -10.617 -23.085  0.00  0.00    -0.461 OA
BRANCH  17  18
ATOM     18  C   UNL     1      32.051  -9.445 -22.313  0.00  0.00    +0.281 C 
BRANCH  18  19
ATOM     19  C   UNL     1      32.999  -8.586 -23.021  0.00  0.00    -0.044 C 
ATOM     20  C   UNL     1      33.776  -7.877 -23.601  0.00  0.00    -0.086 C 
ATOM     21  C   UNL     1      34.723  -7.016 -24.307  0.00  0.00    +0.090 C 
ENDBRANCH  18  19
ENDBRANCH  17  18
ENDBRANCH  16  17
ENDBRANCH   8  11
ENDBRANCH   6   8
ENDBRANCH   1   6
BRANCH   1  22
ATOM     22  C   UNL     1      35.174 -18.742 -21.902  0.00  0.00    +0.056 C 
BRANCH  22  24
ATOM     23  N   UNL     1      32.500 -20.815 -20.530  0.00  0.00    -0.312 N 
ATOM     24  C   UNL     1      34.295 -19.680 -21.176  0.00  0.00    -0.004 C 
ATOM     25  C   UNL     1      34.678 -20.555 -20.121  0.00  0.00    +0.010 C 
ATOM     26  C   UNL     1      33.533 -21.255 -19.734  0.00  0.00    +0.048 C 
ATOM     27  C   UNL     1      32.951 -19.864 -21.405  0.00  0.00    +0.058 C 
ATOM     28  C   UNL     1      35.891 -20.817 -19.455  0.00  0.00    -0.003 C 
ATOM     29  C   UNL     1      33.542 -22.209 -18.710  0.00  0.00    +0.014 C 
ATOM     30  C   UNL     1      35.915 -21.769 -18.429  0.00  0.00    -0.022 C 
ATOM     31  C   UNL     1      34.757 -22.453 -18.064  0.00  0.00    -0.003 C 
ATOM     32  C   UNL     1      37.198 -22.054 -17.720  0.00  0.00    +0.031 C 
ATOM     33  H   UNL     1      31.572 -21.138 -20.479  0.00  0.00    +0.152 HD
ENDBRANCH  22  24
ENDBRANCH   1  22
TORSDOF 10
ENDMDL
MODEL 6
REMARK VINA RESULT:     -10.4      2.318      4.399
REMARK  Name = 42627769
REMARK  10 active torsions:
REMARK  status: ('A' for Active; 'I' for Inactive)
REMARK    1  A    between atoms: C_1  and  C_3
REMARK    2  A    between atoms: C_1  and  N_6
REMARK    3  A    between atoms: C_1  and  C_22
REMARK    4  A    between atoms: C_3  and  O_4
REMARK    5  A    between atoms: N_6  and  S_8
REMARK    6  A    between atoms: S_8  and  C_11
REMARK    7  A    between atoms: C_16  and  O_17
REMARK    8  A    between atoms: O_17  and  C_18
REMARK    9  A    between atoms: C_18  and  C_19
REMARK   10  A    between atoms: C_22  and  C_24
REMARK                            x       y       z     vdW  Elec       q    Type
REMARK                         _______ _______ _______ _____ _____    ______ ____
ROOT
ATOM      1  C   UNL     1      31.914 -22.833 -16.625  0.00  0.00    +0.178 C 
ENDROOT
BRANCH   1   3
ATOM      2  O   UNL     1      29.576 -22.313 -17.059  0.00  0.00    -0.249 OA
ATOM      3  C   UNL     1      30.420 -23.057 -16.578  0.00  0.00    +0.330 C 
BRANCH   3   4
ATOM      4  O   UNL     1      30.101 -24.209 -15.929  0.00  0.00    -0.479 OA
ATOM      5  H   UNL     1      29.506 -24.190 -15.206  0.00  0.00    +0.295 HD
ENDBRANCH   3   4
ENDBRANCH   1   3
BRANCH   1   6
ATOM      6  N   UNL     1      32.261 -22.522 -18.032  0.00  0.00    -0.170 NA
ATOM      7  H   UNL     1      31.654 -23.094 -18.619  0.00  0.00    +0.149 HD
BRANCH   6   8
ATOM      8  S   UNL     1      33.848 -22.764 -18.585  0.00  0.00    +0.061 S 
ATOM      9  O   UNL     1      33.899 -23.963 -19.399  0.00  0.00    -0.153 OA
ATOM     10  O   UNL     1      34.762 -22.600 -17.470  0.00  0.00    -0.153 OA
BRANCH   8  11
ATOM     11  C   UNL     1      34.079 -21.373 -19.650  0.00  0.00    +0.122 C 
ATOM     12  C   UNL     1      32.974 -20.670 -20.128  0.00  0.00    +0.023 C 
ATOM     13  C   UNL     1      35.367 -20.979 -20.014  0.00  0.00    +0.023 C 
ATOM     14  C   UNL     1      33.155 -19.573 -20.971  0.00  0.00    +0.038 C 
ATOM     15  C   UNL     1      35.548 -19.882 -20.857  0.00  0.00    +0.038 C 
ATOM     16  C   UNL     1      34.443 -19.179 -21.335  0.00  0.00    +0.140 C 
BRANCH  16  17
ATOM     17  O   UNL     1      34.619 -18.110 -22.157  0.00  0.00    -0.461 OA
BRANCH  17  18
ATOM     18  C   UNL     1      35.306 -16.981 -21.618  0.00  0.00    +0.281 C 
BRANCH  18  19
ATOM     19  C   UNL     1      34.340 -15.956 -21.228  0.00  0.00    -0.044 C 
ATOM     20  C   UNL     1      33.547 -15.113 -20.905  0.00  0.00    -0.086 C 
ATOM     21  C   UNL     1      32.583 -14.086 -20.514  0.00  0.00    +0.090 C 
ENDBRANCH  18  19
ENDBRANCH  17  18
ENDBRANCH  16  17
ENDBRANCH   8  11
ENDBRANCH   6   8
ENDBRANCH   1   6
BRANCH   1  22
ATOM     22  C   UNL     1      32.700 -24.080 -16.166  0.00  0.00    +0.056 C 
BRANCH  22  24
ATOM     23  N   UNL     1      33.511 -23.442 -12.664  0.00  0.00    -0.312 N 
ATOM     24  C   UNL     1      33.266 -23.964 -14.807  0.00  0.00    -0.004 C 
ATOM     25  C   UNL     1      34.515 -24.482 -14.364  0.00  0.00    +0.010 C 
ATOM     26  C   UNL     1      34.644 -24.140 -13.015  0.00  0.00    +0.048 C 
ATOM     27  C   UNL     1      32.672 -23.331 -13.740  0.00  0.00    +0.058 C 
ATOM     28  C   UNL     1      35.552 -25.208 -14.981  0.00  0.00    -0.003 C 
ATOM     29  C   UNL     1      35.762 -24.491 -12.251  0.00  0.00    +0.014 C 
ATOM     30  C   UNL     1      36.676 -25.566 -14.229  0.00  0.00    -0.022 C 
ATOM     31  C   UNL     1      36.778 -25.213 -12.885  0.00  0.00    -0.003 C 
ATOM     32  C   UNL     1      37.778 -26.338 -14.876  0.00  0.00    +0.031 C 
ATOM     33  H   UNL     1      33.329 -23.077 -11.768  0.00  0.00    +0.152 HD
ENDBRANCH  22  24
ENDBRANCH   1  22
TORSDOF 10
ENDMDL
MODEL 7
REMARK VINA RESULT:     -10.2      9.075     15.348
REMARK  Name = 42627769
REMARK  10 active torsions:
REMARK  status: ('A' for Active; 'I' for Inactive)
REMARK    1  A    between atoms: C_1  and  C_3
REMARK    2  A    between atoms: C_1  and  N_6
REMARK    3  A    between atoms: C_1  and  C_22
REMARK    4  A    between atoms: C_3  and  O_4
REMARK    5  A    between atoms: N_6  and  S_8
REMARK    6  A    between atoms: S_8  and  C_11
REMARK    7  A    between atoms: C_16  and  O_17
REMARK    8  A    between atoms: O_17  and  C_18
REMARK    9  A    between atoms: C_18  and  C_19
REMARK   10  A    between atoms: C_22  and  C_24
REMARK                            x       y       z     vdW  Elec       q    Type
REMARK                         _______ _______ _______ _____ _____    ______ ____
ROOT
ATOM      1  C   UNL     1      32.123  -8.469 -21.325  0.00  0.00    +0.178 C 
ENDROOT
BRANCH   1   3
ATOM      2  O   UNL     1      32.947  -7.056 -19.521  0.00  0.00    -0.249 OA
ATOM      3  C   UNL     1      32.624  -8.163 -19.931  0.00  0.00    +0.330 C 
BRANCH   3   4
ATOM      4  O   UNL     1      32.676  -9.279 -19.156  0.00  0.00    -0.479 OA
ATOM      5  H   UNL     1      33.411  -9.856 -19.214  0.00  0.00    +0.295 HD
ENDBRANCH   3   4
ENDBRANCH   1   3
BRANCH   1   6
ATOM      6  N   UNL     1      32.440  -9.891 -21.596  0.00  0.00    -0.170 NA
ATOM      7  H   UNL     1      32.826  -9.934 -22.538  0.00  0.00    +0.149 HD
BRANCH   6   8
ATOM      8  S   UNL     1      31.211 -11.061 -21.517  0.00  0.00    +0.061 S 
ATOM      9  O   UNL     1      30.265 -10.843 -22.595  0.00  0.00    -0.153 OA
ATOM     10  O   UNL     1      30.745 -11.157 -20.146  0.00  0.00    -0.153 OA
BRANCH   8  11
ATOM     11  C   UNL     1      32.100 -12.548 -21.865  0.00  0.00    +0.122 C 
ATOM     12  C   UNL     1      32.263 -13.511 -20.870  0.00  0.00    +0.023 C 
ATOM     13  C   UNL     1      32.641 -12.757 -23.133  0.00  0.00    +0.023 C 
ATOM     14  C   UNL     1      32.967 -14.684 -21.143  0.00  0.00    +0.038 C 
ATOM     15  C   UNL     1      33.345 -13.930 -23.406  0.00  0.00    +0.038 C 
ATOM     16  C   UNL     1      33.507 -14.894 -22.411  0.00  0.00    +0.140 C 
BRANCH  16  17
ATOM     17  O   UNL     1      34.195 -16.038 -22.677  0.00  0.00    -0.461 OA
BRANCH  17  18
ATOM     18  C   UNL     1      34.896 -16.642 -21.591  0.00  0.00    +0.281 C 
BRANCH  18  19
ATOM     19  C   UNL     1      34.281 -17.925 -21.260  0.00  0.00    -0.044 C 
ATOM     20  C   UNL     1      33.773 -18.980 -20.989  0.00  0.00    -0.086 C 
ATOM     21  C   UNL     1      33.157 -20.264 -20.660  0.00  0.00    +0.090 C 
ENDBRANCH  18  19
ENDBRANCH  17  18
ENDBRANCH  16  17
ENDBRANCH   8  11
ENDBRANCH   6   8
ENDBRANCH   1   6
BRANCH   1  22
ATOM     22  C   UNL     1      32.800  -7.580 -22.389  0.00  0.00    +0.056 C 
BRANCH  22  24
ATOM     23  N   UNL     1      30.461  -4.804 -22.790  0.00  0.00    -0.312 N 
ATOM     24  C   UNL     1      31.991  -6.413 -22.796  0.00  0.00    -0.004 C 
ATOM     25  C   UNL     1      32.143  -5.650 -23.988  0.00  0.00    +0.010 C 
ATOM     26  C   UNL     1      31.171  -4.648 -23.959  0.00  0.00    +0.048 C 
ATOM     27  C   UNL     1      30.950  -5.868 -22.080  0.00  0.00    +0.058 C 
ATOM     28  C   UNL     1      33.016  -5.718 -25.091  0.00  0.00    -0.003 C 
ATOM     29  C   UNL     1      31.028  -3.705 -24.984  0.00  0.00    +0.014 C 
ATOM     30  C   UNL     1      32.884  -4.782 -26.124  0.00  0.00    -0.022 C 
ATOM     31  C   UNL     1      31.906  -3.792 -26.068  0.00  0.00    -0.003 C 
ATOM     32  C   UNL     1      33.807  -4.847 -27.296  0.00  0.00    +0.031 C 
ATOM     33  H   UNL     1      29.711  -4.233 -22.505  0.00  0.00    +0.152 HD
ENDBRANCH  22  24
ENDBRANCH   1  22
TORSDOF 10
ENDMDL
MODEL 8
REMARK VINA RESULT:     -10.1      5.337     11.566
REMARK  Name = 42627769
REMARK  10 active torsions:
REMARK  status: ('A' for Active; 'I' for Inactive)
REMARK    1  A    between atoms: C_1  and  C_3
REMARK    2  A    between atoms: C_1  and  N_6
REMARK    3  A    between atoms: C_1  and  C_22
REMARK    4  A    between atoms: C_3  and  O_4
REMARK    5  A    between atoms: N_6  and  S_8
REMARK    6  A    between atoms: S_8  and  C_11
REMARK    7  A    between atoms: C_16  and  O_17
REMARK    8  A    between atoms: O_17  and  C_18
REMARK    9  A    between atoms: C_18  and  C_19
REMARK   10  A    between atoms: C_22  and  C_24
REMARK                            x       y       z     vdW  Elec       q    Type
REMARK                         _______ _______ _______ _____ _____    ______ ____
ROOT
ATOM      1  C   UNL     1      33.660 -14.675 -24.159  0.00  0.00    +0.178 C 
ENDROOT
BRANCH   1   3
ATOM      2  O   UNL     1      34.038 -15.823 -26.274  0.00  0.00    -0.249 OA
ATOM      3  C   UNL     1      33.371 -15.053 -25.595  0.00  0.00    +0.330 C 
BRANCH   3   4
ATOM      4  O   UNL     1      32.256 -14.434 -26.065  0.00  0.00    -0.479 OA
ATOM      5  H   UNL     1      31.605 -14.927 -26.525  0.00  0.00    +0.295 HD
ENDBRANCH   3   4
ENDBRANCH   1   3
BRANCH   1   6
ATOM      6  N   UNL     1      33.790 -15.939 -23.397  0.00  0.00    -0.170 NA
ATOM      7  H   UNL     1      32.998 -16.525 -23.659  0.00  0.00    +0.149 HD
BRANCH   6   8
ATOM      8  S   UNL     1      33.833 -15.902 -21.700  0.00  0.00    +0.061 S 
ATOM      9  O   UNL     1      32.485 -15.754 -21.185  0.00  0.00    -0.153 OA
ATOM     10  O   UNL     1      34.879 -14.989 -21.278  0.00  0.00    -0.153 OA
BRANCH   8  11
ATOM     11  C   UNL     1      34.388 -17.535 -21.313  0.00  0.00    +0.122 C 
ATOM     12  C   UNL     1      35.753 -17.816 -21.276  0.00  0.00    +0.023 C 
ATOM     13  C   UNL     1      33.460 -18.542 -21.048  0.00  0.00    +0.023 C 
ATOM     14  C   UNL     1      36.191 -19.105 -20.973  0.00  0.00    +0.038 C 
ATOM     15  C   UNL     1      33.898 -19.832 -20.745  0.00  0.00    +0.038 C 
ATOM     16  C   UNL     1      35.264 -20.113 -20.707  0.00  0.00    +0.140 C 
BRANCH  16  17
ATOM     17  O   UNL     1      35.692 -21.371 -20.413  0.00  0.00    -0.461 OA
BRANCH  17  18
ATOM     18  C   UNL     1      35.062 -22.031 -19.316  0.00  0.00    +0.281 C 
BRANCH  18  19
ATOM     19  C   UNL     1      35.950 -22.013 -18.154  0.00  0.00    -0.044 C 
ATOM     20  C   UNL     1      36.677 -22.000 -17.198  0.00  0.00    -0.086 C 
ATOM     21  C   UNL     1      37.564 -21.984 -16.036  0.00  0.00    +0.090 C 
ENDBRANCH  18  19
ENDBRANCH  17  18
ENDBRANCH  16  17
ENDBRANCH   8  11
ENDBRANCH   6   8
ENDBRANCH   1   6
BRANCH   1  22
ATOM     22  C   UNL     1      32.530 -13.820 -23.548  0.00  0.00    +0.056 C 
BRANCH  22  24
ATOM     23  N   UNL     1      33.584 -10.366 -24.089  0.00  0.00    -0.312 N 
ATOM     24  C   UNL     1      32.822 -12.373 -23.523  0.00  0.00    -0.004 C 
ATOM     25  C   UNL     1      32.422 -11.446 -22.520  0.00  0.00    +0.010 C 
ATOM     26  C   UNL     1      32.913 -10.194 -22.900  0.00  0.00    +0.048 C 
ATOM     27  C   UNL     1      33.534 -11.679 -24.474  0.00  0.00    +0.058 C 
ATOM     28  C   UNL     1      31.688 -11.551 -21.322  0.00  0.00    -0.003 C 
ATOM     29  C   UNL     1      32.706  -9.039 -22.138  0.00  0.00    +0.014 C 
ATOM     30  C   UNL     1      31.473 -10.404 -20.550  0.00  0.00    -0.022 C 
ATOM     31  C   UNL     1      31.974  -9.168 -20.954  0.00  0.00    -0.003 C 
ATOM     32  C   UNL     1      30.695 -10.508 -19.280  0.00  0.00    +0.031 C 
ATOM     33  H   UNL     1      34.034  -9.649 -24.592  0.00  0.00    +0.152 HD
ENDBRANCH  22  24
ENDBRANCH   1  22
TORSDOF 10
ENDMDL
MODEL 9
REMARK VINA RESULT:     -10.1      7.203     13.634
REMARK  Name = 42627769
REMARK  10 active torsions:
REMARK  status: ('A' for Active; 'I' for Inactive)
REMARK    1  A    between atoms: C_1  and  C_3
REMARK    2  A    between atoms: C_1  and  N_6
REMARK    3  A    between atoms: C_1  and  C_22
REMARK    4  A    between atoms: C_3  and  O_4
REMARK    5  A    between atoms: N_6  and  S_8
REMARK    6  A    between atoms: S_8  and  C_11
REMARK    7  A    between atoms: C_16  and  O_17
REMARK    8  A    between atoms: O_17  and  C_18
REMARK    9  A    between atoms: C_18  and  C_19
REMARK   10  A    between atoms: C_22  and  C_24
REMARK                            x       y       z     vdW  Elec       q    Type
REMARK                         _______ _______ _______ _____ _____    ______ ____
ROOT
ATOM      1  C   UNL     1      34.099 -10.849 -23.979  0.00  0.00    +0.178 C 
ENDROOT
BRANCH   1   3
ATOM      2  O   UNL     1      35.565 -10.421 -25.875  0.00  0.00    -0.249 OA
ATOM      3  C   UNL     1      34.548 -10.930 -25.420  0.00  0.00    +0.330 C 
BRANCH   3   4
ATOM      4  O   UNL     1      33.682 -11.651 -26.180  0.00  0.00    -0.479 OA
ATOM      5  H   UNL     1      32.807 -11.344 -26.314  0.00  0.00    +0.295 HD
ENDBRANCH   3   4
ENDBRANCH   1   3
BRANCH   1   6
ATOM      6  N   UNL     1      34.321 -12.186 -23.380  0.00  0.00    -0.170 NA
ATOM      7  H   UNL     1      35.096 -12.612 -23.888  0.00  0.00    +0.149 HD
BRANCH   6   8
ATOM      8  S   UNL     1      33.061 -13.325 -23.363  0.00  0.00    +0.061 S 
ATOM      9  O   UNL     1      32.752 -13.725 -24.723  0.00  0.00    -0.153 OA
ATOM     10  O   UNL     1      32.009 -12.845 -22.487  0.00  0.00    -0.153 OA
BRANCH   8  11
ATOM     11  C   UNL     1      33.822 -14.698 -22.551  0.00  0.00    +0.122 C 
ATOM     12  C   UNL     1      33.844 -14.759 -21.159  0.00  0.00    +0.023 C 
ATOM     13  C   UNL     1      34.403 -15.719 -23.304  0.00  0.00    +0.023 C 
ATOM     14  C   UNL     1      34.446 -15.841 -20.517  0.00  0.00    +0.038 C 
ATOM     15  C   UNL     1      35.005 -16.802 -22.662  0.00  0.00    +0.038 C 
ATOM     16  C   UNL     1      35.026 -16.863 -21.269  0.00  0.00    +0.140 C 
BRANCH  16  17
ATOM     17  O   UNL     1      35.614 -17.918 -20.643  0.00  0.00    -0.461 OA
BRANCH  17  18
ATOM     18  C   UNL     1      35.609 -19.168 -21.331  0.00  0.00    +0.281 C 
BRANCH  18  19
ATOM     19  C   UNL     1      34.855 -20.153 -20.558  0.00  0.00    -0.044 C 
ATOM     20  C   UNL     1      34.238 -20.964 -19.920  0.00  0.00    -0.086 C 
ATOM     21  C   UNL     1      33.486 -21.949 -19.145  0.00  0.00    +0.090 C 
ENDBRANCH  18  19
ENDBRANCH  17  18
ENDBRANCH  16  17
ENDBRANCH   8  11
ENDBRANCH   6   8
ENDBRANCH   1   6
BRANCH   1  22
ATOM     22  C   UNL     1      32.606 -10.475 -23.859  0.00  0.00    +0.056 C 
BRANCH  22  24
ATOM     23  N   UNL     1      31.919  -8.531 -20.845  0.00  0.00    -0.312 N 
ATOM     24  C   UNL     1      32.323  -9.467 -22.817  0.00  0.00    -0.004 C 
ATOM     25  C   UNL     1      32.164  -8.067 -23.014  0.00  0.00    +0.010 C 
ATOM     26  C   UNL     1      31.911  -7.504 -21.761  0.00  0.00    +0.048 C 
ATOM     27  C   UNL     1      32.168  -9.722 -21.474  0.00  0.00    +0.058 C 
ATOM     28  C   UNL     1      32.209  -7.223 -24.140  0.00  0.00    -0.003 C 
ATOM     29  C   UNL     1      31.701  -6.133 -21.578  0.00  0.00    +0.014 C 
ATOM     30  C   UNL     1      32.001  -5.849 -23.972  0.00  0.00    -0.022 C 
ATOM     31  C   UNL     1      31.752  -5.314 -22.710  0.00  0.00    -0.003 C 
ATOM     32  C   UNL     1      32.050  -4.947 -25.162  0.00  0.00    +0.031 C 
ATOM     33  H   UNL     1      31.769  -8.426 -19.878  0.00  0.00    +0.152 HD
ENDBRANCH  22  24
ENDBRANCH   1  22
TORSDOF 10
ENDMDL
