MODEL 1
REMARK VINA RESULT:     -10.8      0.000      0.000
REMARK  Name = 25017411
REMARK  7 active torsions:
REMARK  status: ('A' for Active; 'I' for Inactive)
REMARK    1  A    between atoms: C_2  and  O_13
REMARK    2  A    between atoms: C_3  and  O_11
REMARK    3  A    between atoms: C_8  and  O_22
REMARK    4  A    between atoms: O_13  and  C_14
REMARK    5  A    between atoms: C_14  and  C_15
REMARK    6  A    between atoms: C_15  and  N_18
REMARK    7  A    between atoms: O_22  and  C_27
REMARK                            x       y       z     vdW  Elec       q    Type
REMARK                         _______ _______ _______ _____ _____    ______ ____
ROOT
ATOM      1  N   UNL     1      34.195 -17.470 -25.661  0.00  0.00    -0.248 NA
ATOM      2  C   UNL     1      33.470 -14.368 -23.862  0.00  0.00    +0.152 C 
ATOM      3  C   UNL     1      33.937 -14.666 -22.588  0.00  0.00    +0.151 C 
ATOM      4  C   UNL     1      33.564 -15.320 -24.880  0.00  0.00    +0.112 C 
ATOM      5  C   UNL     1      34.120 -16.577 -24.657  0.00  0.00    +0.066 C 
ATOM      6  C   UNL     1      34.497 -15.915 -22.336  0.00  0.00    +0.097 C 
ATOM      7  C   UNL     1      34.591 -16.872 -23.360  0.00  0.00    +0.034 C 
ATOM      8  C   UNL     1      35.151 -18.138 -23.135  0.00  0.00    +0.144 C 
ATOM      9  C   UNL     1      35.229 -19.060 -24.168  0.00  0.00    +0.058 C 
ATOM     10  C   UNL     1      34.742 -18.680 -25.401  0.00  0.00    +0.102 C 
ENDROOT
BRANCH   3  11
ATOM     11  O   UNL     1      33.854 -13.751 -21.584  0.00  0.00    -0.473 OA
ATOM     12  C   UNL     1      32.790 -13.911 -20.647  0.00  0.00    +0.252 C 
ENDBRANCH   3  11
BRANCH   2  13
ATOM     13  O   UNL     1      32.919 -13.152 -24.132  0.00  0.00    -0.479 OA
BRANCH  13  14
ATOM     14  C   UNL     1      33.799 -12.131 -24.598  0.00  0.00    +0.185 C 
BRANCH  14  15
ATOM     15  C   UNL     1      33.488 -10.851 -23.902  0.00  0.00    -0.008 C 
ATOM     16  C   UNL     1      33.312  -9.632 -24.760  0.00  0.00    -0.018 C 
ATOM     17  C   UNL     1      34.547  -9.788 -23.922  0.00  0.00    -0.018 C 
BRANCH  15  18
ATOM     18  N   UNL     1      32.656 -11.001 -22.702  0.00  0.00    +0.385 N 
ATOM     19  H   UNL     1      32.969 -10.345 -21.986  0.00  0.00    -0.089 HD
ATOM     20  H   UNL     1      32.737 -11.954 -22.349  0.00  0.00    -0.089 HD
ATOM     21  H   UNL     1      31.682 -10.808 -22.937  0.00  0.00    -0.089 HD
ENDBRANCH  15  18
ENDBRANCH  14  15
ENDBRANCH  13  14
ENDBRANCH   2  13
BRANCH   8  22
ATOM     22  O   UNL     1      35.629 -18.498 -21.909  0.00  0.00    -0.451 OA
BRANCH  22  27
ATOM     23  F   UNL     1      36.808 -20.421 -20.324  0.00  0.00    -0.201 F 
ATOM     24  N   UNL     1      32.750 -22.001 -18.791  0.00  0.00    -0.316 N 
ATOM     25  C   UNL     1      34.674 -21.186 -19.574  0.00  0.00    +0.045 C 
ATOM     26  C   UNL     1      33.285 -21.047 -19.627  0.00  0.00    +0.050 C 
ATOM     27  C   UNL     1      34.854 -19.351 -21.145  0.00  0.00    +0.173 C 
ATOM     28  C   UNL     1      35.472 -20.321 -20.348  0.00  0.00    +0.176 C 
ATOM     29  C   UNL     1      33.750 -22.735 -18.211  0.00  0.00    +0.026 C 
ATOM     30  C   UNL     1      34.953 -22.255 -18.676  0.00  0.00    +0.014 C 
ATOM     31  C   UNL     1      32.653 -20.084 -20.420  0.00  0.00    +0.018 C 
ATOM     32  C   UNL     1      33.466 -19.236 -21.179  0.00  0.00    +0.041 C 
ATOM     33  C   UNL     1      33.449 -23.826 -17.267  0.00  0.00    +0.047 C 
ATOM     34  H   UNL     1      31.788 -22.135 -18.632  0.00  0.00    +0.152 HD
ENDBRANCH  22  27
ENDBRANCH   8  22
TORSDOF 7
ENDMDL
MODEL 2
REMARK VINA RESULT:     -10.2      3.377      5.948
REMARK  Name = 25017411
REMARK  7 active torsions:
REMARK  status: ('A' for Active; 'I' for Inactive)
REMARK    1  A    between atoms: C_2  and  O_13
REMARK    2  A    between atoms: C_3  and  O_11
REMARK    3  A    between atoms: C_8  and  O_22
REMARK    4  A    between atoms: O_13  and  C_14
REMARK    5  A    between atoms: C_14  and  C_15
REMARK    6  A    between atoms: C_15  and  N_18
REMARK    7  A    between atoms: O_22  and  C_27
REMARK                            x       y       z     vdW  Elec       q    Type
REMARK                         _______ _______ _______ _____ _____    ______ ____
ROOT
ATOM      1  N   UNL     1      34.284 -10.092 -24.615  0.00  0.00    -0.248 NA
ATOM      2  C   UNL     1      32.333  -8.922 -21.749  0.00  0.00    +0.152 C 
ATOM      3  C   UNL     1      31.688 -10.087 -21.354  0.00  0.00    +0.151 C 
ATOM      4  C   UNL     1      33.200  -8.942 -22.844  0.00  0.00    +0.112 C 
ATOM      5  C   UNL     1      33.443 -10.108 -23.564  0.00  0.00    +0.066 C 
ATOM      6  C   UNL     1      31.911 -11.268 -22.054  0.00  0.00    +0.097 C 
ATOM      7  C   UNL     1      32.783 -11.288 -23.156  0.00  0.00    +0.034 C 
ATOM      8  C   UNL     1      33.027 -12.463 -23.880  0.00  0.00    +0.144 C 
ATOM      9  C   UNL     1      33.893 -12.449 -24.963  0.00  0.00    +0.058 C 
ATOM     10  C   UNL     1      34.491 -11.248 -25.286  0.00  0.00    +0.102 C 
ENDROOT
BRANCH   3  11
ATOM     11  O   UNL     1      30.841 -10.086 -20.288  0.00  0.00    -0.473 OA
ATOM     12  C   UNL     1      31.298 -10.719 -19.094  0.00  0.00    +0.252 C 
ENDBRANCH   3  11
BRANCH   2  13
ATOM     13  O   UNL     1      32.131  -7.754 -21.077  0.00  0.00    -0.479 OA
BRANCH  13  14
ATOM     14  C   UNL     1      32.590  -6.559 -21.704  0.00  0.00    +0.185 C 
BRANCH  14  15
ATOM     15  C   UNL     1      31.423  -5.772 -22.191  0.00  0.00    -0.008 C 
ATOM     16  C   UNL     1      30.817  -6.188 -23.500  0.00  0.00    -0.018 C 
ATOM     17  C   UNL     1      31.631  -4.929 -23.415  0.00  0.00    -0.018 C 
BRANCH  15  18
ATOM     18  N   UNL     1      30.542  -5.274 -21.127  0.00  0.00    +0.385 N 
ATOM     19  H   UNL     1      29.690  -4.893 -21.540  0.00  0.00    -0.089 HD
ATOM     20  H   UNL     1      31.022  -4.543 -20.603  0.00  0.00    -0.089 HD
ATOM     21  H   UNL     1      30.301  -6.040 -20.499  0.00  0.00    -0.089 HD
ENDBRANCH  15  18
ENDBRANCH  14  15
ENDBRANCH  13  14
ENDBRANCH   2  13
BRANCH   8  22
ATOM     22  O   UNL     1      32.428 -13.643 -23.548  0.00  0.00    -0.451 OA
BRANCH  22  27
ATOM     23  F   UNL     1      33.800 -15.770 -24.639  0.00  0.00    -0.201 F 
ATOM     24  N   UNL     1      35.300 -17.235 -20.525  0.00  0.00    -0.316 N 
ATOM     25  C   UNL     1      34.539 -16.470 -22.479  0.00  0.00    +0.045 C 
ATOM     26  C   UNL     1      34.537 -16.242 -21.101  0.00  0.00    +0.050 C 
ATOM     27  C   UNL     1      33.134 -14.513 -22.738  0.00  0.00    +0.173 C 
ATOM     28  C   UNL     1      33.823 -15.587 -23.312  0.00  0.00    +0.176 C 
ATOM     29  C   UNL     1      35.783 -18.078 -21.491  0.00  0.00    +0.026 C 
ATOM     30  C   UNL     1      35.329 -17.631 -22.710  0.00  0.00    +0.014 C 
ATOM     31  C   UNL     1      33.852 -15.174 -20.512  0.00  0.00    +0.018 C 
ATOM     32  C   UNL     1      33.150 -14.311 -21.359  0.00  0.00    +0.041 C 
ATOM     33  C   UNL     1      36.634 -19.230 -21.143  0.00  0.00    +0.047 C 
ATOM     34  H   UNL     1      35.474 -17.324 -19.561  0.00  0.00    +0.152 HD
ENDBRANCH  22  27
ENDBRANCH   8  22
TORSDOF 7
ENDMDL
MODEL 3
REMARK VINA RESULT:     -10.0      2.875      9.858
REMARK  Name = 25017411
REMARK  7 active torsions:
REMARK  status: ('A' for Active; 'I' for Inactive)
REMARK    1  A    between atoms: C_2  and  O_13
REMARK    2  A    between atoms: C_3  and  O_11
REMARK    3  A    between atoms: C_8  and  O_22
REMARK    4  A    between atoms: O_13  and  C_14
REMARK    5  A    between atoms: C_14  and  C_15
REMARK    6  A    between atoms: C_15  and  N_18
REMARK    7  A    between atoms: O_22  and  C_27
REMARK                            x       y       z     vdW  Elec       q    Type
REMARK                         _______ _______ _______ _____ _____    ______ ____
ROOT
ATOM      1  N   UNL     1      32.561 -21.491 -19.752  0.00  0.00    -0.248 NA
ATOM      2  C   UNL     1      35.235 -22.734 -17.586  0.00  0.00    +0.152 C 
ATOM      3  C   UNL     1      36.320 -21.984 -18.020  0.00  0.00    +0.151 C 
ATOM      4  C   UNL     1      33.982 -22.556 -18.178  0.00  0.00    +0.112 C 
ATOM      5  C   UNL     1      33.782 -21.637 -19.204  0.00  0.00    +0.066 C 
ATOM      6  C   UNL     1      36.150 -21.058 -19.044  0.00  0.00    +0.097 C 
ATOM      7  C   UNL     1      34.890 -20.879 -19.640  0.00  0.00    +0.034 C 
ATOM      8  C   UNL     1      34.690 -19.954 -20.673  0.00  0.00    +0.144 C 
ATOM      9  C   UNL     1      33.433 -19.801 -21.239  0.00  0.00    +0.058 C 
ATOM     10  C   UNL     1      32.411 -20.587 -20.747  0.00  0.00    +0.102 C 
ENDROOT
BRANCH   3  11
ATOM     11  O   UNL     1      37.548 -22.145 -17.454  0.00  0.00    -0.473 OA
ATOM     12  C   UNL     1      37.735 -21.608 -16.145  0.00  0.00    +0.252 C 
ENDBRANCH   3  11
BRANCH   2  13
ATOM     13  O   UNL     1      35.377 -23.646 -16.583  0.00  0.00    -0.479 OA
BRANCH  13  14
ATOM     14  C   UNL     1      34.669 -23.393 -15.371  0.00  0.00    +0.185 C 
BRANCH  14  15
ATOM     15  C   UNL     1      35.223 -24.247 -14.284  0.00  0.00    -0.008 C 
ATOM     16  C   UNL     1      34.617 -24.095 -12.919  0.00  0.00    -0.018 C 
ATOM     17  C   UNL     1      35.990 -23.555 -13.196  0.00  0.00    -0.018 C 
BRANCH  15  18
ATOM     18  N   UNL     1      35.658 -25.579 -14.723  0.00  0.00    +0.385 N 
ATOM     19  H   UNL     1      36.661 -25.680 -14.565  0.00  0.00    -0.089 HD
ATOM     20  H   UNL     1      35.457 -25.692 -15.716  0.00  0.00    -0.089 HD
ATOM     21  H   UNL     1      35.157 -26.292 -14.193  0.00  0.00    -0.089 HD
ENDBRANCH  15  18
ENDBRANCH  14  15
ENDBRANCH  13  14
ENDBRANCH   2  13
BRANCH   8  22
ATOM     22  O   UNL     1      35.711 -19.183 -21.149  0.00  0.00    -0.451 OA
BRANCH  22  27
ATOM     23  F   UNL     1      35.047 -16.674 -20.220  0.00  0.00    -0.201 F 
ATOM     24  N   UNL     1      34.395 -15.000 -24.473  0.00  0.00    -0.316 N 
ATOM     25  C   UNL     1      34.727 -15.877 -22.448  0.00  0.00    +0.045 C 
ATOM     26  C   UNL     1      34.749 -16.158 -23.816  0.00  0.00    +0.050 C 
ATOM     27  C   UNL     1      35.390 -18.170 -22.033  0.00  0.00    +0.173 C 
ATOM     28  C   UNL     1      35.055 -16.903 -21.540  0.00  0.00    +0.176 C 
ATOM     29  C   UNL     1      34.153 -14.000 -23.569  0.00  0.00    +0.026 C 
ATOM     30  C   UNL     1      34.351 -14.512 -22.308  0.00  0.00    +0.014 C 
ATOM     31  C   UNL     1      35.080 -17.419 -24.323  0.00  0.00    +0.018 C 
ATOM     32  C   UNL     1      35.402 -18.421 -23.403  0.00  0.00    +0.041 C 
ATOM     33  C   UNL     1      33.756 -12.650 -24.010  0.00  0.00    +0.047 C 
ATOM     34  H   UNL     1      34.326 -14.905 -25.451  0.00  0.00    +0.152 HD
ENDBRANCH  22  27
ENDBRANCH   8  22
TORSDOF 7
ENDMDL
MODEL 4
REMARK VINA RESULT:     -10.0      2.870      9.346
REMARK  Name = 25017411
REMARK  7 active torsions:
REMARK  status: ('A' for Active; 'I' for Inactive)
REMARK    1  A    between atoms: C_2  and  O_13
REMARK    2  A    between atoms: C_3  and  O_11
REMARK    3  A    between atoms: C_8  and  O_22
REMARK    4  A    between atoms: O_13  and  C_14
REMARK    5  A    between atoms: C_14  and  C_15
REMARK    6  A    between atoms: C_15  and  N_18
REMARK    7  A    between atoms: O_22  and  C_27
REMARK                            x       y       z     vdW  Elec       q    Type
REMARK                         _______ _______ _______ _____ _____    ______ ____
ROOT
ATOM      1  N   UNL     1      33.799 -15.719 -26.174  0.00  0.00    -0.248 NA
ATOM      2  C   UNL     1      35.185 -17.302 -23.182  0.00  0.00    +0.152 C 
ATOM      3  C   UNL     1      34.739 -16.450 -22.180  0.00  0.00    +0.151 C 
ATOM      4  C   UNL     1      34.861 -17.042 -24.515  0.00  0.00    +0.112 C 
ATOM      5  C   UNL     1      34.093 -15.940 -24.880  0.00  0.00    +0.066 C 
ATOM      6  C   UNL     1      33.970 -15.340 -22.514  0.00  0.00    +0.097 C 
ATOM      7  C   UNL     1      33.644 -15.078 -23.856  0.00  0.00    +0.034 C 
ATOM      8  C   UNL     1      32.870 -13.968 -24.222  0.00  0.00    +0.144 C 
ATOM      9  C   UNL     1      32.565 -13.738 -25.555  0.00  0.00    +0.058 C 
ATOM     10  C   UNL     1      33.049 -14.636 -26.484  0.00  0.00    +0.102 C 
ENDROOT
BRANCH   3  11
ATOM     11  O   UNL     1      35.046 -16.688 -20.875  0.00  0.00    -0.473 OA
ATOM     12  C   UNL     1      34.635 -15.709 -19.922  0.00  0.00    +0.252 C 
ENDBRANCH   3  11
BRANCH   2  13
ATOM     13  O   UNL     1      35.940 -18.396 -22.878  0.00  0.00    -0.479 OA
BRANCH  13  14
ATOM     14  C   UNL     1      35.240 -19.592 -22.541  0.00  0.00    +0.185 C 
BRANCH  14  15
ATOM     15  C   UNL     1      35.416 -19.878 -21.090  0.00  0.00    -0.008 C 
ATOM     16  C   UNL     1      35.119 -21.276 -20.628  0.00  0.00    -0.018 C 
ATOM     17  C   UNL     1      34.175 -20.158 -20.294  0.00  0.00    -0.018 C 
BRANCH  15  18
ATOM     18  N   UNL     1      36.515 -19.140 -20.455  0.00  0.00    +0.385 N 
ATOM     19  H   UNL     1      36.555 -18.194 -20.837  0.00  0.00    -0.089 HD
ATOM     20  H   UNL     1      37.396 -19.618 -20.639  0.00  0.00    -0.089 HD
ATOM     21  H   UNL     1      36.357 -19.093 -19.449  0.00  0.00    -0.089 HD
ENDBRANCH  15  18
ENDBRANCH  14  15
ENDBRANCH  13  14
ENDBRANCH   2  13
BRANCH   8  22
ATOM     22  O   UNL     1      32.398 -13.089 -23.290  0.00  0.00    -0.451 OA
BRANCH  22  27
ATOM     23  F   UNL     1      30.750 -11.099 -22.330  0.00  0.00    -0.201 F 
ATOM     24  N   UNL     1      33.583  -7.734 -23.735  0.00  0.00    -0.316 N 
ATOM     25  C   UNL     1      32.262  -9.411 -23.085  0.00  0.00    +0.045 C 
ATOM     26  C   UNL     1      33.468  -9.106 -23.721  0.00  0.00    +0.050 C 
ATOM     27  C   UNL     1      32.748 -11.759 -23.430  0.00  0.00    +0.173 C 
ATOM     28  C   UNL     1      31.897 -10.764 -22.936  0.00  0.00    +0.176 C 
ATOM     29  C   UNL     1      32.495  -7.163 -23.129  0.00  0.00    +0.026 C 
ATOM     30  C   UNL     1      31.661  -8.175 -22.715  0.00  0.00    +0.014 C 
ATOM     31  C   UNL     1      34.327 -10.090 -24.221  0.00  0.00    +0.018 C 
ATOM     32  C   UNL     1      33.945 -11.425 -24.061  0.00  0.00    +0.041 C 
ATOM     33  C   UNL     1      32.368  -5.699 -23.007  0.00  0.00    +0.047 C 
ATOM     34  H   UNL     1      34.338  -7.235 -24.123  0.00  0.00    +0.152 HD
ENDBRANCH  22  27
ENDBRANCH   8  22
TORSDOF 7
ENDMDL
MODEL 5
REMARK VINA RESULT:      -9.5      4.533     11.269
REMARK  Name = 25017411
REMARK  7 active torsions:
REMARK  status: ('A' for Active; 'I' for Inactive)
REMARK    1  A    between atoms: C_2  and  O_13
REMARK    2  A    between atoms: C_3  and  O_11
REMARK    3  A    between atoms: C_8  and  O_22
REMARK    4  A    between atoms: O_13  and  C_14
REMARK    5  A    between atoms: C_14  and  C_15
REMARK    6  A    between atoms: C_15  and  N_18
REMARK    7  A    between atoms: O_22  and  C_27
REMARK                            x       y       z     vdW  Elec       q    Type
REMARK                         _______ _______ _______ _____ _____    ______ ____
ROOT
ATOM      1  N   UNL     1      32.215 -23.494 -15.220  0.00  0.00    -0.248 NA
ATOM      2  C   UNL     1      35.561 -23.158 -13.780  0.00  0.00    +0.152 C 
ATOM      3  C   UNL     1      36.342 -22.989 -14.916  0.00  0.00    +0.151 C 
ATOM      4  C   UNL     1      34.180 -23.326 -13.900  0.00  0.00    +0.112 C 
ATOM      5  C   UNL     1      33.549 -23.330 -15.141  0.00  0.00    +0.066 C 
ATOM      6  C   UNL     1      35.738 -22.989 -16.170  0.00  0.00    +0.097 C 
ATOM      7  C   UNL     1      34.349 -23.158 -16.291  0.00  0.00    +0.034 C 
ATOM      8  C   UNL     1      33.714 -23.162 -17.541  0.00  0.00    +0.144 C 
ATOM      9  C   UNL     1      32.340 -23.331 -17.626  0.00  0.00    +0.058 C 
ATOM     10  C   UNL     1      31.643 -23.491 -16.446  0.00  0.00    +0.102 C 
ENDROOT
BRANCH   3  11
ATOM     11  O   UNL     1      37.689 -22.824 -14.818  0.00  0.00    -0.473 OA
ATOM     12  C   UNL     1      38.501 -23.536 -15.750  0.00  0.00    +0.252 C 
ENDBRANCH   3  11
BRANCH   2  13
ATOM     13  O   UNL     1      36.130 -23.161 -12.541  0.00  0.00    -0.479 OA
BRANCH  13  14
ATOM     14  C   UNL     1      36.223 -24.417 -11.874  0.00  0.00    +0.185 C 
BRANCH  14  15
ATOM     15  C   UNL     1      37.467 -25.117 -12.300  0.00  0.00    -0.008 C 
ATOM     16  C   UNL     1      37.338 -26.131 -13.400  0.00  0.00    -0.018 C 
ATOM     17  C   UNL     1      37.569 -26.580 -11.986  0.00  0.00    -0.018 C 
BRANCH  15  18
ATOM     18  N   UNL     1      38.678 -24.290 -12.235  0.00  0.00    +0.385 N 
ATOM     19  H   UNL     1      38.463 -23.344 -12.550  0.00  0.00    -0.089 HD
ATOM     20  H   UNL     1      39.397 -24.693 -12.836  0.00  0.00    -0.089 HD
ATOM     21  H   UNL     1      39.018 -24.259 -11.274  0.00  0.00    -0.089 HD
ENDBRANCH  15  18
ENDBRANCH  14  15
ENDBRANCH  13  14
ENDBRANCH   2  13
BRANCH   8  22
ATOM     22  O   UNL     1      34.418 -23.001 -18.699  0.00  0.00    -0.451 OA
BRANCH  22  27
ATOM     23  F   UNL     1      36.567 -21.627 -19.745  0.00  0.00    -0.201 F 
ATOM     24  N   UNL     1      33.894 -18.323 -21.549  0.00  0.00    -0.316 N 
ATOM     25  C   UNL     1      35.124 -19.954 -20.650  0.00  0.00    +0.045 C 
ATOM     26  C   UNL     1      33.817 -19.490 -20.821  0.00  0.00    +0.050 C 
ATOM     27  C   UNL     1      34.225 -21.830 -19.408  0.00  0.00    +0.173 C 
ATOM     28  C   UNL     1      35.330 -21.148 -19.930  0.00  0.00    +0.176 C 
ATOM     29  C   UNL     1      35.200 -18.037 -21.844  0.00  0.00    +0.026 C 
ATOM     30  C   UNL     1      35.985 -19.027 -21.302  0.00  0.00    +0.014 C 
ATOM     31  C   UNL     1      32.704 -20.160 -20.304  0.00  0.00    +0.018 C 
ATOM     32  C   UNL     1      32.933 -21.343 -19.594  0.00  0.00    +0.041 C 
ATOM     33  C   UNL     1      35.564 -16.837 -22.621  0.00  0.00    +0.047 C 
ATOM     34  H   UNL     1      33.122 -17.775 -21.819  0.00  0.00    +0.152 HD
ENDBRANCH  22  27
ENDBRANCH   8  22
TORSDOF 7
ENDMDL
MODEL 6
REMARK VINA RESULT:      -9.4      4.984     11.430
REMARK  Name = 25017411
REMARK  7 active torsions:
REMARK  status: ('A' for Active; 'I' for Inactive)
REMARK    1  A    between atoms: C_2  and  O_13
REMARK    2  A    between atoms: C_3  and  O_11
REMARK    3  A    between atoms: C_8  and  O_22
REMARK    4  A    between atoms: O_13  and  C_14
REMARK    5  A    between atoms: C_14  and  C_15
REMARK    6  A    between atoms: C_15  and  N_18
REMARK    7  A    between atoms: O_22  and  C_27
REMARK                            x       y       z     vdW  Elec       q    Type
REMARK                         _______ _______ _______ _____ _____    ______ ____
ROOT
ATOM      1  N   UNL     1      31.701 -22.980 -14.915  0.00  0.00    -0.248 NA
ATOM      2  C   UNL     1      34.725 -24.655 -13.714  0.00  0.00    +0.152 C 
ATOM      3  C   UNL     1      35.435 -24.834 -14.894  0.00  0.00    +0.151 C 
ATOM      4  C   UNL     1      33.474 -24.032 -13.739  0.00  0.00    +0.112 C 
ATOM      5  C   UNL     1      32.908 -23.576 -14.927  0.00  0.00    +0.066 C 
ATOM      6  C   UNL     1      34.893 -24.389 -16.096  0.00  0.00    +0.097 C 
ATOM      7  C   UNL     1      33.636 -23.762 -16.122  0.00  0.00    +0.034 C 
ATOM      8  C   UNL     1      33.067 -23.304 -17.318  0.00  0.00    +0.144 C 
ATOM      9  C   UNL     1      31.823 -22.689 -17.308  0.00  0.00    +0.058 C 
ATOM     10  C   UNL     1      31.188 -22.553 -16.092  0.00  0.00    +0.102 C 
ENDROOT
BRANCH   3  11
ATOM     11  O   UNL     1      36.654 -25.438 -14.888  0.00  0.00    -0.473 OA
ATOM     12  C   UNL     1      36.703 -26.805 -15.295  0.00  0.00    +0.252 C 
ENDBRANCH   3  11
BRANCH   2  13
ATOM     13  O   UNL     1      35.235 -25.082 -12.525  0.00  0.00    -0.479 OA
BRANCH  13  14
ATOM     14  C   UNL     1      35.783 -24.088 -11.661  0.00  0.00    +0.185 C 
BRANCH  14  15
ATOM     15  C   UNL     1      37.207 -23.845 -12.023  0.00  0.00    -0.008 C 
ATOM     16  C   UNL     1      37.841 -22.590 -11.498  0.00  0.00    -0.018 C 
ATOM     17  C   UNL     1      37.490 -22.702 -12.953  0.00  0.00    -0.018 C 
BRANCH  15  18
ATOM     18  N   UNL     1      38.022 -25.063 -12.125  0.00  0.00    +0.385 N 
ATOM     19  H   UNL     1      38.999 -24.808 -12.271  0.00  0.00    -0.089 HD
ATOM     20  H   UNL     1      37.695 -25.625 -12.910  0.00  0.00    -0.089 HD
ATOM     21  H   UNL     1      37.937 -25.602 -11.264  0.00  0.00    -0.089 HD
ENDBRANCH  15  18
ENDBRANCH  14  15
ENDBRANCH  13  14
ENDBRANCH   2  13
BRANCH   8  22
ATOM     22  O   UNL     1      33.708 -23.446 -18.514  0.00  0.00    -0.451 OA
BRANCH  22  27
ATOM     23  F   UNL     1      32.470 -21.713 -20.264  0.00  0.00    -0.201 F 
ATOM     24  N   UNL     1      36.201 -19.017 -20.624  0.00  0.00    -0.316 N 
ATOM     25  C   UNL     1      34.437 -20.365 -20.403  0.00  0.00    +0.045 C 
ATOM     26  C   UNL     1      35.757 -20.159 -19.996  0.00  0.00    +0.050 C 
ATOM     27  C   UNL     1      34.385 -22.348 -19.011  0.00  0.00    +0.173 C 
ATOM     28  C   UNL     1      33.739 -21.481 -19.900  0.00  0.00    +0.176 C 
ATOM     29  C   UNL     1      35.209 -18.495 -21.411  0.00  0.00    +0.026 C 
ATOM     30  C   UNL     1      34.105 -19.307 -21.294  0.00  0.00    +0.014 C 
ATOM     31  C   UNL     1      36.416 -21.018 -19.110  0.00  0.00    +0.018 C 
ATOM     32  C   UNL     1      35.703 -22.117 -18.623  0.00  0.00    +0.041 C 
ATOM     33  C   UNL     1      35.423 -17.266 -22.196  0.00  0.00    +0.047 C 
ATOM     34  H   UNL     1      37.101 -18.631 -20.522  0.00  0.00    +0.152 HD
ENDBRANCH  22  27
ENDBRANCH   8  22
TORSDOF 7
ENDMDL
MODEL 7
REMARK VINA RESULT:      -9.4      4.211     11.048
REMARK  Name = 25017411
REMARK  7 active torsions:
REMARK  status: ('A' for Active; 'I' for Inactive)
REMARK    1  A    between atoms: C_2  and  O_13
REMARK    2  A    between atoms: C_3  and  O_11
REMARK    3  A    between atoms: C_8  and  O_22
REMARK    4  A    between atoms: O_13  and  C_14
REMARK    5  A    between atoms: C_14  and  C_15
REMARK    6  A    between atoms: C_15  and  N_18
REMARK    7  A    between atoms: O_22  and  C_27
REMARK                            x       y       z     vdW  Elec       q    Type
REMARK                         _______ _______ _______ _____ _____    ______ ____
ROOT
ATOM      1  N   UNL     1      31.935 -12.792 -20.071  0.00  0.00    -0.248 NA
ATOM      2  C   UNL     1      33.346 -14.866 -22.734  0.00  0.00    +0.152 C 
ATOM      3  C   UNL     1      33.335 -13.987 -23.810  0.00  0.00    +0.151 C 
ATOM      4  C   UNL     1      32.872 -14.449 -21.488  0.00  0.00    +0.112 C 
ATOM      5  C   UNL     1      32.384 -13.161 -21.285  0.00  0.00    +0.066 C 
ATOM      6  C   UNL     1      32.852 -12.694 -23.637  0.00  0.00    +0.097 C 
ATOM      7  C   UNL     1      32.376 -12.275 -22.383  0.00  0.00    +0.034 C 
ATOM      8  C   UNL     1      31.885 -10.978 -22.179  0.00  0.00    +0.144 C 
ATOM      9  C   UNL     1      31.422 -10.595 -20.929  0.00  0.00    +0.058 C 
ATOM     10  C   UNL     1      31.469 -11.531 -19.917  0.00  0.00    +0.102 C 
ENDROOT
BRANCH   3  11
ATOM     11  O   UNL     1      33.793 -14.377 -25.031  0.00  0.00    -0.473 OA
ATOM     12  C   UNL     1      32.830 -14.499 -26.077  0.00  0.00    +0.252 C 
ENDBRANCH   3  11
BRANCH   2  13
ATOM     13  O   UNL     1      33.815 -16.137 -22.880  0.00  0.00    -0.479 OA
BRANCH  13  14
ATOM     14  C   UNL     1      34.480 -16.714 -21.759  0.00  0.00    +0.185 C 
BRANCH  14  15
ATOM     15  C   UNL     1      35.239 -17.920 -22.197  0.00  0.00    -0.008 C 
ATOM     16  C   UNL     1      34.810 -19.241 -21.628  0.00  0.00    -0.018 C 
ATOM     17  C   UNL     1      36.089 -18.603 -21.167  0.00  0.00    -0.018 C 
BRANCH  15  18
ATOM     18  N   UNL     1      35.712 -17.865 -23.586  0.00  0.00    +0.385 N 
ATOM     19  H   UNL     1      36.250 -17.010 -23.729  0.00  0.00    -0.089 HD
ATOM     20  H   UNL     1      34.912 -17.873 -24.218  0.00  0.00    -0.089 HD
ATOM     21  H   UNL     1      36.303 -18.674 -23.776  0.00  0.00    -0.089 HD
ENDBRANCH  15  18
ENDBRANCH  14  15
ENDBRANCH  13  14
ENDBRANCH   2  13
BRANCH   8  22
ATOM     22  O   UNL     1      31.845 -10.063 -23.191  0.00  0.00    -0.451 OA
BRANCH  22  27
ATOM     23  F   UNL     1      30.664  -8.143 -24.778  0.00  0.00    -0.201 F 
ATOM     24  N   UNL     1      32.006  -4.687 -22.027  0.00  0.00    -0.316 N 
ATOM     25  C   UNL     1      31.392  -6.406 -23.310  0.00  0.00    +0.045 C 
ATOM     26  C   UNL     1      32.076  -6.057 -22.143  0.00  0.00    +0.050 C 
ATOM     27  C   UNL     1      31.918  -8.725 -22.848  0.00  0.00    +0.173 C 
ATOM     28  C   UNL     1      31.312  -7.767 -23.667  0.00  0.00    +0.176 C 
ATOM     29  C   UNL     1      31.303  -4.160 -23.077  0.00  0.00    +0.026 C 
ATOM     30  C   UNL     1      30.909  -5.199 -23.888  0.00  0.00    +0.014 C 
ATOM     31  C   UNL     1      32.687  -7.004 -21.315  0.00  0.00    +0.018 C 
ATOM     32  C   UNL     1      32.594  -8.348 -21.689  0.00  0.00    +0.041 C 
ATOM     33  C   UNL     1      31.078  -2.707 -23.195  0.00  0.00    +0.047 C 
ATOM     34  H   UNL     1      32.404  -4.162 -21.295  0.00  0.00    +0.152 HD
ENDBRANCH  22  27
ENDBRANCH   8  22
TORSDOF 7
ENDMDL
MODEL 8
REMARK VINA RESULT:      -9.3      3.120      5.984
REMARK  Name = 25017411
REMARK  7 active torsions:
REMARK  status: ('A' for Active; 'I' for Inactive)
REMARK    1  A    between atoms: C_2  and  O_13
REMARK    2  A    between atoms: C_3  and  O_11
REMARK    3  A    between atoms: C_8  and  O_22
REMARK    4  A    between atoms: O_13  and  C_14
REMARK    5  A    between atoms: C_14  and  C_15
REMARK    6  A    between atoms: C_15  and  N_18
REMARK    7  A    between atoms: O_22  and  C_27
REMARK                            x       y       z     vdW  Elec       q    Type
REMARK                         _______ _______ _______ _____ _____    ______ ____
ROOT
ATOM      1  N   UNL     1      31.469 -10.585 -21.606  0.00  0.00    -0.248 NA
ATOM      2  C   UNL     1      33.731  -8.680 -23.760  0.00  0.00    +0.152 C 
ATOM      3  C   UNL     1      34.406  -9.695 -24.426  0.00  0.00    +0.151 C 
ATOM      4  C   UNL     1      32.749  -8.996 -22.818  0.00  0.00    +0.112 C 
ATOM      5  C   UNL     1      32.420 -10.316 -22.519  0.00  0.00    +0.066 C 
ATOM      6  C   UNL     1      34.098 -11.023 -24.148  0.00  0.00    +0.097 C 
ATOM      7  C   UNL     1      33.111 -11.341 -23.200  0.00  0.00    +0.034 C 
ATOM      8  C   UNL     1      32.779 -12.670 -22.900  0.00  0.00    +0.144 C 
ATOM      9  C   UNL     1      31.800 -12.950 -21.959  0.00  0.00    +0.058 C 
ATOM     10  C   UNL     1      31.180 -11.881 -21.346  0.00  0.00    +0.102 C 
ENDROOT
BRANCH   3  11
ATOM     11  O   UNL     1      35.365  -9.405 -25.348  0.00  0.00    -0.473 OA
ATOM     12  C   UNL     1      35.681 -10.421 -26.298  0.00  0.00    +0.252 C 
ENDBRANCH   3  11
BRANCH   2  13
ATOM     13  O   UNL     1      34.015  -7.373 -24.017  0.00  0.00    -0.479 OA
BRANCH  13  14
ATOM     14  C   UNL     1      33.165  -6.396 -23.419  0.00  0.00    +0.185 C 
BRANCH  14  15
ATOM     15  C   UNL     1      32.396  -5.689 -24.481  0.00  0.00    -0.008 C 
ATOM     16  C   UNL     1      31.336  -4.725 -24.031  0.00  0.00    -0.018 C 
ATOM     17  C   UNL     1      30.946  -6.047 -24.626  0.00  0.00    -0.018 C 
BRANCH  15  18
ATOM     18  N   UNL     1      33.174  -5.376 -25.686  0.00  0.00    +0.385 N 
ATOM     19  H   UNL     1      33.485  -6.243 -26.125  0.00  0.00    -0.089 HD
ATOM     20  H   UNL     1      33.985  -4.814 -25.430  0.00  0.00    -0.089 HD
ATOM     21  H   UNL     1      32.592  -4.854 -26.341  0.00  0.00    -0.089 HD
ENDBRANCH  15  18
ENDBRANCH  14  15
ENDBRANCH  13  14
ENDBRANCH   2  13
BRANCH   8  22
ATOM     22  O   UNL     1      33.402 -13.717 -23.516  0.00  0.00    -0.451 OA
BRANCH  22  27
ATOM     23  F   UNL     1      33.738 -16.264 -24.516  0.00  0.00    -0.201 F 
ATOM     24  N   UNL     1      35.365 -17.889 -20.512  0.00  0.00    -0.316 N 
ATOM     25  C   UNL     1      34.571 -17.035 -22.415  0.00  0.00    +0.045 C 
ATOM     26  C   UNL     1      34.898 -16.730 -21.092  0.00  0.00    +0.050 C 
ATOM     27  C   UNL     1      33.901 -14.726 -22.714  0.00  0.00    +0.173 C 
ATOM     28  C   UNL     1      34.063 -16.012 -23.241  0.00  0.00    +0.176 C 
ATOM     29  C   UNL     1      35.344 -18.912 -21.422  0.00  0.00    +0.026 C 
ATOM     30  C   UNL     1      34.858 -18.415 -22.609  0.00  0.00    +0.014 C 
ATOM     31  C   UNL     1      34.741 -15.450 -20.551  0.00  0.00    +0.018 C 
ATOM     32  C   UNL     1      34.236 -14.451 -21.389  0.00  0.00    +0.041 C 
ATOM     33  C   UNL     1      35.796 -20.268 -21.058  0.00  0.00    +0.047 C 
ATOM     34  H   UNL     1      35.670 -17.970 -19.580  0.00  0.00    +0.152 HD
ENDBRANCH  22  27
ENDBRANCH   8  22
TORSDOF 7
ENDMDL
MODEL 9
REMARK VINA RESULT:      -9.3      3.430      9.977
REMARK  Name = 25017411
REMARK  7 active torsions:
REMARK  status: ('A' for Active; 'I' for Inactive)
REMARK    1  A    between atoms: C_2  and  O_13
REMARK    2  A    between atoms: C_3  and  O_11
REMARK    3  A    between atoms: C_8  and  O_22
REMARK    4  A    between atoms: O_13  and  C_14
REMARK    5  A    between atoms: C_14  and  C_15
REMARK    6  A    between atoms: C_15  and  N_18
REMARK    7  A    between atoms: O_22  and  C_27
REMARK                            x       y       z     vdW  Elec       q    Type
REMARK                         _______ _______ _______ _____ _____    ______ ____
ROOT
ATOM      1  N   UNL     1      33.361 -13.963 -26.434  0.00  0.00    -0.248 NA
ATOM      2  C   UNL     1      33.870 -16.037 -23.464  0.00  0.00    +0.152 C 
ATOM      3  C   UNL     1      34.186 -15.083 -22.505  0.00  0.00    +0.151 C 
ATOM      4  C   UNL     1      33.596 -15.644 -24.776  0.00  0.00    +0.112 C 
ATOM      5  C   UNL     1      33.630 -14.307 -25.161  0.00  0.00    +0.066 C 
ATOM      6  C   UNL     1      34.228 -13.739 -22.862  0.00  0.00    +0.097 C 
ATOM      7  C   UNL     1      33.953 -13.343 -24.181  0.00  0.00    +0.034 C 
ATOM      8  C   UNL     1      33.987 -11.997 -24.568  0.00  0.00    +0.144 C 
ATOM      9  C   UNL     1      33.710 -11.640 -25.879  0.00  0.00    +0.058 C 
ATOM     10  C   UNL     1      33.405 -12.652 -26.766  0.00  0.00    +0.102 C 
ENDROOT
BRANCH   3  11
ATOM     11  O   UNL     1      34.455 -15.448 -21.222  0.00  0.00    -0.473 OA
ATOM     12  C   UNL     1      33.386 -15.355 -20.282  0.00  0.00    +0.252 C 
ENDBRANCH   3  11
BRANCH   2  13
ATOM     13  O   UNL     1      33.822 -17.359 -23.138  0.00  0.00    -0.479 OA
BRANCH  13  14
ATOM     14  C   UNL     1      35.066 -18.013 -22.898  0.00  0.00    +0.185 C 
BRANCH  14  15
ATOM     15  C   UNL     1      35.036 -18.664 -21.559  0.00  0.00    -0.008 C 
ATOM     16  C   UNL     1      34.894 -20.159 -21.528  0.00  0.00    -0.018 C 
ATOM     17  C   UNL     1      33.740 -19.286 -21.131  0.00  0.00    -0.018 C 
BRANCH  15  18
ATOM     18  N   UNL     1      35.878 -18.010 -20.549  0.00  0.00    +0.385 N 
ATOM     19  H   UNL     1      36.480 -17.322 -21.002  0.00  0.00    -0.089 HD
ATOM     20  H   UNL     1      36.453 -18.710 -20.081  0.00  0.00    -0.089 HD
ATOM     21  H   UNL     1      35.285 -17.543 -19.863  0.00  0.00    -0.089 HD
ENDBRANCH  15  18
ENDBRANCH  14  15
ENDBRANCH  13  14
ENDBRANCH   2  13
BRANCH   8  22
ATOM     22  O   UNL     1      34.291 -11.006 -23.679  0.00  0.00    -0.451 OA
BRANCH  22  27
ATOM     23  F   UNL     1      34.972  -8.459 -24.482  0.00  0.00    -0.201 F 
ATOM     24  N   UNL     1      30.878  -6.710 -23.258  0.00  0.00    -0.316 N 
ATOM     25  C   UNL     1      32.833  -7.624 -23.826  0.00  0.00    +0.045 C 
ATOM     26  C   UNL     1      31.577  -7.897 -23.280  0.00  0.00    +0.050 C 
ATOM     27  C   UNL     1      33.391  -9.965 -23.550  0.00  0.00    +0.173 C 
ATOM     28  C   UNL     1      33.757  -8.679 -23.963  0.00  0.00    +0.176 C 
ATOM     29  C   UNL     1      31.648  -5.700 -23.770  0.00  0.00    +0.026 C 
ATOM     30  C   UNL     1      32.863  -6.234 -24.131  0.00  0.00    +0.014 C 
ATOM     31  C   UNL     1      31.197  -9.176 -22.862  0.00  0.00    +0.018 C 
ATOM     32  C   UNL     1      32.129 -10.208 -23.009  0.00  0.00    +0.041 C 
ATOM     33  C   UNL     1      31.136  -4.320 -23.863  0.00  0.00    +0.047 C 
ATOM     34  H   UNL     1      29.958  -6.604 -22.923  0.00  0.00    +0.152 HD
ENDBRANCH  22  27
ENDBRANCH   8  22
TORSDOF 7
ENDMDL
