MODEL 1
REMARK VINA RESULT:      -9.3      0.000      0.000
REMARK  Name = 6918456
REMARK  6 active torsions:
REMARK  status: ('A' for Active; 'I' for Inactive)
REMARK    1  A    between atoms: N_2  and  C_15
REMARK    2  A    between atoms: C_9  and  O_11
REMARK    3  A    between atoms: O_11  and  C_13
REMARK    4  A    between atoms: C_15  and  C_17
REMARK    5  A    between atoms: C_15  and  C_24
REMARK    6  A    between atoms: C_24  and  C_25
REMARK                            x       y       z     vdW  Elec       q    Type
REMARK                         _______ _______ _______ _____ _____    ______ ____
ROOT
ATOM      1  S   UNL     1      34.949 -16.227 -22.989  0.00  0.00    -0.055 S 
ATOM      2  N   UNL     1      32.866 -12.282 -22.947  0.00  0.00    +0.398 N 
ATOM      3  C   UNL     1      32.703 -13.019 -24.218  0.00  0.00    -0.070 C 
ATOM      4  C   UNL     1      32.663 -13.163 -21.775  0.00  0.00    -0.048 C 
ATOM      5  C   UNL     1      33.812 -14.077 -24.392  0.00  0.00    +0.010 C 
ATOM      6  C   UNL     1      33.524 -14.384 -21.894  0.00  0.00    -0.038 C 
ATOM      7  C   UNL     1      34.025 -14.809 -23.108  0.00  0.00    +0.002 C 
ATOM      8  C   UNL     1      33.912 -15.265 -20.841  0.00  0.00    +0.038 C 
ATOM      9  C   UNL     1      34.690 -16.309 -21.297  0.00  0.00    +0.177 C 
ATOM     10  H   UNL     1      33.823 -11.932 -22.917  0.00  0.00    -0.078 HD
ENDROOT
BRANCH   9  11
ATOM     11  O   UNL     1      35.220 -17.301 -20.588  0.00  0.00    -0.417 OA
BRANCH  11  13
ATOM     12  O   UNL     1      33.689 -18.913 -21.257  0.00  0.00    -0.250 OA
ATOM     13  C   UNL     1      34.823 -18.547 -20.975  0.00  0.00    +0.323 C 
ATOM     14  C   UNL     1      36.019 -19.453 -21.025  0.00  0.00    +0.122 C 
ENDBRANCH  11  13
ENDBRANCH   9  11
BRANCH   2  15
ATOM     15  C   UNL     1      31.940 -11.150 -22.889  0.00  0.00    +0.027 C 
BRANCH  15  17
ATOM     16  F   UNL     1      30.494  -8.744 -23.212  0.00  0.00    -0.205 F 
ATOM     17  C   UNL     1      32.596  -9.845 -23.284  0.00  0.00    -0.007 C 
ATOM     18  C   UNL     1      31.818  -8.708 -23.422  0.00  0.00    +0.135 C 
ATOM     19  C   UNL     1      33.962  -9.818 -23.500  0.00  0.00    -0.004 C 
ATOM     20  C   UNL     1      32.425  -7.507 -23.786  0.00  0.00    +0.029 C 
ATOM     21  C   UNL     1      34.571  -8.617 -23.864  0.00  0.00    -0.000 C 
ATOM     22  C   UNL     1      33.802  -7.462 -24.008  0.00  0.00    +0.002 C 
ENDBRANCH  15  17
BRANCH  15  24
ATOM     23  O   UNL     1      30.219 -11.475 -21.195  0.00  0.00    -0.298 OA
ATOM     24  C   UNL     1      31.346 -11.094 -21.491  0.00  0.00    +0.135 C 
BRANCH  24  25
ATOM     25  C   UNL     1      32.239 -10.542 -20.426  0.00  0.00    +0.056 C 
ATOM     26  C   UNL     1      31.856  -9.256 -19.780  0.00  0.00    +0.008 C 
ATOM     27  C   UNL     1      31.748 -10.546 -19.020  0.00  0.00    +0.008 C 
ENDBRANCH  24  25
ENDBRANCH  15  24
ENDBRANCH   2  15
TORSDOF 6
ENDMDL
MODEL 2
REMARK VINA RESULT:      -9.1      1.596      2.233
REMARK  Name = 6918456
REMARK  6 active torsions:
REMARK  status: ('A' for Active; 'I' for Inactive)
REMARK    1  A    between atoms: N_2  and  C_15
REMARK    2  A    between atoms: C_9  and  O_11
REMARK    3  A    between atoms: O_11  and  C_13
REMARK    4  A    between atoms: C_15  and  C_17
REMARK    5  A    between atoms: C_15  and  C_24
REMARK    6  A    between atoms: C_24  and  C_25
REMARK                            x       y       z     vdW  Elec       q    Type
REMARK                         _______ _______ _______ _____ _____    ______ ____
ROOT
ATOM      1  S   UNL     1      34.175 -14.648 -23.625  0.00  0.00    -0.055 S 
ATOM      2  N   UNL     1      32.807 -10.461 -22.910  0.00  0.00    +0.398 N 
ATOM      3  C   UNL     1      33.026 -10.773 -24.338  0.00  0.00    -0.070 C 
ATOM      4  C   UNL     1      32.061 -11.540 -22.224  0.00  0.00    -0.048 C 
ATOM      5  C   UNL     1      33.958 -11.989 -24.505  0.00  0.00    +0.010 C 
ATOM      6  C   UNL     1      32.722 -12.862 -22.473  0.00  0.00    -0.038 C 
ATOM      7  C   UNL     1      33.572 -13.063 -23.541  0.00  0.00    +0.002 C 
ATOM      8  C   UNL     1      32.561 -14.057 -21.711  0.00  0.00    +0.038 C 
ATOM      9  C   UNL     1      33.296 -15.104 -22.226  0.00  0.00    +0.177 C 
ATOM     10  H   UNL     1      33.724 -10.383 -22.470  0.00  0.00    -0.078 HD
ENDROOT
BRANCH   9  11
ATOM     11  O   UNL     1      33.378 -16.348 -21.763  0.00  0.00    -0.417 OA
BRANCH  11  13
ATOM     12  O   UNL     1      34.988 -15.969 -20.134  0.00  0.00    -0.250 OA
ATOM     13  C   UNL     1      34.516 -16.615 -21.061  0.00  0.00    +0.323 C 
ATOM     14  C   UNL     1      35.139 -17.875 -21.589  0.00  0.00    +0.122 C 
ENDBRANCH  11  13
ENDBRANCH   9  11
BRANCH   2  15
ATOM     15  C   UNL     1      32.096  -9.190 -22.766  0.00  0.00    +0.027 C 
BRANCH  15  17
ATOM     16  F   UNL     1      30.538  -7.267 -24.129  0.00  0.00    -0.205 F 
ATOM     17  C   UNL     1      32.702  -8.089 -23.609  0.00  0.00    -0.007 C 
ATOM     18  C   UNL     1      31.870  -7.185 -24.245  0.00  0.00    +0.135 C 
ATOM     19  C   UNL     1      34.079  -8.012 -23.725  0.00  0.00    -0.004 C 
ATOM     20  C   UNL     1      32.432  -6.171 -25.022  0.00  0.00    +0.029 C 
ATOM     21  C   UNL     1      34.642  -6.999 -24.501  0.00  0.00    -0.000 C 
ATOM     22  C   UNL     1      33.818  -6.079 -25.150  0.00  0.00    +0.002 C 
ENDBRANCH  15  17
BRANCH  15  24
ATOM     23  O   UNL     1      31.533  -9.509 -20.417  0.00  0.00    -0.298 OA
ATOM     24  C   UNL     1      32.063  -8.830 -21.289  0.00  0.00    +0.135 C 
BRANCH  24  25
ATOM     25  C   UNL     1      32.752  -7.557 -20.914  0.00  0.00    +0.056 C 
ATOM     26  C   UNL     1      31.926  -6.327 -20.759  0.00  0.00    +0.008 C 
ATOM     27  C   UNL     1      32.513  -7.000 -19.553  0.00  0.00    +0.008 C 
ENDBRANCH  24  25
ENDBRANCH  15  24
ENDBRANCH   2  15
TORSDOF 6
ENDMDL
MODEL 3
REMARK VINA RESULT:      -8.7     11.023     14.168
REMARK  Name = 6918456
REMARK  6 active torsions:
REMARK  status: ('A' for Active; 'I' for Inactive)
REMARK    1  A    between atoms: N_2  and  C_15
REMARK    2  A    between atoms: C_9  and  O_11
REMARK    3  A    between atoms: O_11  and  C_13
REMARK    4  A    between atoms: C_15  and  C_17
REMARK    5  A    between atoms: C_15  and  C_24
REMARK    6  A    between atoms: C_24  and  C_25
REMARK                            x       y       z     vdW  Elec       q    Type
REMARK                         _______ _______ _______ _____ _____    ______ ____
ROOT
ATOM      1  S   UNL     1      37.710 -25.054 -12.789  0.00  0.00    -0.055 S 
ATOM      2  N   UNL     1      34.232 -23.850 -15.312  0.00  0.00    +0.398 N 
ATOM      3  C   UNL     1      33.987 -23.700 -13.862  0.00  0.00    -0.070 C 
ATOM      4  C   UNL     1      35.560 -23.321 -15.697  0.00  0.00    -0.048 C 
ATOM      5  C   UNL     1      34.953 -24.577 -13.041  0.00  0.00    +0.010 C 
ATOM      6  C   UNL     1      36.624 -23.917 -14.827  0.00  0.00    -0.038 C 
ATOM      7  C   UNL     1      36.336 -24.468 -13.595  0.00  0.00    +0.002 C 
ATOM      8  C   UNL     1      38.023 -23.975 -15.103  0.00  0.00    +0.038 C 
ATOM      9  C   UNL     1      38.729 -24.570 -14.078  0.00  0.00    +0.177 C 
ATOM     10  H   UNL     1      34.217 -24.847 -15.524  0.00  0.00    -0.078 HD
ENDROOT
BRANCH   9  11
ATOM     11  O   UNL     1      40.039 -24.787 -14.010  0.00  0.00    -0.417 OA
BRANCH  11  13
ATOM     12  O   UNL     1      40.450 -25.932 -15.988  0.00  0.00    -0.250 OA
ATOM     13  C   UNL     1      40.478 -25.833 -14.768  0.00  0.00    +0.323 C 
ATOM     14  C   UNL     1      41.040 -26.894 -13.867  0.00  0.00    +0.122 C 
ENDBRANCH  11  13
ENDBRANCH   9  11
BRANCH   2  15
ATOM     15  C   UNL     1      33.183 -23.180 -16.081  0.00  0.00    +0.027 C 
BRANCH  15  17
ATOM     16  F   UNL     1      30.818 -22.023 -17.108  0.00  0.00    -0.205 F 
ATOM     17  C   UNL     1      31.802 -23.711 -15.761  0.00  0.00    -0.007 C 
ATOM     18  C   UNL     1      30.692 -23.088 -16.304  0.00  0.00    +0.135 C 
ATOM     19  C   UNL     1      31.681 -24.809 -14.928  0.00  0.00    -0.004 C 
ATOM     20  C   UNL     1      29.421 -23.579 -16.007  0.00  0.00    +0.029 C 
ATOM     21  C   UNL     1      30.410 -25.302 -14.630  0.00  0.00    -0.000 C 
ATOM     22  C   UNL     1      29.281 -24.686 -15.170  0.00  0.00    +0.002 C 
ENDBRANCH  15  17
BRANCH  15  24
ATOM     23  O   UNL     1      33.436 -24.350 -18.202  0.00  0.00    -0.298 OA
ATOM     24  C   UNL     1      33.520 -23.311 -17.557  0.00  0.00    +0.135 C 
BRANCH  24  25
ATOM     25  C   UNL     1      33.966 -22.057 -18.238  0.00  0.00    +0.056 C 
ATOM     26  C   UNL     1      34.820 -22.177 -19.451  0.00  0.00    +0.008 C 
ATOM     27  C   UNL     1      33.392 -21.735 -19.574  0.00  0.00    +0.008 C 
ENDBRANCH  24  25
ENDBRANCH  15  24
ENDBRANCH   2  15
TORSDOF 6
ENDMDL
MODEL 4
REMARK VINA RESULT:      -8.7      4.442      6.979
REMARK  Name = 6918456
REMARK  6 active torsions:
REMARK  status: ('A' for Active; 'I' for Inactive)
REMARK    1  A    between atoms: N_2  and  C_15
REMARK    2  A    between atoms: C_9  and  O_11
REMARK    3  A    between atoms: O_11  and  C_13
REMARK    4  A    between atoms: C_15  and  C_17
REMARK    5  A    between atoms: C_15  and  C_24
REMARK    6  A    between atoms: C_24  and  C_25
REMARK                            x       y       z     vdW  Elec       q    Type
REMARK                         _______ _______ _______ _____ _____    ______ ____
ROOT
ATOM      1  S   UNL     1      35.204 -21.412 -19.434  0.00  0.00    -0.055 S 
ATOM      2  N   UNL     1      35.281 -17.563 -21.691  0.00  0.00    +0.398 N 
ATOM      3  C   UNL     1      36.434 -18.441 -21.985  0.00  0.00    -0.070 C 
ATOM      4  C   UNL     1      34.008 -18.318 -21.689  0.00  0.00    -0.048 C 
ATOM      5  C   UNL     1      36.651 -19.470 -20.858  0.00  0.00    +0.010 C 
ATOM      6  C   UNL     1      34.119 -19.513 -20.791  0.00  0.00    -0.038 C 
ATOM      7  C   UNL     1      35.340 -20.049 -20.437  0.00  0.00    +0.002 C 
ATOM      8  C   UNL     1      33.043 -20.259 -20.221  0.00  0.00    +0.038 C 
ATOM      9  C   UNL     1      33.493 -21.317 -19.459  0.00  0.00    +0.177 C 
ATOM     10  H   UNL     1      35.421 -17.178 -20.757  0.00  0.00    -0.078 HD
ENDROOT
BRANCH   9  11
ATOM     11  O   UNL     1      32.766 -22.205 -18.789  0.00  0.00    -0.417 OA
BRANCH  11  13
ATOM     12  O   UNL     1      33.839 -24.232 -19.151  0.00  0.00    -0.250 OA
ATOM     13  C   UNL     1      33.445 -23.330 -18.423  0.00  0.00    +0.323 C 
ATOM     14  C   UNL     1      33.668 -23.311 -16.938  0.00  0.00    +0.122 C 
ENDBRANCH  11  13
ENDBRANCH   9  11
BRANCH   2  15
ATOM     15  C   UNL     1      35.212 -16.467 -22.657  0.00  0.00    +0.027 C 
BRANCH  15  17
ATOM     16  F   UNL     1      34.805 -15.578 -20.006  0.00  0.00    -0.205 F 
ATOM     17  C   UNL     1      34.169 -15.435 -22.288  0.00  0.00    -0.007 C 
ATOM     18  C   UNL     1      34.031 -15.052 -20.965  0.00  0.00    +0.135 C 
ATOM     19  C   UNL     1      33.372 -14.898 -23.284  0.00  0.00    -0.004 C 
ATOM     20  C   UNL     1      33.068 -14.101 -20.628  0.00  0.00    +0.029 C 
ATOM     21  C   UNL     1      32.409 -13.947 -22.948  0.00  0.00    -0.000 C 
ATOM     22  C   UNL     1      32.257 -13.549 -21.619  0.00  0.00    +0.002 C 
ENDBRANCH  15  17
BRANCH  15  24
ATOM     23  O   UNL     1      35.313 -16.543 -25.090  0.00  0.00    -0.298 OA
ATOM     24  C   UNL     1      34.968 -17.062 -24.034  0.00  0.00    +0.135 C 
BRANCH  24  25
ATOM     25  C   UNL     1      34.269 -18.383 -24.058  0.00  0.00    +0.056 C 
ATOM     26  C   UNL     1      33.678 -18.846 -25.345  0.00  0.00    +0.008 C 
ATOM     27  C   UNL     1      34.908 -19.508 -24.796  0.00  0.00    +0.008 C 
ENDBRANCH  24  25
ENDBRANCH  15  24
ENDBRANCH   2  15
TORSDOF 6
ENDMDL
MODEL 5
REMARK VINA RESULT:      -8.7      4.831      7.578
REMARK  Name = 6918456
REMARK  6 active torsions:
REMARK  status: ('A' for Active; 'I' for Inactive)
REMARK    1  A    between atoms: N_2  and  C_15
REMARK    2  A    between atoms: C_9  and  O_11
REMARK    3  A    between atoms: O_11  and  C_13
REMARK    4  A    between atoms: C_15  and  C_17
REMARK    5  A    between atoms: C_15  and  C_24
REMARK    6  A    between atoms: C_24  and  C_25
REMARK                            x       y       z     vdW  Elec       q    Type
REMARK                         _______ _______ _______ _____ _____    ______ ____
ROOT
ATOM      1  S   UNL     1      35.489 -22.194 -18.553  0.00  0.00    -0.055 S 
ATOM      2  N   UNL     1      35.467 -18.425 -20.942  0.00  0.00    +0.398 N 
ATOM      3  C   UNL     1      36.769 -19.124 -20.957  0.00  0.00    -0.070 C 
ATOM      4  C   UNL     1      34.341 -19.364 -21.153  0.00  0.00    -0.048 C 
ATOM      5  C   UNL     1      36.899 -20.086 -19.759  0.00  0.00    +0.010 C 
ATOM      6  C   UNL     1      34.439 -20.510 -20.192  0.00  0.00    -0.038 C 
ATOM      7  C   UNL     1      35.627 -20.848 -19.577  0.00  0.00    +0.002 C 
ATOM      8  C   UNL     1      33.389 -21.398 -19.809  0.00  0.00    +0.038 C 
ATOM      9  C   UNL     1      33.823 -22.361 -18.921  0.00  0.00    +0.177 C 
ATOM     10  H   UNL     1      35.356 -18.004 -20.019  0.00  0.00    -0.078 HD
ENDROOT
BRANCH   9  11
ATOM     11  O   UNL     1      33.111 -23.335 -18.364  0.00  0.00    -0.417 OA
BRANCH  11  13
ATOM     12  O   UNL     1      31.291 -22.395 -17.271  0.00  0.00    -0.250 OA
ATOM     13  C   UNL     1      32.382 -22.951 -17.277  0.00  0.00    +0.323 C 
ATOM     14  C   UNL     1      33.121 -23.330 -16.027  0.00  0.00    +0.122 C 
ENDBRANCH  11  13
ENDBRANCH   9  11
BRANCH   2  15
ATOM     15  C   UNL     1      35.438 -17.372 -21.956  0.00  0.00    +0.027 C 
BRANCH  15  17
ATOM     16  F   UNL     1      35.344 -14.862 -23.251  0.00  0.00    -0.205 F 
ATOM     17  C   UNL     1      34.341 -16.359 -21.708  0.00  0.00    -0.007 C 
ATOM     18  C   UNL     1      34.366 -15.151 -22.382  0.00  0.00    +0.135 C 
ATOM     19  C   UNL     1      33.334 -16.665 -20.808  0.00  0.00    -0.004 C 
ATOM     20  C   UNL     1      33.353 -14.220 -22.151  0.00  0.00    +0.029 C 
ATOM     21  C   UNL     1      32.321 -15.735 -20.576  0.00  0.00    -0.000 C 
ATOM     22  C   UNL     1      32.331 -14.512 -21.248  0.00  0.00    +0.002 C 
ENDBRANCH  15  17
BRANCH  15  24
ATOM     23  O   UNL     1      36.070 -18.892 -23.752  0.00  0.00    -0.298 OA
ATOM     24  C   UNL     1      35.313 -18.030 -23.321  0.00  0.00    +0.135 C 
BRANCH  24  25
ATOM     25  C   UNL     1      34.161 -17.577 -24.159  0.00  0.00    +0.056 C 
ATOM     26  C   UNL     1      34.448 -16.994 -25.499  0.00  0.00    +0.008 C 
ATOM     27  C   UNL     1      33.829 -18.356 -25.384  0.00  0.00    +0.008 C 
ENDBRANCH  24  25
ENDBRANCH  15  24
ENDBRANCH   2  15
TORSDOF 6
ENDMDL
MODEL 6
REMARK VINA RESULT:      -8.5      3.325      8.533
REMARK  Name = 6918456
REMARK  6 active torsions:
REMARK  status: ('A' for Active; 'I' for Inactive)
REMARK    1  A    between atoms: N_2  and  C_15
REMARK    2  A    between atoms: C_9  and  O_11
REMARK    3  A    between atoms: O_11  and  C_13
REMARK    4  A    between atoms: C_15  and  C_17
REMARK    5  A    between atoms: C_15  and  C_24
REMARK    6  A    between atoms: C_24  and  C_25
REMARK                            x       y       z     vdW  Elec       q    Type
REMARK                         _______ _______ _______ _____ _____    ______ ____
ROOT
ATOM      1  S   UNL     1      31.917 -12.389 -20.393  0.00  0.00    -0.055 S 
ATOM      2  N   UNL     1      33.751 -16.074 -22.115  0.00  0.00    +0.398 N 
ATOM      3  C   UNL     1      32.947 -16.329 -20.901  0.00  0.00    -0.070 C 
ATOM      4  C   UNL     1      33.050 -15.168 -23.053  0.00  0.00    -0.048 C 
ATOM      5  C   UNL     1      32.775 -15.043 -20.068  0.00  0.00    +0.010 C 
ATOM      6  C   UNL     1      32.604 -13.930 -22.337  0.00  0.00    -0.038 C 
ATOM      7  C   UNL     1      32.456 -13.893 -20.965  0.00  0.00    +0.002 C 
ATOM      8  C   UNL     1      32.252 -12.679 -22.927  0.00  0.00    +0.038 C 
ATOM      9  C   UNL     1      31.862 -11.752 -21.982  0.00  0.00    +0.177 C 
ATOM     10  H   UNL     1      34.614 -15.616 -21.820  0.00  0.00    -0.078 HD
ENDROOT
BRANCH   9  11
ATOM     11  O   UNL     1      31.476 -10.496 -22.185  0.00  0.00    -0.417 OA
BRANCH  11  13
ATOM     12  O   UNL     1      33.377  -9.561 -23.135  0.00  0.00    -0.250 OA
ATOM     13  C   UNL     1      32.499  -9.599 -22.283  0.00  0.00    +0.323 C 
ATOM     14  C   UNL     1      32.396  -8.608 -21.160  0.00  0.00    +0.122 C 
ENDBRANCH  11  13
ENDBRANCH   9  11
BRANCH   2  15
ATOM     15  C   UNL     1      34.081 -17.332 -22.785  0.00  0.00    +0.027 C 
BRANCH  15  17
ATOM     16  F   UNL     1      32.675 -19.471 -21.588  0.00  0.00    -0.205 F 
ATOM     17  C   UNL     1      34.738 -18.328 -21.855  0.00  0.00    -0.007 C 
ATOM     18  C   UNL     1      33.980 -19.350 -21.308  0.00  0.00    +0.135 C 
ATOM     19  C   UNL     1      36.086 -18.195 -21.569  0.00  0.00    -0.004 C 
ATOM     20  C   UNL     1      34.588 -20.266 -20.451  0.00  0.00    +0.029 C 
ATOM     21  C   UNL     1      36.695 -19.111 -20.712  0.00  0.00    -0.000 C 
ATOM     22  C   UNL     1      35.945 -20.146 -20.153  0.00  0.00    +0.002 C 
ENDBRANCH  15  17
BRANCH  15  24
ATOM     23  O   UNL     1      35.754 -16.090 -24.047  0.00  0.00    -0.298 OA
ATOM     24  C   UNL     1      34.950 -17.014 -23.991  0.00  0.00    +0.135 C 
BRANCH  24  25
ATOM     25  C   UNL     1      34.795 -17.926 -25.165  0.00  0.00    +0.056 C 
ATOM     26  C   UNL     1      34.873 -19.395 -24.933  0.00  0.00    +0.008 C 
ATOM     27  C   UNL     1      33.558 -18.750 -25.260  0.00  0.00    +0.008 C 
ENDBRANCH  24  25
ENDBRANCH  15  24
ENDBRANCH   2  15
TORSDOF 6
ENDMDL
MODEL 7
REMARK VINA RESULT:      -8.3      5.143      9.810
REMARK  Name = 6918456
REMARK  6 active torsions:
REMARK  status: ('A' for Active; 'I' for Inactive)
REMARK    1  A    between atoms: N_2  and  C_15
REMARK    2  A    between atoms: C_9  and  O_11
REMARK    3  A    between atoms: O_11  and  C_13
REMARK    4  A    between atoms: C_15  and  C_17
REMARK    5  A    between atoms: C_15  and  C_24
REMARK    6  A    between atoms: C_24  and  C_25
REMARK                            x       y       z     vdW  Elec       q    Type
REMARK                         _______ _______ _______ _____ _____    ______ ____
ROOT
ATOM      1  S   UNL     1      31.192  -3.007 -23.689  0.00  0.00    -0.055 S 
ATOM      2  N   UNL     1      32.083  -7.330 -23.038  0.00  0.00    +0.398 N 
ATOM      3  C   UNL     1      30.857  -6.872 -22.352  0.00  0.00    -0.070 C 
ATOM      4  C   UNL     1      32.148  -6.831 -24.430  0.00  0.00    -0.048 C 
ATOM      5  C   UNL     1      30.863  -5.342 -22.164  0.00  0.00    +0.010 C 
ATOM      6  C   UNL     1      31.944  -5.346 -24.455  0.00  0.00    -0.038 C 
ATOM      7  C   UNL     1      31.328  -4.677 -23.417  0.00  0.00    +0.002 C 
ATOM      8  C   UNL     1      32.304  -4.449 -25.505  0.00  0.00    +0.038 C 
ATOM      9  C   UNL     1      31.953  -3.147 -25.218  0.00  0.00    +0.177 C 
ATOM     10  H   UNL     1      32.880  -6.947 -22.529  0.00  0.00    -0.078 HD
ENDROOT
BRANCH   9  11
ATOM     11  O   UNL     1      32.144  -2.067 -25.970  0.00  0.00    -0.417 OA
BRANCH  11  13
ATOM     12  O   UNL     1      30.083  -1.786 -27.002  0.00  0.00    -0.250 OA
ATOM     13  C   UNL     1      31.294  -1.962 -27.032  0.00  0.00    +0.323 C 
ATOM     14  C   UNL     1      32.079  -2.082 -28.306  0.00  0.00    +0.122 C 
ENDBRANCH  11  13
ENDBRANCH   9  11
BRANCH   2  15
ATOM     15  C   UNL     1      32.163  -8.791 -23.026  0.00  0.00    +0.027 C 
BRANCH  15  17
ATOM     16  F   UNL     1      30.830 -11.242 -22.577  0.00  0.00    -0.205 F 
ATOM     17  C   UNL     1      31.952  -9.370 -21.644  0.00  0.00    -0.007 C 
ATOM     18  C   UNL     1      31.289 -10.577 -21.507  0.00  0.00    +0.135 C 
ATOM     19  C   UNL     1      32.427  -8.677 -20.544  0.00  0.00    -0.004 C 
ATOM     20  C   UNL     1      31.096 -11.108 -20.232  0.00  0.00    +0.029 C 
ATOM     21  C   UNL     1      32.235  -9.207 -19.268  0.00  0.00    -0.000 C 
ATOM     22  C   UNL     1      31.568 -10.423 -19.113  0.00  0.00    +0.002 C 
ENDBRANCH  15  17
BRANCH  15  24
ATOM     23  O   UNL     1      34.581  -8.704 -23.313  0.00  0.00    -0.298 OA
ATOM     24  C   UNL     1      33.502  -9.198 -23.620  0.00  0.00    +0.135 C 
BRANCH  24  25
ATOM     25  C   UNL     1      33.457 -10.294 -24.636  0.00  0.00    +0.056 C 
ATOM     26  C   UNL     1      34.747 -10.850 -25.133  0.00  0.00    +0.008 C 
ATOM     27  C   UNL     1      33.876 -11.662 -24.219  0.00  0.00    +0.008 C 
ENDBRANCH  24  25
ENDBRANCH  15  24
ENDBRANCH   2  15
TORSDOF 6
ENDMDL
MODEL 8
REMARK VINA RESULT:      -8.3      8.853     13.832
REMARK  Name = 6918456
REMARK  6 active torsions:
REMARK  status: ('A' for Active; 'I' for Inactive)
REMARK    1  A    between atoms: N_2  and  C_15
REMARK    2  A    between atoms: C_9  and  O_11
REMARK    3  A    between atoms: O_11  and  C_13
REMARK    4  A    between atoms: C_15  and  C_17
REMARK    5  A    between atoms: C_15  and  C_24
REMARK    6  A    between atoms: C_24  and  C_25
REMARK                            x       y       z     vdW  Elec       q    Type
REMARK                         _______ _______ _______ _____ _____    ______ ____
ROOT
ATOM      1  S   UNL     1      34.341 -21.829 -19.935  0.00  0.00    -0.055 S 
ATOM      2  N   UNL     1      34.778 -22.890 -15.623  0.00  0.00    +0.398 N 
ATOM      3  C   UNL     1      33.976 -23.866 -16.391  0.00  0.00    -0.070 C 
ATOM      4  C   UNL     1      36.008 -22.503 -16.350  0.00  0.00    -0.048 C 
ATOM      5  C   UNL     1      33.422 -23.236 -17.685  0.00  0.00    +0.010 C 
ATOM      6  C   UNL     1      35.667 -22.063 -17.741  0.00  0.00    -0.038 C 
ATOM      7  C   UNL     1      34.486 -22.429 -18.354  0.00  0.00    +0.002 C 
ATOM      8  C   UNL     1      36.475 -21.272 -18.612  0.00  0.00    +0.038 C 
ATOM      9  C   UNL     1      35.873 -21.068 -19.836  0.00  0.00    +0.177 C 
ATOM     10  H   UNL     1      34.207 -22.053 -15.502  0.00  0.00    -0.078 HD
ENDROOT
BRANCH   9  11
ATOM     11  O   UNL     1      36.344 -20.379 -20.871  0.00  0.00    -0.417 OA
BRANCH  11  13
ATOM     12  O   UNL     1      35.688 -18.195 -20.437  0.00  0.00    -0.250 OA
ATOM     13  C   UNL     1      35.685 -19.211 -21.119  0.00  0.00    +0.323 C 
ATOM     14  C   UNL     1      34.926 -19.337 -22.409  0.00  0.00    +0.122 C 
ENDBRANCH  11  13
ENDBRANCH   9  11
BRANCH   2  15
ATOM     15  C   UNL     1      35.122 -23.430 -14.308  0.00  0.00    +0.027 C 
BRANCH  15  17
ATOM     16  F   UNL     1      37.648 -23.214 -13.060  0.00  0.00    -0.205 F 
ATOM     17  C   UNL     1      36.172 -24.517 -14.386  0.00  0.00    -0.007 C 
ATOM     18  C   UNL     1      37.387 -24.335 -13.746  0.00  0.00    +0.135 C 
ATOM     19  C   UNL     1      35.895 -25.671 -15.098  0.00  0.00    -0.004 C 
ATOM     20  C   UNL     1      38.353 -25.338 -13.820  0.00  0.00    +0.029 C 
ATOM     21  C   UNL     1      36.861 -26.674 -15.173  0.00  0.00    -0.000 C 
ATOM     22  C   UNL     1      38.090 -26.507 -14.534  0.00  0.00    +0.002 C 
ENDBRANCH  15  17
BRANCH  15  24
ATOM     23  O   UNL     1      33.801 -24.663 -12.674  0.00  0.00    -0.298 OA
ATOM     24  C   UNL     1      33.843 -23.916 -13.645  0.00  0.00    +0.135 C 
BRANCH  24  25
ATOM     25  C   UNL     1      32.568 -23.410 -14.239  0.00  0.00    +0.056 C 
ATOM     26  C   UNL     1      31.349 -24.257 -14.123  0.00  0.00    +0.008 C 
ATOM     27  C   UNL     1      31.473 -22.997 -13.317  0.00  0.00    +0.008 C 
ENDBRANCH  24  25
ENDBRANCH  15  24
ENDBRANCH   2  15
TORSDOF 6
ENDMDL
MODEL 9
REMARK VINA RESULT:      -8.1      2.153      2.783
REMARK  Name = 6918456
REMARK  6 active torsions:
REMARK  status: ('A' for Active; 'I' for Inactive)
REMARK    1  A    between atoms: N_2  and  C_15
REMARK    2  A    between atoms: C_9  and  O_11
REMARK    3  A    between atoms: O_11  and  C_13
REMARK    4  A    between atoms: C_15  and  C_17
REMARK    5  A    between atoms: C_15  and  C_24
REMARK    6  A    between atoms: C_24  and  C_25
REMARK                            x       y       z     vdW  Elec       q    Type
REMARK                         _______ _______ _______ _____ _____    ______ ____
ROOT
ATOM      1  S   UNL     1      35.394 -18.370 -23.246  0.00  0.00    -0.055 S 
ATOM      2  N   UNL     1      33.829 -14.228 -23.803  0.00  0.00    +0.398 N 
ATOM      3  C   UNL     1      33.388 -15.170 -24.853  0.00  0.00    -0.070 C 
ATOM      4  C   UNL     1      33.704 -14.820 -22.452  0.00  0.00    -0.048 C 
ATOM      5  C   UNL     1      34.322 -16.395 -24.930  0.00  0.00    +0.010 C 
ATOM      6  C   UNL     1      34.384 -16.155 -22.409  0.00  0.00    -0.038 C 
ATOM      7  C   UNL     1      34.639 -16.882 -23.555  0.00  0.00    +0.002 C 
ATOM      8  C   UNL     1      34.819 -16.859 -21.246  0.00  0.00    +0.038 C 
ATOM      9  C   UNL     1      35.387 -18.076 -21.558  0.00  0.00    +0.177 C 
ATOM     10  H   UNL     1      34.816 -14.026 -23.968  0.00  0.00    -0.078 HD
ENDROOT
BRANCH   9  11
ATOM     11  O   UNL     1      35.896 -18.976 -20.722  0.00  0.00    -0.417 OA
BRANCH  11  13
ATOM     12  O   UNL     1      33.905 -20.168 -20.746  0.00  0.00    -0.250 OA
ATOM     13  C   UNL     1      35.102 -20.064 -20.511  0.00  0.00    +0.323 C 
ATOM     14  C   UNL     1      35.930 -21.177 -19.938  0.00  0.00    +0.122 C 
ENDBRANCH  11  13
ENDBRANCH   9  11
BRANCH   2  15
ATOM     15  C   UNL     1      33.066 -12.983 -23.877  0.00  0.00    +0.027 C 
BRANCH  15  17
ATOM     16  F   UNL     1      33.683 -12.890 -26.633  0.00  0.00    -0.205 F 
ATOM     17  C   UNL     1      33.857 -11.856 -24.504  0.00  0.00    -0.007 C 
ATOM     18  C   UNL     1      34.118 -11.883 -25.863  0.00  0.00    +0.135 C 
ATOM     19  C   UNL     1      34.304 -10.820 -23.702  0.00  0.00    -0.004 C 
ATOM     20  C   UNL     1      34.848 -10.843 -26.438  0.00  0.00    +0.029 C 
ATOM     21  C   UNL     1      35.034  -9.779 -24.276  0.00  0.00    -0.000 C 
ATOM     22  C   UNL     1      35.306  -9.791 -25.644  0.00  0.00    +0.002 C 
ENDBRANCH  15  17
BRANCH  15  24
ATOM     23  O   UNL     1      33.096 -13.049 -21.442  0.00  0.00    -0.298 OA
ATOM     24  C   UNL     1      32.585 -12.637 -22.477  0.00  0.00    +0.135 C 
BRANCH  24  25
ATOM     25  C   UNL     1      31.413 -11.711 -22.401  0.00  0.00    +0.056 C 
ATOM     26  C   UNL     1      30.812 -11.442 -21.066  0.00  0.00    +0.008 C 
ATOM     27  C   UNL     1      31.605 -10.378 -21.766  0.00  0.00    +0.008 C 
ENDBRANCH  24  25
ENDBRANCH  15  24
ENDBRANCH   2  15
TORSDOF 6
ENDMDL
