MODEL 1
REMARK VINA RESULT:     -10.7      0.000      0.000
REMARK  Name = 11462174
REMARK  5 active torsions:
REMARK  status: ('A' for Active; 'I' for Inactive)
REMARK    1  A    between atoms: N_2  and  C_23
REMARK    2  A    between atoms: C_3  and  C_12
REMARK    3  A    between atoms: C_12  and  C_14
REMARK    4  A    between atoms: C_23  and  C_25
REMARK    5  A    between atoms: C_25  and  O_26
REMARK                            x       y       z     vdW  Elec       q    Type
REMARK                         _______ _______ _______ _____ _____    ______ ____
ROOT
ATOM      1  F   UNL     1      32.599 -13.150 -19.520  0.00  0.00    -0.204 F 
ATOM      2  N   UNL     1      33.433 -15.166 -24.525  0.00  0.00    -0.321 N 
ATOM      3  C   UNL     1      34.706 -16.030 -22.958  0.00  0.00    -0.002 A 
ATOM      4  C   UNL     1      34.427 -16.078 -24.290  0.00  0.00    +0.034 A 
ATOM      5  C   UNL     1      33.877 -15.073 -22.340  0.00  0.00    +0.016 A 
ATOM      6  C   UNL     1      33.078 -14.538 -23.352  0.00  0.00    +0.060 A 
ATOM      7  C   UNL     1      35.006 -16.901 -25.372  0.00  0.00    +0.050 C 
ATOM      8  C   UNL     1      33.714 -14.599 -21.024  0.00  0.00    +0.031 C 
ATOM      9  C   UNL     1      32.119 -13.546 -23.112  0.00  0.00    +0.019 C 
ATOM     10  C   UNL     1      32.760 -13.608 -20.769  0.00  0.00    +0.140 C 
ATOM     11  C   UNL     1      31.976 -13.091 -21.799  0.00  0.00    +0.031 C 
ENDROOT
BRANCH   3  12
ATOM     12  C   UNL     1      35.740 -16.867 -22.258  0.00  0.00    +0.086 C 
BRANCH  12  14
ATOM     13  N   UNL     1      35.792 -18.951 -21.027  0.00  0.00    -0.410 NA
ATOM     14  C   UNL     1      35.022 -18.011 -21.622  0.00  0.00    +0.113 C 
ATOM     15  C   UNL     1      33.644 -18.057 -21.669  0.00  0.00    +0.028 C 
ATOM     16  C   UNL     1      35.180 -19.998 -20.441  0.00  0.00    +0.113 C 
ATOM     17  C   UNL     1      33.776 -20.132 -20.437  0.00  0.00    +0.026 C 
ATOM     18  C   UNL     1      33.017 -19.137 -21.065  0.00  0.00    +0.005 C 
ATOM     19  C   UNL     1      35.935 -20.987 -19.817  0.00  0.00    +0.085 C 
ATOM     20  C   UNL     1      33.172 -21.238 -19.816  0.00  0.00    +0.002 C 
ATOM     21  C   UNL     1      35.334 -22.087 -19.199  0.00  0.00    -0.019 C 
ATOM     22  C   UNL     1      33.951 -22.213 -19.199  0.00  0.00    -0.004 C 
ENDBRANCH  12  14
ENDBRANCH   3  12
BRANCH   2  23
ATOM     23  C   UNL     1      32.840 -14.898 -25.819  0.00  0.00    +0.216 C 
BRANCH  23  25
ATOM     24  O   UNL     1      33.541 -12.571 -25.991  0.00  0.00    -0.248 OA
ATOM     25  C   UNL     1      33.435 -13.685 -26.481  0.00  0.00    +0.337 C 
BRANCH  25  26
ATOM     26  O   UNL     1      33.851 -13.999 -27.735  0.00  0.00    -0.479 OA
ATOM     27  H   UNL     1      34.266 -14.823 -27.898  0.00  0.00    +0.295 HD
ENDBRANCH  25  26
ENDBRANCH  23  25
ENDBRANCH   2  23
TORSDOF 5
ENDMDL
MODEL 2
REMARK VINA RESULT:     -10.3      4.004      6.315
REMARK  Name = 11462174
REMARK  5 active torsions:
REMARK  status: ('A' for Active; 'I' for Inactive)
REMARK    1  A    between atoms: N_2  and  C_23
REMARK    2  A    between atoms: C_3  and  C_12
REMARK    3  A    between atoms: C_12  and  C_14
REMARK    4  A    between atoms: C_23  and  C_25
REMARK    5  A    between atoms: C_25  and  O_26
REMARK                            x       y       z     vdW  Elec       q    Type
REMARK                         _______ _______ _______ _____ _____    ______ ____
ROOT
ATOM      1  F   UNL     1      35.565 -10.790 -26.411  0.00  0.00    -0.204 F 
ATOM      2  N   UNL     1      32.698  -9.366 -21.990  0.00  0.00    -0.321 N 
ATOM      3  C   UNL     1      32.191 -11.333 -22.824  0.00  0.00    -0.002 A 
ATOM      4  C   UNL     1      31.887 -10.457 -21.826  0.00  0.00    +0.034 A 
ATOM      5  C   UNL     1      33.210 -10.788 -23.630  0.00  0.00    +0.016 A 
ATOM      6  C   UNL     1      33.516  -9.541 -23.083  0.00  0.00    +0.060 A 
ATOM      7  C   UNL     1      30.902 -10.544 -20.728  0.00  0.00    +0.050 C 
ATOM      8  C   UNL     1      33.912 -11.220 -24.773  0.00  0.00    +0.031 C 
ATOM      9  C   UNL     1      34.494  -8.698 -23.625  0.00  0.00    +0.019 C 
ATOM     10  C   UNL     1      34.893 -10.388 -25.324  0.00  0.00    +0.140 C 
ATOM     11  C   UNL     1      35.177  -9.147 -24.757  0.00  0.00    +0.031 C 
ENDROOT
BRANCH   3  12
ATOM     12  C   UNL     1      31.540 -12.671 -23.030  0.00  0.00    +0.086 C 
BRANCH  12  14
ATOM     13  N   UNL     1      33.033 -14.560 -23.280  0.00  0.00    -0.410 NA
ATOM     14  C   UNL     1      32.439 -13.697 -22.424  0.00  0.00    +0.113 C 
ATOM     15  C   UNL     1      32.618 -13.718 -21.056  0.00  0.00    +0.028 C 
ATOM     16  C   UNL     1      33.853 -15.499 -22.770  0.00  0.00    +0.113 C 
ATOM     17  C   UNL     1      34.099 -15.600 -21.385  0.00  0.00    +0.026 C 
ATOM     18  C   UNL     1      33.463 -14.687 -20.534  0.00  0.00    +0.005 C 
ATOM     19  C   UNL     1      34.485 -16.407 -23.616  0.00  0.00    +0.085 C 
ATOM     20  C   UNL     1      34.959 -16.593 -20.888  0.00  0.00    +0.002 C 
ATOM     21  C   UNL     1      35.341 -17.394 -23.122  0.00  0.00    -0.019 C 
ATOM     22  C   UNL     1      35.579 -17.488 -21.756  0.00  0.00    -0.004 C 
ENDBRANCH  12  14
ENDBRANCH   3  12
BRANCH   2  23
ATOM     23  C   UNL     1      32.696  -8.195 -21.136  0.00  0.00    +0.216 C 
BRANCH  23  25
ATOM     24  O   UNL     1      31.077  -7.167 -22.639  0.00  0.00    -0.248 OA
ATOM     25  C   UNL     1      31.832  -7.090 -21.682  0.00  0.00    +0.337 C 
BRANCH  25  26
ATOM     26  O   UNL     1      32.008  -5.960 -20.949  0.00  0.00    -0.479 OA
ATOM     27  H   UNL     1      31.638  -5.151 -21.242  0.00  0.00    +0.295 HD
ENDBRANCH  25  26
ENDBRANCH  23  25
ENDBRANCH   2  23
TORSDOF 5
ENDMDL
MODEL 3
REMARK VINA RESULT:     -10.2      6.895     10.456
REMARK  Name = 11462174
REMARK  5 active torsions:
REMARK  status: ('A' for Active; 'I' for Inactive)
REMARK    1  A    between atoms: N_2  and  C_23
REMARK    2  A    between atoms: C_3  and  C_12
REMARK    3  A    between atoms: C_12  and  C_14
REMARK    4  A    between atoms: C_23  and  C_25
REMARK    5  A    between atoms: C_25  and  O_26
REMARK                            x       y       z     vdW  Elec       q    Type
REMARK                         _______ _______ _______ _____ _____    ______ ____
ROOT
ATOM      1  F   UNL     1      28.817 -23.124 -15.941  0.00  0.00    -0.204 F 
ATOM      2  N   UNL     1      34.141 -23.217 -14.734  0.00  0.00    -0.321 N 
ATOM      3  C   UNL     1      33.668 -23.573 -16.849  0.00  0.00    -0.002 A 
ATOM      4  C   UNL     1      34.695 -23.472 -15.960  0.00  0.00    +0.034 A 
ATOM      5  C   UNL     1      32.446 -23.379 -16.175  0.00  0.00    +0.016 A 
ATOM      6  C   UNL     1      32.769 -23.155 -14.836  0.00  0.00    +0.060 A 
ATOM      7  C   UNL     1      36.155 -23.592 -16.150  0.00  0.00    +0.050 C 
ATOM      8  C   UNL     1      31.090 -23.369 -16.558  0.00  0.00    +0.031 C 
ATOM      9  C   UNL     1      31.799 -22.920 -13.854  0.00  0.00    +0.019 C 
ATOM     10  C   UNL     1      30.109 -23.135 -15.587  0.00  0.00    +0.140 C 
ATOM     11  C   UNL     1      30.461 -22.914 -14.256  0.00  0.00    +0.031 C 
ENDROOT
BRANCH   3  12
ATOM     12  C   UNL     1      33.817 -23.849 -18.318  0.00  0.00    +0.086 C 
BRANCH  12  14
ATOM     13  N   UNL     1      35.249 -22.160 -19.298  0.00  0.00    -0.410 NA
ATOM     14  C   UNL     1      33.982 -22.531 -18.999  0.00  0.00    +0.113 C 
ATOM     15  C   UNL     1      32.866 -21.771 -19.285  0.00  0.00    +0.028 C 
ATOM     16  C   UNL     1      35.438 -20.977 -19.913  0.00  0.00    +0.113 C 
ATOM     17  C   UNL     1      34.359 -20.131 -20.247  0.00  0.00    +0.026 C 
ATOM     18  C   UNL     1      33.064 -20.553 -19.919  0.00  0.00    +0.005 C 
ATOM     19  C   UNL     1      36.724 -20.557 -20.239  0.00  0.00    +0.085 C 
ATOM     20  C   UNL     1      34.593 -18.903 -20.888  0.00  0.00    +0.002 C 
ATOM     21  C   UNL     1      36.957 -19.337 -20.877  0.00  0.00    -0.019 C 
ATOM     22  C   UNL     1      35.890 -18.508 -21.202  0.00  0.00    -0.004 C 
ENDBRANCH  12  14
ENDBRANCH   3  12
BRANCH   2  23
ATOM     23  C   UNL     1      34.888 -23.039 -13.506  0.00  0.00    +0.216 C 
BRANCH  23  25
ATOM     24  O   UNL     1      36.423 -24.805 -12.828  0.00  0.00    -0.248 OA
ATOM     25  C   UNL     1      35.291 -24.349 -12.886  0.00  0.00    +0.337 C 
BRANCH  25  26
ATOM     26  O   UNL     1      34.198 -24.980 -12.384  0.00  0.00    -0.479 OA
ATOM     27  H   UNL     1      34.021 -24.949 -11.464  0.00  0.00    +0.295 HD
ENDBRANCH  25  26
ENDBRANCH  23  25
ENDBRANCH   2  23
TORSDOF 5
ENDMDL
MODEL 4
REMARK VINA RESULT:      -9.9      6.803     10.473
REMARK  Name = 11462174
REMARK  5 active torsions:
REMARK  status: ('A' for Active; 'I' for Inactive)
REMARK    1  A    between atoms: N_2  and  C_23
REMARK    2  A    between atoms: C_3  and  C_12
REMARK    3  A    between atoms: C_12  and  C_14
REMARK    4  A    between atoms: C_23  and  C_25
REMARK    5  A    between atoms: C_25  and  O_26
REMARK                            x       y       z     vdW  Elec       q    Type
REMARK                         _______ _______ _______ _____ _____    ______ ____
ROOT
ATOM      1  F   UNL     1      38.309 -23.473 -15.331  0.00  0.00    -0.204 F 
ATOM      2  N   UNL     1      32.865 -23.156 -15.070  0.00  0.00    -0.321 N 
ATOM      3  C   UNL     1      33.674 -23.499 -17.083  0.00  0.00    -0.002 A 
ATOM      4  C   UNL     1      32.517 -23.335 -16.382  0.00  0.00    +0.034 A 
ATOM      5  C   UNL     1      34.769 -23.423 -16.200  0.00  0.00    +0.016 A 
ATOM      6  C   UNL     1      34.234 -23.205 -14.930  0.00  0.00    +0.060 A 
ATOM      7  C   UNL     1      31.108 -23.330 -16.827  0.00  0.00    +0.050 C 
ATOM      8  C   UNL     1      36.168 -23.515 -16.341  0.00  0.00    +0.031 C 
ATOM      9  C   UNL     1      35.031 -23.073 -13.787  0.00  0.00    +0.019 C 
ATOM     10  C   UNL     1      36.977 -23.387 -15.207  0.00  0.00    +0.140 C 
ATOM     11  C   UNL     1      36.415 -23.169 -13.950  0.00  0.00    +0.031 C 
ENDROOT
BRANCH   3  12
ATOM     12  C   UNL     1      33.764 -23.726 -18.565  0.00  0.00    +0.086 C 
BRANCH  12  14
ATOM     13  N   UNL     1      35.198 -21.993 -19.462  0.00  0.00    -0.410 NA
ATOM     14  C   UNL     1      33.929 -22.387 -19.205  0.00  0.00    +0.113 C 
ATOM     15  C   UNL     1      32.811 -21.633 -19.498  0.00  0.00    +0.028 C 
ATOM     16  C   UNL     1      35.387 -20.791 -20.039  0.00  0.00    +0.113 C 
ATOM     17  C   UNL     1      34.307 -19.949 -20.376  0.00  0.00    +0.026 C 
ATOM     18  C   UNL     1      33.010 -20.395 -20.092  0.00  0.00    +0.005 C 
ATOM     19  C   UNL     1      36.676 -20.348 -20.321  0.00  0.00    +0.085 C 
ATOM     20  C   UNL     1      34.541 -18.701 -20.977  0.00  0.00    +0.002 C 
ATOM     21  C   UNL     1      36.910 -19.107 -20.919  0.00  0.00    -0.019 C 
ATOM     22  C   UNL     1      35.840 -18.282 -21.248  0.00  0.00    -0.004 C 
ENDBRANCH  12  14
ENDBRANCH   3  12
BRANCH   2  23
ATOM     23  C   UNL     1      31.929 -22.945 -13.984  0.00  0.00    +0.216 C 
BRANCH  23  25
ATOM     24  O   UNL     1      31.702 -25.363 -13.793  0.00  0.00    -0.248 OA
ATOM     25  C   UNL     1      31.397 -24.238 -13.428  0.00  0.00    +0.337 C 
BRANCH  25  26
ATOM     26  O   UNL     1      30.504 -23.983 -12.437  0.00  0.00    -0.479 OA
ATOM     27  H   UNL     1      30.035 -24.688 -12.037  0.00  0.00    +0.295 HD
ENDBRANCH  25  26
ENDBRANCH  23  25
ENDBRANCH   2  23
TORSDOF 5
ENDMDL
MODEL 5
REMARK VINA RESULT:      -9.7      3.413      7.630
REMARK  Name = 11462174
REMARK  5 active torsions:
REMARK  status: ('A' for Active; 'I' for Inactive)
REMARK    1  A    between atoms: N_2  and  C_23
REMARK    2  A    between atoms: C_3  and  C_12
REMARK    3  A    between atoms: C_12  and  C_14
REMARK    4  A    between atoms: C_23  and  C_25
REMARK    5  A    between atoms: C_25  and  O_26
REMARK                            x       y       z     vdW  Elec       q    Type
REMARK                         _______ _______ _______ _____ _____    ______ ____
ROOT
ATOM      1  F   UNL     1      31.618 -12.665 -19.862  0.00  0.00    -0.204 F 
ATOM      2  N   UNL     1      34.531 -16.075 -22.976  0.00  0.00    -0.321 N 
ATOM      3  C   UNL     1      33.500 -14.476 -24.073  0.00  0.00    -0.002 A 
ATOM      4  C   UNL     1      34.314 -15.558 -24.225  0.00  0.00    +0.034 A 
ATOM      5  C   UNL     1      33.197 -14.307 -22.708  0.00  0.00    +0.016 A 
ATOM      6  C   UNL     1      33.861 -15.332 -22.030  0.00  0.00    +0.060 A 
ATOM      7  C   UNL     1      34.913 -16.157 -25.435  0.00  0.00    +0.050 C 
ATOM      8  C   UNL     1      32.426 -13.390 -21.966  0.00  0.00    +0.031 C 
ATOM      9  C   UNL     1      33.792 -15.486 -20.641  0.00  0.00    +0.019 C 
ATOM     10  C   UNL     1      32.349 -13.532 -20.576  0.00  0.00    +0.140 C 
ATOM     11  C   UNL     1      33.022 -14.565 -19.926  0.00  0.00    +0.031 C 
ENDROOT
BRANCH   3  12
ATOM     12  C   UNL     1      33.003 -13.602 -25.190  0.00  0.00    +0.086 C 
BRANCH  12  14
ATOM     13  N   UNL     1      32.936 -11.495 -24.001  0.00  0.00    -0.410 NA
ATOM     14  C   UNL     1      33.550 -12.234 -24.954  0.00  0.00    +0.113 C 
ATOM     15  C   UNL     1      34.626 -11.796 -25.699  0.00  0.00    +0.028 C 
ATOM     16  C   UNL     1      33.402 -10.254 -23.759  0.00  0.00    +0.113 C 
ATOM     17  C   UNL     1      34.498  -9.719 -24.468  0.00  0.00    +0.026 C 
ATOM     18  C   UNL     1      35.103 -10.518 -25.447  0.00  0.00    +0.005 C 
ATOM     19  C   UNL     1      32.801  -9.461 -22.786  0.00  0.00    +0.085 C 
ATOM     20  C   UNL     1      34.957  -8.421 -24.190  0.00  0.00    +0.002 C 
ATOM     21  C   UNL     1      33.257  -8.169 -22.509  0.00  0.00    -0.019 C 
ATOM     22  C   UNL     1      34.337  -7.649 -23.212  0.00  0.00    -0.004 C 
ENDBRANCH  12  14
ENDBRANCH   3  12
BRANCH   2  23
ATOM     23  C   UNL     1      35.346 -17.238 -22.688  0.00  0.00    +0.216 C 
BRANCH  23  25
ATOM     24  O   UNL     1      33.931 -18.873 -21.566  0.00  0.00    -0.248 OA
ATOM     25  C   UNL     1      34.528 -18.494 -22.562  0.00  0.00    +0.337 C 
BRANCH  25  26
ATOM     26  O   UNL     1      34.541 -19.174 -23.737  0.00  0.00    -0.479 OA
ATOM     27  H   UNL     1      34.370 -20.096 -23.747  0.00  0.00    +0.295 HD
ENDBRANCH  25  26
ENDBRANCH  23  25
ENDBRANCH   2  23
TORSDOF 5
ENDMDL
MODEL 6
REMARK VINA RESULT:      -9.6      6.419     11.280
REMARK  Name = 11462174
REMARK  5 active torsions:
REMARK  status: ('A' for Active; 'I' for Inactive)
REMARK    1  A    between atoms: N_2  and  C_23
REMARK    2  A    between atoms: C_3  and  C_12
REMARK    3  A    between atoms: C_12  and  C_14
REMARK    4  A    between atoms: C_23  and  C_25
REMARK    5  A    between atoms: C_25  and  O_26
REMARK                            x       y       z     vdW  Elec       q    Type
REMARK                         _______ _______ _______ _____ _____    ______ ____
ROOT
ATOM      1  F   UNL     1      35.787 -11.050 -26.915  0.00  0.00    -0.204 F 
ATOM      2  N   UNL     1      32.342 -10.555 -22.709  0.00  0.00    -0.321 N 
ATOM      3  C   UNL     1      33.643  -8.818 -23.045  0.00  0.00    -0.002 A 
ATOM      4  C   UNL     1      32.653  -9.305 -22.246  0.00  0.00    +0.034 A 
ATOM      5  C   UNL     1      33.963  -9.775 -24.028  0.00  0.00    +0.016 A 
ATOM      6  C   UNL     1      33.126 -10.868 -23.797  0.00  0.00    +0.060 A 
ATOM      7  C   UNL     1      31.966  -8.707 -21.082  0.00  0.00    +0.050 C 
ATOM      8  C   UNL     1      34.877  -9.834 -25.098  0.00  0.00    +0.031 C 
ATOM      9  C   UNL     1      33.157 -12.024 -24.585  0.00  0.00    +0.019 C 
ATOM     10  C   UNL     1      34.920 -10.984 -25.895  0.00  0.00    +0.140 C 
ATOM     11  C   UNL     1      34.072 -12.060 -25.641  0.00  0.00    +0.031 C 
ENDROOT
BRANCH   3  12
ATOM     12  C   UNL     1      34.293  -7.471 -22.897  0.00  0.00    +0.086 C 
BRANCH  12  14
ATOM     13  N   UNL     1      34.659  -6.313 -24.991  0.00  0.00    -0.410 NA
ATOM     14  C   UNL     1      33.781  -6.612 -24.006  0.00  0.00    +0.113 C 
ATOM     15  C   UNL     1      32.473  -6.175 -23.976  0.00  0.00    +0.028 C 
ATOM     16  C   UNL     1      34.234  -5.541 -26.010  0.00  0.00    +0.113 C 
ATOM     17  C   UNL     1      32.914  -5.046 -26.068  0.00  0.00    +0.026 C 
ATOM     18  C   UNL     1      32.038  -5.380 -25.027  0.00  0.00    +0.005 C 
ATOM     19  C   UNL     1      35.104  -5.209 -27.044  0.00  0.00    +0.085 C 
ATOM     20  C   UNL     1      32.505  -4.242 -27.145  0.00  0.00    +0.002 C 
ATOM     21  C   UNL     1      34.698  -4.410 -28.116  0.00  0.00    -0.019 C 
ATOM     22  C   UNL     1      33.396  -3.926 -28.167  0.00  0.00    -0.004 C 
ENDBRANCH  12  14
ENDBRANCH   3  12
BRANCH   2  23
ATOM     23  C   UNL     1      31.333 -11.425 -22.139  0.00  0.00    +0.216 C 
BRANCH  23  25
ATOM     24  O   UNL     1      32.403 -13.515 -21.490  0.00  0.00    -0.248 OA
ATOM     25  C   UNL     1      31.919 -12.434 -21.190  0.00  0.00    +0.337 C 
BRANCH  25  26
ATOM     26  O   UNL     1      31.836 -11.974 -19.914  0.00  0.00    -0.479 OA
ATOM     27  H   UNL     1      31.374 -12.469 -19.267  0.00  0.00    +0.295 HD
ENDBRANCH  25  26
ENDBRANCH  23  25
ENDBRANCH   2  23
TORSDOF 5
ENDMDL
MODEL 7
REMARK VINA RESULT:      -9.5      3.493      5.452
REMARK  Name = 11462174
REMARK  5 active torsions:
REMARK  status: ('A' for Active; 'I' for Inactive)
REMARK    1  A    between atoms: N_2  and  C_23
REMARK    2  A    between atoms: C_3  and  C_12
REMARK    3  A    between atoms: C_12  and  C_14
REMARK    4  A    between atoms: C_23  and  C_25
REMARK    5  A    between atoms: C_25  and  O_26
REMARK                            x       y       z     vdW  Elec       q    Type
REMARK                         _______ _______ _______ _____ _____    ______ ____
ROOT
ATOM      1  F   UNL     1      30.053 -11.525 -20.739  0.00  0.00    -0.204 F 
ATOM      2  N   UNL     1      34.123  -9.422 -23.707  0.00  0.00    -0.321 N 
ATOM      3  C   UNL     1      33.439 -11.406 -24.355  0.00  0.00    -0.002 A 
ATOM      4  C   UNL     1      34.330 -10.413 -24.630  0.00  0.00    +0.034 A 
ATOM      5  C   UNL     1      32.657 -11.038 -23.242  0.00  0.00    +0.016 A 
ATOM      6  C   UNL     1      33.108  -9.777 -22.848  0.00  0.00    +0.060 A 
ATOM      7  C   UNL     1      35.363 -10.302 -25.680  0.00  0.00    +0.050 C 
ATOM      8  C   UNL     1      31.608 -11.641 -22.520  0.00  0.00    +0.031 C 
ATOM      9  C   UNL     1      32.560  -9.084 -21.762  0.00  0.00    +0.019 C 
ATOM     10  C   UNL     1      31.050 -10.960 -21.432  0.00  0.00    +0.140 C 
ATOM     11  C   UNL     1      31.520  -9.701 -21.061  0.00  0.00    +0.031 C 
ENDROOT
BRANCH   3  12
ATOM     12  C   UNL     1      33.313 -12.693 -25.120  0.00  0.00    +0.086 C 
BRANCH  12  14
ATOM     13  N   UNL     1      33.958 -15.004 -24.794  0.00  0.00    -0.410 NA
ATOM     14  C   UNL     1      33.800 -13.785 -24.227  0.00  0.00    +0.113 C 
ATOM     15  C   UNL     1      34.061 -13.510 -22.900  0.00  0.00    +0.028 C 
ATOM     16  C   UNL     1      34.397 -16.015 -24.020  0.00  0.00    +0.113 C 
ATOM     17  C   UNL     1      34.690 -15.831 -22.652  0.00  0.00    +0.026 C 
ATOM     18  C   UNL     1      34.513 -14.554 -22.105  0.00  0.00    +0.005 C 
ATOM     19  C   UNL     1      34.573 -17.284 -24.563  0.00  0.00    +0.085 C 
ATOM     20  C   UNL     1      35.147 -16.909 -21.875  0.00  0.00    +0.002 C 
ATOM     21  C   UNL     1      35.026 -18.355 -23.790  0.00  0.00    -0.019 C 
ATOM     22  C   UNL     1      35.314 -18.168 -22.444  0.00  0.00    -0.004 C 
ENDBRANCH  12  14
ENDBRANCH   3  12
BRANCH   2  23
ATOM     23  C   UNL     1      34.865  -8.179 -23.644  0.00  0.00    +0.216 C 
BRANCH  23  25
ATOM     24  O   UNL     1      33.071  -6.546 -23.875  0.00  0.00    -0.248 OA
ATOM     25  C   UNL     1      34.119  -7.034 -24.273  0.00  0.00    +0.337 C 
BRANCH  25  26
ATOM     26  O   UNL     1      34.781  -6.601 -25.377  0.00  0.00    -0.479 OA
ATOM     27  H   UNL     1      34.358  -6.020 -25.978  0.00  0.00    +0.295 HD
ENDBRANCH  25  26
ENDBRANCH  23  25
ENDBRANCH   2  23
TORSDOF 5
ENDMDL
MODEL 8
REMARK VINA RESULT:      -9.4      3.331      7.642
REMARK  Name = 11462174
REMARK  5 active torsions:
REMARK  status: ('A' for Active; 'I' for Inactive)
REMARK    1  A    between atoms: N_2  and  C_23
REMARK    2  A    between atoms: C_3  and  C_12
REMARK    3  A    between atoms: C_12  and  C_14
REMARK    4  A    between atoms: C_23  and  C_25
REMARK    5  A    between atoms: C_25  and  O_26
REMARK                            x       y       z     vdW  Elec       q    Type
REMARK                         _______ _______ _______ _____ _____    ______ ____
ROOT
ATOM      1  F   UNL     1      34.571 -15.413 -19.105  0.00  0.00    -0.204 F 
ATOM      2  N   UNL     1      34.214 -16.142 -24.504  0.00  0.00    -0.321 N 
ATOM      3  C   UNL     1      32.999 -14.492 -23.713  0.00  0.00    -0.002 A 
ATOM      4  C   UNL     1      33.337 -15.151 -24.856  0.00  0.00    +0.034 A 
ATOM      5  C   UNL     1      33.671 -15.075 -22.621  0.00  0.00    +0.016 A 
ATOM      6  C   UNL     1      34.436 -16.119 -23.145  0.00  0.00    +0.060 A 
ATOM      7  C   UNL     1      32.916 -14.940 -26.256  0.00  0.00    +0.050 C 
ATOM      8  C   UNL     1      33.716 -14.830 -21.234  0.00  0.00    +0.031 C 
ATOM      9  C   UNL     1      35.247 -16.935 -22.348  0.00  0.00    +0.019 C 
ATOM     10  C   UNL     1      34.523 -15.638 -20.425  0.00  0.00    +0.140 C 
ATOM     11  C   UNL     1      35.276 -16.673 -20.975  0.00  0.00    +0.031 C 
ENDROOT
BRANCH   3  12
ATOM     12  C   UNL     1      32.054 -13.327 -23.632  0.00  0.00    +0.086 C 
BRANCH  12  14
ATOM     13  N   UNL     1      32.518 -11.021 -23.056  0.00  0.00    -0.410 NA
ATOM     14  C   UNL     1      32.867 -12.088 -23.812  0.00  0.00    +0.113 C 
ATOM     15  C   UNL     1      33.909 -12.087 -24.717  0.00  0.00    +0.028 C 
ATOM     16  C   UNL     1      33.229  -9.885 -23.191  0.00  0.00    +0.113 C 
ATOM     17  C   UNL     1      34.312  -9.787 -24.090  0.00  0.00    +0.026 C 
ATOM     18  C   UNL     1      34.639 -10.915 -24.853  0.00  0.00    +0.005 C 
ATOM     19  C   UNL     1      32.904  -8.765 -22.432  0.00  0.00    +0.085 C 
ATOM     20  C   UNL     1      35.031  -8.586 -24.204  0.00  0.00    +0.002 C 
ATOM     21  C   UNL     1      33.619  -7.570 -22.546  0.00  0.00    -0.019 C 
ATOM     22  C   UNL     1      34.685  -7.480 -23.433  0.00  0.00    -0.004 C 
ENDBRANCH  12  14
ENDBRANCH   3  12
BRANCH   2  23
ATOM     23  C   UNL     1      34.821 -17.080 -25.425  0.00  0.00    +0.216 C 
BRANCH  23  25
ATOM     24  O   UNL     1      34.857 -19.412 -24.721  0.00  0.00    -0.248 OA
ATOM     25  C   UNL     1      34.285 -18.476 -25.257  0.00  0.00    +0.337 C 
BRANCH  25  26
ATOM     26  O   UNL     1      33.042 -18.562 -25.798  0.00  0.00    -0.479 OA
ATOM     27  H   UNL     1      32.472 -19.263 -25.551  0.00  0.00    +0.295 HD
ENDBRANCH  25  26
ENDBRANCH  23  25
ENDBRANCH   2  23
TORSDOF 5
ENDMDL
MODEL 9
REMARK VINA RESULT:      -9.4      4.088      8.403
REMARK  Name = 11462174
REMARK  5 active torsions:
REMARK  status: ('A' for Active; 'I' for Inactive)
REMARK    1  A    between atoms: N_2  and  C_23
REMARK    2  A    between atoms: C_3  and  C_12
REMARK    3  A    between atoms: C_12  and  C_14
REMARK    4  A    between atoms: C_23  and  C_25
REMARK    5  A    between atoms: C_25  and  O_26
REMARK                            x       y       z     vdW  Elec       q    Type
REMARK                         _______ _______ _______ _____ _____    ______ ____
ROOT
ATOM      1  F   UNL     1      33.098 -15.099 -27.400  0.00  0.00    -0.204 F 
ATOM      2  N   UNL     1      34.139 -15.714 -22.076  0.00  0.00    -0.321 N 
ATOM      3  C   UNL     1      32.785 -14.055 -22.566  0.00  0.00    -0.002 A 
ATOM      4  C   UNL     1      33.398 -14.698 -21.533  0.00  0.00    +0.034 A 
ATOM      5  C   UNL     1      33.143 -14.673 -23.780  0.00  0.00    +0.016 A 
ATOM      6  C   UNL     1      34.002 -15.722 -23.446  0.00  0.00    +0.060 A 
ATOM      7  C   UNL     1      33.357 -14.450 -20.077  0.00  0.00    +0.050 C 
ATOM      8  C   UNL     1      32.831 -14.457 -25.137  0.00  0.00    +0.031 C 
ATOM      9  C   UNL     1      34.567 -16.571 -24.405  0.00  0.00    +0.019 C 
ATOM     10  C   UNL     1      33.389 -15.298 -26.107  0.00  0.00    +0.140 C 
ATOM     11  C   UNL     1      34.243 -16.337 -25.744  0.00  0.00    +0.031 C 
ENDROOT
BRANCH   3  12
ATOM     12  C   UNL     1      31.872 -12.870 -22.429  0.00  0.00    +0.086 C 
BRANCH  12  14
ATOM     13  N   UNL     1      32.213 -10.474 -22.448  0.00  0.00    -0.410 NA
ATOM     14  C   UNL     1      32.624 -11.675 -22.914  0.00  0.00    +0.113 C 
ATOM     15  C   UNL     1      33.675 -11.847 -23.792  0.00  0.00    +0.028 C 
ATOM     16  C   UNL     1      32.869  -9.372 -22.862  0.00  0.00    +0.113 C 
ATOM     17  C   UNL     1      33.956  -9.446 -23.758  0.00  0.00    +0.026 C 
ATOM     18  C   UNL     1      34.348 -10.710 -24.217  0.00  0.00    +0.005 C 
ATOM     19  C   UNL     1      32.479  -8.116 -22.407  0.00  0.00    +0.085 C 
ATOM     20  C   UNL     1      34.616  -8.276 -24.170  0.00  0.00    +0.002 C 
ATOM     21  C   UNL     1      33.136  -6.952 -22.816  0.00  0.00    -0.019 C 
ATOM     22  C   UNL     1      34.206  -7.032 -23.699  0.00  0.00    -0.004 C 
ENDBRANCH  12  14
ENDBRANCH   3  12
BRANCH   2  23
ATOM     23  C   UNL     1      34.950 -16.646 -21.320  0.00  0.00    +0.216 C 
BRANCH  23  25
ATOM     24  O   UNL     1      33.278 -18.377 -20.941  0.00  0.00    -0.248 OA
ATOM     25  C   UNL     1      34.385 -18.040 -21.335  0.00  0.00    +0.337 C 
BRANCH  25  26
ATOM     26  O   UNL     1      35.293 -18.902 -21.860  0.00  0.00    -0.479 OA
ATOM     27  H   UNL     1      35.889 -19.355 -21.296  0.00  0.00    +0.295 HD
ENDBRANCH  25  26
ENDBRANCH  23  25
ENDBRANCH   2  23
TORSDOF 5
ENDMDL
