MODEL 1
REMARK VINA RESULT:      -9.3      0.000      0.000
REMARK  Name = 2315
REMARK  5 active torsions:
REMARK  status: ('A' for Active; 'I' for Inactive)
REMARK    1  A    between atoms: C_6  and  C_25
REMARK    2  A    between atoms: C_11  and  S_19
REMARK    3  A    between atoms: C_12  and  C_18
REMARK    4  A    between atoms: S_19  and  N_22
REMARK    5  A    between atoms: C_25  and  C_26
REMARK                            x       y       z     vdW  Elec       q    Type
REMARK                         _______ _______ _______ _____ _____    ______ ____
ROOT
ATOM      1  S   UNL     1      36.636 -22.522 -16.686  0.00  0.00    +0.063 S 
ATOM      2  O   UNL     1      37.342 -23.651 -16.113  0.00  0.00    -0.153 OA
ATOM      3  O   UNL     1      36.849 -21.174 -16.198  0.00  0.00    -0.153 OA
ATOM      4  N   UNL     1      36.839 -22.573 -18.377  0.00  0.00    -0.163 NA
ATOM      5  N   UNL     1      34.467 -22.181 -18.873  0.00  0.00    -0.319 N 
ATOM      6  C   UNL     1      35.842 -21.874 -19.217  0.00  0.00    +0.151 C 
ATOM      7  C   UNL     1      34.909 -22.836 -16.539  0.00  0.00    +0.136 C 
ATOM      8  C   UNL     1      34.054 -22.618 -17.627  0.00  0.00    +0.064 C 
ATOM      9  C   UNL     1      34.445 -23.309 -15.307  0.00  0.00    +0.041 C 
ATOM     10  C   UNL     1      32.691 -22.900 -17.428  0.00  0.00    +0.021 C 
ATOM     11  C   UNL     1      33.090 -23.573 -15.142  0.00  0.00    +0.127 C 
ATOM     12  C   UNL     1      32.211 -23.368 -16.201  0.00  0.00    +0.091 C 
ATOM     13  H   UNL     1      36.833 -23.555 -18.653  0.00  0.00    +0.151 HD
ATOM     14  H   UNL     1      33.783 -22.073 -19.572  0.00  0.00    +0.148 HD
ENDROOT
BRANCH  12  18
ATOM     15  F   UNL     1      30.438 -24.966 -16.040  0.00  0.00    -0.166 F 
ATOM     16  F   UNL     1      30.208 -23.123 -14.918  0.00  0.00    -0.166 F 
ATOM     17  F   UNL     1      30.020 -23.104 -17.085  0.00  0.00    -0.166 F 
ATOM     18  C   UNL     1      30.748 -23.637 -16.061  0.00  0.00    +0.420 C 
ENDBRANCH  12  18
BRANCH  11  19
ATOM     19  S   UNL     1      32.525 -24.155 -13.591  0.00  0.00    +0.057 S 
ATOM     20  O   UNL     1      31.844 -23.062 -12.915  0.00  0.00    -0.153 OA
ATOM     21  O   UNL     1      31.839 -25.421 -13.799  0.00  0.00    -0.153 OA
BRANCH  19  22
ATOM     22  N   UNL     1      34.009 -24.456 -12.800  0.00  0.00    -0.203 NA
ATOM     23  H   UNL     1      33.918 -24.227 -11.810  0.00  0.00    +0.144 HD
ATOM     24  H   UNL     1      34.739 -23.879 -13.217  0.00  0.00    +0.144 HD
ENDBRANCH  19  22
ENDBRANCH  11  19
BRANCH   6  25
ATOM     25  C   UNL     1      36.070 -20.368 -19.200  0.00  0.00    +0.064 C 
BRANCH  25  26
ATOM     26  C   UNL     1      35.755 -19.744 -20.531  0.00  0.00    -0.019 C 
ATOM     27  C   UNL     1      36.734 -19.014 -21.193  0.00  0.00    -0.004 C 
ATOM     28  C   UNL     1      34.490 -19.903 -21.080  0.00  0.00    -0.004 C 
ATOM     29  C   UNL     1      36.442 -18.434 -22.427  0.00  0.00    -0.000 C 
ATOM     30  C   UNL     1      34.199 -19.323 -22.315  0.00  0.00    -0.000 C 
ATOM     31  C   UNL     1      35.175 -18.589 -22.989  0.00  0.00    -0.000 C 
ENDBRANCH  25  26
ENDBRANCH   6  25
TORSDOF 5
ENDMDL
MODEL 2
REMARK VINA RESULT:      -9.0      9.936     12.348
REMARK  Name = 2315
REMARK  5 active torsions:
REMARK  status: ('A' for Active; 'I' for Inactive)
REMARK    1  A    between atoms: C_6  and  C_25
REMARK    2  A    between atoms: C_11  and  S_19
REMARK    3  A    between atoms: C_12  and  C_18
REMARK    4  A    between atoms: S_19  and  N_22
REMARK    5  A    between atoms: C_25  and  C_26
REMARK                            x       y       z     vdW  Elec       q    Type
REMARK                         _______ _______ _______ _____ _____    ______ ____
ROOT
ATOM      1  S   UNL     1      33.813 -11.404 -24.718  0.00  0.00    +0.063 S 
ATOM      2  O   UNL     1      33.681 -12.113 -25.976  0.00  0.00    -0.153 OA
ATOM      3  O   UNL     1      35.042 -10.725 -24.360  0.00  0.00    -0.153 OA
ATOM      4  N   UNL     1      32.490 -10.340 -24.569  0.00  0.00    -0.163 NA
ATOM      5  N   UNL     1      31.987 -10.971 -22.251  0.00  0.00    -0.319 N 
ATOM      6  C   UNL     1      32.109  -9.891 -23.212  0.00  0.00    +0.151 C 
ATOM      7  C   UNL     1      33.480 -12.546 -23.419  0.00  0.00    +0.136 C 
ATOM      8  C   UNL     1      32.635 -12.189 -22.360  0.00  0.00    +0.064 C 
ATOM      9  C   UNL     1      34.087 -13.803 -23.499  0.00  0.00    +0.041 C 
ATOM     10  C   UNL     1      32.417 -13.161 -21.368  0.00  0.00    +0.021 C 
ATOM     11  C   UNL     1      33.855 -14.741 -22.498  0.00  0.00    +0.127 C 
ATOM     12  C   UNL     1      33.020 -14.420 -21.431  0.00  0.00    +0.091 C 
ATOM     13  H   UNL     1      31.679 -10.806 -24.974  0.00  0.00    +0.151 HD
ATOM     14  H   UNL     1      31.405 -10.828 -21.471  0.00  0.00    +0.148 HD
ENDROOT
BRANCH  12  18
ATOM     15  F   UNL     1      31.975 -16.452 -20.725  0.00  0.00    -0.166 F 
ATOM     16  F   UNL     1      33.879 -15.956 -19.812  0.00  0.00    -0.166 F 
ATOM     17  F   UNL     1      32.096 -14.832 -19.280  0.00  0.00    -0.166 F 
ATOM     18  C   UNL     1      32.749 -15.398 -20.335  0.00  0.00    +0.420 C 
ENDBRANCH  12  18
BRANCH  11  19
ATOM     19  S   UNL     1      34.630 -16.305 -22.608  0.00  0.00    +0.057 S 
ATOM     20  O   UNL     1      35.458 -16.488 -21.426  0.00  0.00    -0.153 OA
ATOM     21  O   UNL     1      33.619 -17.295 -22.947  0.00  0.00    -0.153 OA
BRANCH  19  22
ATOM     22  N   UNL     1      35.644 -16.068 -23.962  0.00  0.00    -0.203 NA
ATOM     23  H   UNL     1      35.591 -16.883 -24.573  0.00  0.00    +0.144 HD
ATOM     24  H   UNL     1      36.605 -15.939 -23.648  0.00  0.00    +0.144 HD
ENDBRANCH  19  22
ENDBRANCH  11  19
BRANCH   6  25
ATOM     25  C   UNL     1      33.069  -8.827 -22.696  0.00  0.00    +0.064 C 
BRANCH  25  26
ATOM     26  C   UNL     1      33.191  -7.677 -23.658  0.00  0.00    -0.019 C 
ATOM     27  C   UNL     1      32.081  -6.887 -23.922  0.00  0.00    -0.004 C 
ATOM     28  C   UNL     1      34.410  -7.422 -24.270  0.00  0.00    -0.004 C 
ATOM     29  C   UNL     1      32.193  -5.820 -24.815  0.00  0.00    -0.000 C 
ATOM     30  C   UNL     1      34.523  -6.356 -25.162  0.00  0.00    -0.000 C 
ATOM     31  C   UNL     1      33.414  -5.554 -25.434  0.00  0.00    -0.000 C 
ENDBRANCH  25  26
ENDBRANCH   6  25
TORSDOF 5
ENDMDL
MODEL 3
REMARK VINA RESULT:      -9.0      8.390     10.995
REMARK  Name = 2315
REMARK  5 active torsions:
REMARK  status: ('A' for Active; 'I' for Inactive)
REMARK    1  A    between atoms: C_6  and  C_25
REMARK    2  A    between atoms: C_11  and  S_19
REMARK    3  A    between atoms: C_12  and  C_18
REMARK    4  A    between atoms: S_19  and  N_22
REMARK    5  A    between atoms: C_25  and  C_26
REMARK                            x       y       z     vdW  Elec       q    Type
REMARK                         _______ _______ _______ _____ _____    ______ ____
ROOT
ATOM      1  S   UNL     1      33.279 -14.626 -26.176  0.00  0.00    +0.063 S 
ATOM      2  O   UNL     1      32.404 -15.574 -26.837  0.00  0.00    -0.153 OA
ATOM      3  O   UNL     1      34.496 -14.156 -26.807  0.00  0.00    -0.153 OA
ATOM      4  N   UNL     1      32.336 -13.303 -25.662  0.00  0.00    -0.163 NA
ATOM      5  N   UNL     1      33.301 -13.236 -23.406  0.00  0.00    -0.319 N 
ATOM      6  C   UNL     1      32.854 -12.470 -24.554  0.00  0.00    +0.151 C 
ATOM      7  C   UNL     1      33.759 -15.324 -24.631  0.00  0.00    +0.136 C 
ATOM      8  C   UNL     1      33.724 -14.552 -23.463  0.00  0.00    +0.064 C 
ATOM      9  C   UNL     1      34.165 -16.662 -24.630  0.00  0.00    +0.041 C 
ATOM     10  C   UNL     1      34.117 -15.187 -22.271  0.00  0.00    +0.021 C 
ATOM     11  C   UNL     1      34.552 -17.260 -23.435  0.00  0.00    +0.127 C 
ATOM     12  C   UNL     1      34.529 -16.523 -22.255  0.00  0.00    +0.091 C 
ATOM     13  H   UNL     1      31.432 -13.672 -25.368  0.00  0.00    +0.151 HD
ATOM     14  H   UNL     1      33.305 -12.789 -22.529  0.00  0.00    +0.148 HD
ENDROOT
BRANCH  12  18
ATOM     15  F   UNL     1      34.070 -18.070 -20.490  0.00  0.00    -0.166 F 
ATOM     16  F   UNL     1      36.153 -17.753 -21.003  0.00  0.00    -0.166 F 
ATOM     17  F   UNL     1      35.046 -16.201 -19.957  0.00  0.00    -0.166 F 
ATOM     18  C   UNL     1      34.941 -17.127 -20.953  0.00  0.00    +0.420 C 
ENDBRANCH  12  18
BRANCH  11  19
ATOM     19  S   UNL     1      35.067 -18.932 -23.453  0.00  0.00    +0.057 S 
ATOM     20  O   UNL     1      36.514 -18.965 -23.313  0.00  0.00    -0.153 OA
ATOM     21  O   UNL     1      34.230 -19.679 -22.528  0.00  0.00    -0.153 OA
BRANCH  19  22
ATOM     22  N   UNL     1      34.656 -19.378 -25.050  0.00  0.00    -0.203 NA
ATOM     23  H   UNL     1      34.617 -20.395 -25.120  0.00  0.00    +0.144 HD
ATOM     24  H   UNL     1      35.360 -19.019 -25.695  0.00  0.00    +0.144 HD
ENDBRANCH  19  22
ENDBRANCH  11  19
BRANCH   6  25
ATOM     25  C   UNL     1      33.959 -11.541 -25.037  0.00  0.00    +0.064 C 
BRANCH  25  26
ATOM     26  C   UNL     1      33.917 -10.215 -24.329  0.00  0.00    -0.019 C 
ATOM     27  C   UNL     1      34.990  -9.342 -24.448  0.00  0.00    -0.004 C 
ATOM     28  C   UNL     1      32.808  -9.881 -23.563  0.00  0.00    -0.004 C 
ATOM     29  C   UNL     1      34.953  -8.112 -23.790  0.00  0.00    -0.000 C 
ATOM     30  C   UNL     1      32.770  -8.651 -22.906  0.00  0.00    -0.000 C 
ATOM     31  C   UNL     1      33.843  -7.766 -23.020  0.00  0.00    -0.000 C 
ENDBRANCH  25  26
ENDBRANCH   6  25
TORSDOF 5
ENDMDL
MODEL 4
REMARK VINA RESULT:      -8.9      8.688     11.651
REMARK  Name = 2315
REMARK  5 active torsions:
REMARK  status: ('A' for Active; 'I' for Inactive)
REMARK    1  A    between atoms: C_6  and  C_25
REMARK    2  A    between atoms: C_11  and  S_19
REMARK    3  A    between atoms: C_12  and  C_18
REMARK    4  A    between atoms: S_19  and  N_22
REMARK    5  A    between atoms: C_25  and  C_26
REMARK                            x       y       z     vdW  Elec       q    Type
REMARK                         _______ _______ _______ _____ _____    ______ ____
ROOT
ATOM      1  S   UNL     1      33.651 -14.891 -20.832  0.00  0.00    +0.063 S 
ATOM      2  O   UNL     1      32.547 -14.297 -20.106  0.00  0.00    -0.153 OA
ATOM      3  O   UNL     1      35.006 -14.838 -20.319  0.00  0.00    -0.153 OA
ATOM      4  N   UNL     1      33.231 -16.498 -21.212  0.00  0.00    -0.163 NA
ATOM      5  N   UNL     1      33.951 -16.342 -23.554  0.00  0.00    -0.319 N 
ATOM      6  C   UNL     1      33.924 -17.147 -22.347  0.00  0.00    +0.151 C 
ATOM      7  C   UNL     1      33.698 -14.162 -22.434  0.00  0.00    +0.136 C 
ATOM      8  C   UNL     1      33.852 -14.962 -23.574  0.00  0.00    +0.064 C 
ATOM      9  C   UNL     1      33.572 -12.771 -22.510  0.00  0.00    +0.041 C 
ATOM     10  C   UNL     1      33.873 -14.301 -24.814  0.00  0.00    +0.021 C 
ATOM     11  C   UNL     1      33.601 -12.148 -23.753  0.00  0.00    +0.127 C 
ATOM     12  C   UNL     1      33.753 -12.912 -24.906  0.00  0.00    +0.091 C 
ATOM     13  H   UNL     1      32.233 -16.510 -21.420  0.00  0.00    +0.151 HD
ATOM     14  H   UNL     1      34.044 -16.809 -24.416  0.00  0.00    +0.148 HD
ENDROOT
BRANCH  12  18
ATOM     15  F   UNL     1      32.604 -11.724 -26.636  0.00  0.00    -0.166 F 
ATOM     16  F   UNL     1      34.708 -11.271 -26.360  0.00  0.00    -0.166 F 
ATOM     17  F   UNL     1      34.113 -13.168 -27.242  0.00  0.00    -0.166 F 
ATOM     18  C   UNL     1      33.793 -12.279 -26.258  0.00  0.00    +0.420 C 
ENDBRANCH  12  18
BRANCH  11  19
ATOM     19  S   UNL     1      33.452 -10.406 -23.829  0.00  0.00    +0.057 S 
ATOM     20  O   UNL     1      34.789  -9.835 -23.881  0.00  0.00    -0.153 OA
ATOM     21  O   UNL     1      32.479 -10.074 -24.858  0.00  0.00    -0.153 OA
BRANCH  19  22
ATOM     22  N   UNL     1      32.768 -10.074 -22.299  0.00  0.00    -0.203 NA
ATOM     23  H   UNL     1      32.343 -10.923 -21.926  0.00  0.00    +0.144 HD
ATOM     24  H   UNL     1      32.056  -9.351 -22.395  0.00  0.00    +0.144 HD
ENDBRANCH  19  22
ENDBRANCH  11  19
BRANCH   6  25
ATOM     25  C   UNL     1      35.334 -17.570 -21.960  0.00  0.00    +0.064 C 
BRANCH  25  26
ATOM     26  C   UNL     1      35.334 -18.859 -21.185  0.00  0.00    -0.019 C 
ATOM     27  C   UNL     1      36.536 -19.388 -20.737  0.00  0.00    -0.004 C 
ATOM     28  C   UNL     1      34.132 -19.504 -20.930  0.00  0.00    -0.004 C 
ATOM     29  C   UNL     1      36.537 -20.584 -20.019  0.00  0.00    -0.000 C 
ATOM     30  C   UNL     1      34.132 -20.701 -20.212  0.00  0.00    -0.000 C 
ATOM     31  C   UNL     1      35.335 -21.240 -19.756  0.00  0.00    -0.000 C 
ENDBRANCH  25  26
ENDBRANCH   6  25
TORSDOF 5
ENDMDL
MODEL 5
REMARK VINA RESULT:      -8.7      2.423      3.157
REMARK  Name = 2315
REMARK  5 active torsions:
REMARK  status: ('A' for Active; 'I' for Inactive)
REMARK    1  A    between atoms: C_6  and  C_25
REMARK    2  A    between atoms: C_11  and  S_19
REMARK    3  A    between atoms: C_12  and  C_18
REMARK    4  A    between atoms: S_19  and  N_22
REMARK    5  A    between atoms: C_25  and  C_26
REMARK                            x       y       z     vdW  Elec       q    Type
REMARK                         _______ _______ _______ _____ _____    ______ ____
ROOT
ATOM      1  S   UNL     1      36.458 -20.947 -19.980  0.00  0.00    +0.063 S 
ATOM      2  O   UNL     1      37.551 -21.836 -20.318  0.00  0.00    -0.153 OA
ATOM      3  O   UNL     1      36.701 -19.594 -19.520  0.00  0.00    -0.153 OA
ATOM      4  N   UNL     1      35.362 -20.935 -21.285  0.00  0.00    -0.163 NA
ATOM      5  N   UNL     1      33.372 -21.217 -19.876  0.00  0.00    -0.319 N 
ATOM      6  C   UNL     1      33.963 -20.538 -21.013  0.00  0.00    +0.151 C 
ATOM      7  C   UNL     1      35.493 -21.730 -18.731  0.00  0.00    +0.136 C 
ATOM      8  C   UNL     1      34.096 -21.756 -18.826  0.00  0.00    +0.064 C 
ATOM      9  C   UNL     1      36.180 -22.316 -17.664  0.00  0.00    +0.041 C 
ATOM     10  C   UNL     1      33.402 -22.406 -17.791  0.00  0.00    +0.021 C 
ATOM     11  C   UNL     1      35.463 -22.948 -16.653  0.00  0.00    +0.127 C 
ATOM     12  C   UNL     1      34.074 -22.993 -16.715  0.00  0.00    +0.091 C 
ATOM     13  H   UNL     1      35.340 -21.878 -21.671  0.00  0.00    +0.151 HD
ATOM     14  H   UNL     1      32.391 -21.301 -19.849  0.00  0.00    +0.148 HD
ENDROOT
BRANCH  12  18
ATOM     15  F   UNL     1      33.780 -24.860 -15.249  0.00  0.00    -0.166 F 
ATOM     16  F   UNL     1      33.161 -22.918 -14.506  0.00  0.00    -0.166 F 
ATOM     17  F   UNL     1      31.988 -23.916 -16.042  0.00  0.00    -0.166 F 
ATOM     18  C   UNL     1      33.269 -23.658 -15.647  0.00  0.00    +0.420 C 
ENDBRANCH  12  18
BRANCH  11  19
ATOM     19  S   UNL     1      36.338 -23.668 -15.319  0.00  0.00    +0.057 S 
ATOM     20  O   UNL     1      35.923 -23.007 -14.092  0.00  0.00    -0.153 OA
ATOM     21  O   UNL     1      36.238 -25.115 -15.434  0.00  0.00    -0.153 OA
BRANCH  19  22
ATOM     22  N   UNL     1      37.937 -23.195 -15.690  0.00  0.00    -0.203 NA
ATOM     23  H   UNL     1      38.173 -22.354 -15.163  0.00  0.00    +0.144 HD
ATOM     24  H   UNL     1      38.011 -23.003 -16.689  0.00  0.00    +0.144 HD
ENDBRANCH  19  22
ENDBRANCH  11  19
BRANCH   6  25
ATOM     25  C   UNL     1      33.842 -19.029 -20.852  0.00  0.00    +0.064 C 
BRANCH  25  26
ATOM     26  C   UNL     1      34.284 -18.301 -22.092  0.00  0.00    -0.019 C 
ATOM     27  C   UNL     1      34.644 -16.963 -22.008  0.00  0.00    -0.004 C 
ATOM     28  C   UNL     1      34.324 -18.975 -23.304  0.00  0.00    -0.004 C 
ATOM     29  C   UNL     1      35.053 -16.287 -23.158  0.00  0.00    -0.000 C 
ATOM     30  C   UNL     1      34.733 -18.300 -24.454  0.00  0.00    -0.000 C 
ATOM     31  C   UNL     1      35.098 -16.956 -24.381  0.00  0.00    -0.000 C 
ENDBRANCH  25  26
ENDBRANCH   6  25
TORSDOF 5
ENDMDL
MODEL 6
REMARK VINA RESULT:      -8.5     11.396     14.102
REMARK  Name = 2315
REMARK  5 active torsions:
REMARK  status: ('A' for Active; 'I' for Inactive)
REMARK    1  A    between atoms: C_6  and  C_25
REMARK    2  A    between atoms: C_11  and  S_19
REMARK    3  A    between atoms: C_12  and  C_18
REMARK    4  A    between atoms: S_19  and  N_22
REMARK    5  A    between atoms: C_25  and  C_26
REMARK                            x       y       z     vdW  Elec       q    Type
REMARK                         _______ _______ _______ _____ _____    ______ ____
ROOT
ATOM      1  S   UNL     1      31.610 -12.081 -21.520  0.00  0.00    +0.063 S 
ATOM      2  O   UNL     1      30.183 -11.831 -21.563  0.00  0.00    -0.153 OA
ATOM      3  O   UNL     1      32.315 -12.211 -20.260  0.00  0.00    -0.153 OA
ATOM      4  N   UNL     1      31.943 -13.420 -22.520  0.00  0.00    -0.163 NA
ATOM      5  N   UNL     1      33.846 -12.357 -23.648  0.00  0.00    -0.319 N 
ATOM      6  C   UNL     1      33.317 -13.568 -23.048  0.00  0.00    +0.151 C 
ATOM      7  C   UNL     1      32.411 -10.786 -22.407  0.00  0.00    +0.136 C 
ATOM      8  C   UNL     1      33.420 -11.079 -23.333  0.00  0.00    +0.064 C 
ATOM      9  C   UNL     1      31.994  -9.477 -22.146  0.00  0.00    +0.041 C 
ATOM     10  C   UNL     1      34.003  -9.989 -24.001  0.00  0.00    +0.021 C 
ATOM     11  C   UNL     1      32.594  -8.420 -22.821  0.00  0.00    +0.127 C 
ATOM     12  C   UNL     1      33.600  -8.675 -23.749  0.00  0.00    +0.091 C 
ATOM     13  H   UNL     1      31.314 -13.365 -23.320  0.00  0.00    +0.151 HD
ATOM     14  H   UNL     1      34.555 -12.452 -24.324  0.00  0.00    +0.148 HD
ENDROOT
BRANCH  12  18
ATOM     15  F   UNL     1      33.405  -6.622 -24.961  0.00  0.00    -0.166 F 
ATOM     16  F   UNL     1      35.178  -6.878 -23.737  0.00  0.00    -0.166 F 
ATOM     17  F   UNL     1      34.961  -8.010 -25.581  0.00  0.00    -0.166 F 
ATOM     18  C   UNL     1      34.272  -7.566 -24.491  0.00  0.00    +0.420 C 
ENDBRANCH  12  18
BRANCH  11  19
ATOM     19  S   UNL     1      32.067  -6.788 -22.476  0.00  0.00    +0.057 S 
ATOM     20  O   UNL     1      33.232  -5.916 -22.505  0.00  0.00    -0.153 OA
ATOM     21  O   UNL     1      30.916  -6.491 -23.315  0.00  0.00    -0.153 OA
BRANCH  19  22
ATOM     22  N   UNL     1      31.542  -6.954 -20.859  0.00  0.00    -0.203 NA
ATOM     23  H   UNL     1      30.595  -7.333 -20.847  0.00  0.00    +0.144 HD
ATOM     24  H   UNL     1      31.548  -6.041 -20.404  0.00  0.00    +0.144 HD
ENDBRANCH  19  22
ENDBRANCH  11  19
BRANCH   6  25
ATOM     25  C   UNL     1      34.265 -14.087 -21.975  0.00  0.00    +0.064 C 
BRANCH  25  26
ATOM     26  C   UNL     1      34.608 -15.535 -22.192  0.00  0.00    -0.019 C 
ATOM     27  C   UNL     1      34.740 -16.378 -21.097  0.00  0.00    -0.004 C 
ATOM     28  C   UNL     1      34.791 -16.010 -23.484  0.00  0.00    -0.004 C 
ATOM     29  C   UNL     1      35.059 -17.721 -21.298  0.00  0.00    -0.000 C 
ATOM     30  C   UNL     1      35.110 -17.353 -23.684  0.00  0.00    -0.000 C 
ATOM     31  C   UNL     1      35.244 -18.209 -22.591  0.00  0.00    -0.000 C 
ENDBRANCH  25  26
ENDBRANCH   6  25
TORSDOF 5
ENDMDL
MODEL 7
REMARK VINA RESULT:      -8.3      8.663     11.024
REMARK  Name = 2315
REMARK  5 active torsions:
REMARK  status: ('A' for Active; 'I' for Inactive)
REMARK    1  A    between atoms: C_6  and  C_25
REMARK    2  A    between atoms: C_11  and  S_19
REMARK    3  A    between atoms: C_12  and  C_18
REMARK    4  A    between atoms: S_19  and  N_22
REMARK    5  A    between atoms: C_25  and  C_26
REMARK                            x       y       z     vdW  Elec       q    Type
REMARK                         _______ _______ _______ _____ _____    ______ ____
ROOT
ATOM      1  S   UNL     1      34.163 -14.962 -23.483  0.00  0.00    +0.063 S 
ATOM      2  O   UNL     1      35.111 -14.168 -24.241  0.00  0.00    -0.153 OA
ATOM      3  O   UNL     1      33.093 -15.687 -24.139  0.00  0.00    -0.153 OA
ATOM      4  N   UNL     1      35.042 -16.007 -22.465  0.00  0.00    -0.163 NA
ATOM      5  N   UNL     1      33.695 -15.523 -20.472  0.00  0.00    -0.319 N 
ATOM      6  C   UNL     1      34.364 -16.538 -21.262  0.00  0.00    +0.151 C 
ATOM      7  C   UNL     1      33.395 -13.903 -22.304  0.00  0.00    +0.136 C 
ATOM      8  C   UNL     1      33.247 -14.313 -20.973  0.00  0.00    +0.064 C 
ATOM      9  C   UNL     1      32.952 -12.655 -22.754  0.00  0.00    +0.041 C 
ATOM     10  C   UNL     1      32.629 -13.406 -20.094  0.00  0.00    +0.021 C 
ATOM     11  C   UNL     1      32.340 -11.782 -21.861  0.00  0.00    +0.127 C 
ATOM     12  C   UNL     1      32.177 -12.157 -20.531  0.00  0.00    +0.091 C 
ATOM     13  H   UNL     1      35.868 -15.499 -22.149  0.00  0.00    +0.151 HD
ATOM     14  H   UNL     1      33.550 -15.706 -19.515  0.00  0.00    +0.148 HD
ENDROOT
BRANCH  12  18
ATOM     15  F   UNL     1      32.247 -10.127 -19.268  0.00  0.00    -0.166 F 
ATOM     16  F   UNL     1      30.299 -10.796 -19.947  0.00  0.00    -0.166 F 
ATOM     17  F   UNL     1      31.309 -11.855 -18.338  0.00  0.00    -0.166 F 
ATOM     18  C   UNL     1      31.521 -11.249 -19.542  0.00  0.00    +0.420 C 
ENDBRANCH  12  18
BRANCH  11  19
ATOM     19  S   UNL     1      31.783 -10.229 -22.443  0.00  0.00    +0.057 S 
ATOM     20  O   UNL     1      30.343 -10.306 -22.641  0.00  0.00    -0.153 OA
ATOM     21  O   UNL     1      32.345  -9.192 -21.592  0.00  0.00    -0.153 OA
BRANCH  19  22
ATOM     22  N   UNL     1      32.548 -10.164 -23.969  0.00  0.00    -0.203 NA
ATOM     23  H   UNL     1      33.029 -11.046 -24.146  0.00  0.00    +0.144 HD
ATOM     24  H   UNL     1      33.224  -9.401 -23.978  0.00  0.00    +0.144 HD
ENDBRANCH  19  22
ENDBRANCH  11  19
BRANCH   6  25
ATOM     25  C   UNL     1      33.393 -17.653 -21.627  0.00  0.00    +0.064 C 
BRANCH  25  26
ATOM     26  C   UNL     1      33.778 -18.957 -20.986  0.00  0.00    -0.019 C 
ATOM     27  C   UNL     1      35.116 -19.322 -20.929  0.00  0.00    -0.004 C 
ATOM     28  C   UNL     1      32.792 -19.780 -20.461  0.00  0.00    -0.004 C 
ATOM     29  C   UNL     1      35.475 -20.532 -20.335  0.00  0.00    -0.000 C 
ATOM     30  C   UNL     1      33.150 -20.991 -19.867  0.00  0.00    -0.000 C 
ATOM     31  C   UNL     1      34.492 -21.366 -19.803  0.00  0.00    -0.000 C 
ENDBRANCH  25  26
ENDBRANCH   6  25
TORSDOF 5
ENDMDL
MODEL 8
REMARK VINA RESULT:      -8.2      8.159     11.192
REMARK  Name = 2315
REMARK  5 active torsions:
REMARK  status: ('A' for Active; 'I' for Inactive)
REMARK    1  A    between atoms: C_6  and  C_25
REMARK    2  A    between atoms: C_11  and  S_19
REMARK    3  A    between atoms: C_12  and  C_18
REMARK    4  A    between atoms: S_19  and  N_22
REMARK    5  A    between atoms: C_25  and  C_26
REMARK                            x       y       z     vdW  Elec       q    Type
REMARK                         _______ _______ _______ _____ _____    ______ ____
ROOT
ATOM      1  S   UNL     1      34.593 -18.054 -24.830  0.00  0.00    +0.063 S 
ATOM      2  O   UNL     1      35.487 -18.026 -25.971  0.00  0.00    -0.153 OA
ATOM      3  O   UNL     1      33.326 -18.756 -24.882  0.00  0.00    -0.153 OA
ATOM      4  N   UNL     1      35.487 -18.557 -23.469  0.00  0.00    -0.163 NA
ATOM      5  N   UNL     1      34.620 -16.791 -22.000  0.00  0.00    -0.319 N 
ATOM      6  C   UNL     1      34.976 -18.192 -22.130  0.00  0.00    +0.151 C 
ATOM      7  C   UNL     1      34.220 -16.388 -24.398  0.00  0.00    +0.136 C 
ATOM      8  C   UNL     1      34.266 -15.975 -23.060  0.00  0.00    +0.064 C 
ATOM      9  C   UNL     1      33.886 -15.515 -25.438  0.00  0.00    +0.041 C 
ATOM     10  C   UNL     1      33.960 -14.627 -22.801  0.00  0.00    +0.021 C 
ATOM     11  C   UNL     1      33.584 -14.188 -25.148  0.00  0.00    +0.127 C 
ATOM     12  C   UNL     1      33.621 -13.743 -23.829  0.00  0.00    +0.091 C 
ATOM     13  H   UNL     1      36.421 -18.158 -23.557  0.00  0.00    +0.151 HD
ATOM     14  H   UNL     1      34.632 -16.395 -21.099  0.00  0.00    +0.148 HD
ENDROOT
BRANCH  12  18
ATOM     15  F   UNL     1      34.277 -11.444 -23.829  0.00  0.00    -0.166 F 
ATOM     16  F   UNL     1      32.163 -11.863 -24.075  0.00  0.00    -0.166 F 
ATOM     17  F   UNL     1      33.108 -12.153 -22.138  0.00  0.00    -0.166 F 
ATOM     18  C   UNL     1      33.299 -12.328 -23.477  0.00  0.00    +0.420 C 
ENDBRANCH  12  18
BRANCH  11  19
ATOM     19  S   UNL     1      33.158 -13.111 -26.459  0.00  0.00    +0.057 S 
ATOM     20  O   UNL     1      31.721 -13.194 -26.670  0.00  0.00    -0.153 OA
ATOM     21  O   UNL     1      33.783 -11.821 -26.214  0.00  0.00    -0.153 OA
BRANCH  19  22
ATOM     22  N   UNL     1      33.954 -13.868 -27.768  0.00  0.00    -0.203 NA
ATOM     23  H   UNL     1      33.521 -14.773 -27.951  0.00  0.00    +0.144 HD
ATOM     24  H   UNL     1      34.938 -14.002 -27.536  0.00  0.00    +0.144 HD
ENDBRANCH  19  22
ENDBRANCH  11  19
BRANCH   6  25
ATOM     25  C   UNL     1      33.803 -19.077 -21.731  0.00  0.00    +0.064 C 
BRANCH  25  26
ATOM     26  C   UNL     1      34.211 -20.118 -20.725  0.00  0.00    -0.019 C 
ATOM     27  C   UNL     1      33.234 -20.856 -20.071  0.00  0.00    -0.004 C 
ATOM     28  C   UNL     1      35.558 -20.327 -20.462  0.00  0.00    -0.004 C 
ATOM     29  C   UNL     1      33.611 -21.822 -19.137  0.00  0.00    -0.000 C 
ATOM     30  C   UNL     1      35.935 -21.292 -19.529  0.00  0.00    -0.000 C 
ATOM     31  C   UNL     1      34.962 -22.040 -18.867  0.00  0.00    -0.000 C 
ENDBRANCH  25  26
ENDBRANCH   6  25
TORSDOF 5
ENDMDL
MODEL 9
REMARK VINA RESULT:      -8.2      5.307      6.947
REMARK  Name = 2315
REMARK  5 active torsions:
REMARK  status: ('A' for Active; 'I' for Inactive)
REMARK    1  A    between atoms: C_6  and  C_25
REMARK    2  A    between atoms: C_11  and  S_19
REMARK    3  A    between atoms: C_12  and  C_18
REMARK    4  A    between atoms: S_19  and  N_22
REMARK    5  A    between atoms: C_25  and  C_26
REMARK                            x       y       z     vdW  Elec       q    Type
REMARK                         _______ _______ _______ _____ _____    ______ ____
ROOT
ATOM      1  S   UNL     1      31.763 -23.225 -13.160  0.00  0.00    +0.063 S 
ATOM      2  O   UNL     1      31.884 -22.370 -11.996  0.00  0.00    -0.153 OA
ATOM      3  O   UNL     1      30.944 -24.421 -13.136  0.00  0.00    -0.153 OA
ATOM      4  N   UNL     1      31.338 -22.250 -14.492  0.00  0.00    -0.163 NA
ATOM      5  N   UNL     1      33.003 -23.238 -16.001  0.00  0.00    -0.319 N 
ATOM      6  C   UNL     1      31.643 -22.756 -15.848  0.00  0.00    +0.151 C 
ATOM      7  C   UNL     1      33.383 -23.742 -13.619  0.00  0.00    +0.136 C 
ATOM      8  C   UNL     1      33.789 -23.698 -14.959  0.00  0.00    +0.064 C 
ATOM      9  C   UNL     1      34.228 -24.186 -12.597  0.00  0.00    +0.041 C 
ATOM     10  C   UNL     1      35.100 -24.122 -15.239  0.00  0.00    +0.021 C 
ATOM     11  C   UNL     1      35.518 -24.604 -12.908  0.00  0.00    +0.127 C 
ATOM     12  C   UNL     1      35.955 -24.573 -14.229  0.00  0.00    +0.091 C 
ATOM     13  H   UNL     1      31.824 -21.360 -14.383  0.00  0.00    +0.151 HD
ATOM     14  H   UNL     1      33.392 -23.239 -16.905  0.00  0.00    +0.148 HD
ENDROOT
BRANCH  12  18
ATOM     15  F   UNL     1      38.295 -24.596 -13.733  0.00  0.00    -0.166 F 
ATOM     16  F   UNL     1      37.468 -26.373 -14.662  0.00  0.00    -0.166 F 
ATOM     17  F   UNL     1      37.714 -24.555 -15.828  0.00  0.00    -0.166 F 
ATOM     18  C   UNL     1      37.331 -25.017 -14.603  0.00  0.00    +0.420 C 
ENDBRANCH  12  18
BRANCH  11  19
ATOM     19  S   UNL     1      36.559 -25.166 -11.619  0.00  0.00    +0.057 S 
ATOM     20  O   UNL     1      36.932 -26.543 -11.901  0.00  0.00    -0.153 OA
ATOM     21  O   UNL     1      37.591 -24.166 -11.393  0.00  0.00    -0.153 OA
BRANCH  19  22
ATOM     22  N   UNL     1      35.475 -25.146 -10.298  0.00  0.00    -0.203 NA
ATOM     23  H   UNL     1      34.757 -25.857 -10.438  0.00  0.00    +0.144 HD
ATOM     24  H   UNL     1      35.037 -24.227 -10.232  0.00  0.00    +0.144 HD
ENDBRANCH  19  22
ENDBRANCH  11  19
BRANCH   6  25
ATOM     25  C   UNL     1      30.648 -23.828 -16.270  0.00  0.00    +0.064 C 
BRANCH  25  26
ATOM     26  C   UNL     1      29.250 -23.282 -16.363  0.00  0.00    -0.019 C 
ATOM     27  C   UNL     1      28.550 -23.394 -17.557  0.00  0.00    -0.004 C 
ATOM     28  C   UNL     1      28.678 -22.671 -15.256  0.00  0.00    -0.004 C 
ATOM     29  C   UNL     1      27.254 -22.887 -17.644  0.00  0.00    -0.000 C 
ATOM     30  C   UNL     1      27.381 -22.164 -15.343  0.00  0.00    -0.000 C 
ATOM     31  C   UNL     1      26.669 -22.272 -16.537  0.00  0.00    -0.000 C 
ENDBRANCH  25  26
ENDBRANCH   6  25
TORSDOF 5
ENDMDL
