MODEL 1
REMARK VINA RESULT:      -8.9      0.000      0.000
REMARK  Name = 4493
REMARK  3 active torsions:
REMARK  status: ('A' for Active; 'I' for Inactive)
REMARK    1  A    between atoms: C_1  and  N_9
REMARK    2  A    between atoms: C_4  and  C_20
REMARK    3  A    between atoms: C_5  and  N_23
REMARK                            x       y       z     vdW  Elec       q    Type
REMARK                         _______ _______ _______ _____ _____    ______ ____
ROOT
ATOM      1  C   UNL     1      34.300 -24.204 -14.369  0.00  0.00    +0.062 C 
ATOM      2  C   UNL     1      35.153 -25.176 -14.899  0.00  0.00    +0.021 C 
ATOM      3  C   UNL     1      34.685 -23.496 -13.228  0.00  0.00    +0.017 C 
ATOM      4  C   UNL     1      36.382 -25.437 -14.292  0.00  0.00    +0.095 C 
ATOM      5  C   UNL     1      36.761 -24.727 -13.153  0.00  0.00    +0.147 C 
ATOM      6  C   UNL     1      35.912 -23.757 -12.621  0.00  0.00    +0.025 C 
ENDROOT
BRANCH   1   9
ATOM      7  O   UNL     1      31.616 -24.697 -13.304  0.00  0.00    -0.272 OA
ATOM      8  O   UNL     1      33.790 -23.024 -17.011  0.00  0.00    -0.252 OA
ATOM      9  N   UNL     1      33.075 -23.945 -14.973  0.00  0.00    -0.191 N 
ATOM     10  N   UNL     1      31.539 -23.279 -16.465  0.00  0.00    -0.283 N 
ATOM     11  C   UNL     1      30.736 -23.787 -15.386  0.00  0.00    +0.128 C 
ATOM     12  C   UNL     1      31.833 -24.205 -14.405  0.00  0.00    +0.252 C 
ATOM     13  C   UNL     1      29.923 -24.999 -15.825  0.00  0.00    +0.029 C 
ATOM     14  C   UNL     1      29.867 -22.693 -14.780  0.00  0.00    +0.029 C 
ATOM     15  C   UNL     1      32.912 -23.378 -16.235  0.00  0.00    +0.314 C 
ATOM     16  H   UNL     1      31.157 -22.897 -17.288  0.00  0.00    +0.151 HD
ENDBRANCH   1   9
BRANCH   4  20
ATOM     17  F   UNL     1      38.456 -25.971 -15.296  0.00  0.00    -0.166 F 
ATOM     18  F   UNL     1      37.554 -27.477 -14.014  0.00  0.00    -0.166 F 
ATOM     19  F   UNL     1      36.689 -27.055 -15.970  0.00  0.00    -0.166 F 
ATOM     20  C   UNL     1      37.269 -26.482 -14.888  0.00  0.00    +0.420 C 
ENDBRANCH   4  20
BRANCH   5  23
ATOM     21  O   UNL     1      39.006 -24.302 -12.867  0.00  0.00    -0.126 OA
ATOM     22  O   UNL     1      38.067 -25.860 -11.632  0.00  0.00    -0.126 OA
ATOM     23  N   UNL     1      38.010 -24.976 -12.518  0.00  0.00    +0.058 N 
ENDBRANCH   5  23
TORSDOF 3
ENDMDL
MODEL 2
REMARK VINA RESULT:      -8.5      1.973      2.553
REMARK  Name = 4493
REMARK  3 active torsions:
REMARK  status: ('A' for Active; 'I' for Inactive)
REMARK    1  A    between atoms: C_1  and  N_9
REMARK    2  A    between atoms: C_4  and  C_20
REMARK    3  A    between atoms: C_5  and  N_23
REMARK                            x       y       z     vdW  Elec       q    Type
REMARK                         _______ _______ _______ _____ _____    ______ ____
ROOT
ATOM      1  C   UNL     1      34.767 -24.363 -14.685  0.00  0.00    +0.062 C 
ATOM      2  C   UNL     1      35.331 -23.741 -13.568  0.00  0.00    +0.021 C 
ATOM      3  C   UNL     1      35.519 -25.287 -15.414  0.00  0.00    +0.017 C 
ATOM      4  C   UNL     1      36.638 -24.041 -13.184  0.00  0.00    +0.095 C 
ATOM      5  C   UNL     1      37.384 -24.964 -13.915  0.00  0.00    +0.147 C 
ATOM      6  C   UNL     1      36.825 -25.587 -15.030  0.00  0.00    +0.025 C 
ENDROOT
BRANCH   1   9
ATOM      7  O   UNL     1      32.278 -24.955 -13.259  0.00  0.00    -0.272 OA
ATOM      8  O   UNL     1      33.860 -22.979 -17.114  0.00  0.00    -0.252 OA
ATOM      9  N   UNL     1      33.465 -24.063 -15.069  0.00  0.00    -0.191 N 
ATOM     10  N   UNL     1      31.719 -23.291 -16.247  0.00  0.00    -0.283 N 
ATOM     11  C   UNL     1      31.091 -23.888 -15.100  0.00  0.00    +0.128 C 
ATOM     12  C   UNL     1      32.324 -24.376 -14.338  0.00  0.00    +0.252 C 
ATOM     13  C   UNL     1      30.212 -25.066 -15.502  0.00  0.00    +0.029 C 
ATOM     14  C   UNL     1      30.333 -22.852 -14.282  0.00  0.00    +0.029 C 
ATOM     15  C   UNL     1      33.111 -23.399 -16.241  0.00  0.00    +0.314 C 
ATOM     16  H   UNL     1      31.217 -22.847 -16.967  0.00  0.00    +0.151 HD
ENDBRANCH   1   9
BRANCH   4  20
ATOM     17  F   UNL     1      37.910 -24.208 -11.197  0.00  0.00    -0.166 F 
ATOM     18  F   UNL     1      38.049 -22.349 -12.314  0.00  0.00    -0.166 F 
ATOM     19  F   UNL     1      36.228 -22.823 -11.215  0.00  0.00    -0.166 F 
ATOM     20  C   UNL     1      37.207 -23.357 -11.983  0.00  0.00    +0.420 C 
ENDBRANCH   4  20
BRANCH   5  23
ATOM     21  O   UNL     1      39.645 -24.529 -13.907  0.00  0.00    -0.126 OA
ATOM     22  O   UNL     1      38.918 -26.318 -12.856  0.00  0.00    -0.126 OA
ATOM     23  N   UNL     1      38.719 -25.287 -13.540  0.00  0.00    +0.058 N 
ENDBRANCH   5  23
TORSDOF 3
ENDMDL
MODEL 3
REMARK VINA RESULT:      -8.4     13.912     15.941
REMARK  Name = 4493
REMARK  3 active torsions:
REMARK  status: ('A' for Active; 'I' for Inactive)
REMARK    1  A    between atoms: C_1  and  N_9
REMARK    2  A    between atoms: C_4  and  C_20
REMARK    3  A    between atoms: C_5  and  N_23
REMARK                            x       y       z     vdW  Elec       q    Type
REMARK                         _______ _______ _______ _____ _____    ______ ____
ROOT
ATOM      1  C   UNL     1      33.479 -11.961 -24.228  0.00  0.00    +0.062 C 
ATOM      2  C   UNL     1      33.810 -13.013 -23.369  0.00  0.00    +0.021 C 
ATOM      3  C   UNL     1      33.267 -12.217 -25.584  0.00  0.00    +0.017 C 
ATOM      4  C   UNL     1      33.929 -14.311 -23.866  0.00  0.00    +0.095 C 
ATOM      5  C   UNL     1      33.717 -14.561 -25.221  0.00  0.00    +0.147 C 
ATOM      6  C   UNL     1      33.386 -13.514 -26.081  0.00  0.00    +0.025 C 
ENDROOT
BRANCH   1   9
ATOM      7  O   UNL     1      31.327 -10.840 -22.587  0.00  0.00    -0.272 OA
ATOM      8  O   UNL     1      35.331  -9.706 -24.574  0.00  0.00    -0.252 OA
ATOM      9  N   UNL     1      33.361 -10.667 -23.734  0.00  0.00    -0.191 N 
ATOM     10  N   UNL     1      33.804  -8.516 -23.277  0.00  0.00    -0.283 N 
ATOM     11  C   UNL     1      32.541  -8.728 -22.623  0.00  0.00    +0.128 C 
ATOM     12  C   UNL     1      32.305 -10.201 -22.956  0.00  0.00    +0.252 C 
ATOM     13  C   UNL     1      31.449  -7.861 -23.239  0.00  0.00    +0.029 C 
ATOM     14  C   UNL     1      32.657  -8.532 -21.118  0.00  0.00    +0.029 C 
ATOM     15  C   UNL     1      34.286  -9.646 -23.939  0.00  0.00    +0.314 C 
ATOM     16  H   UNL     1      34.284  -7.657 -23.258  0.00  0.00    +0.151 HD
ENDBRANCH   1   9
BRANCH   4  20
ATOM     17  F   UNL     1      33.417 -16.451 -22.997  0.00  0.00    -0.166 F 
ATOM     18  F   UNL     1      35.519 -15.917 -23.153  0.00  0.00    -0.166 F 
ATOM     19  F   UNL     1      34.268 -14.976 -21.636  0.00  0.00    -0.166 F 
ATOM     20  C   UNL     1      34.284 -15.412 -22.919  0.00  0.00    +0.420 C 
ENDBRANCH   4  20
BRANCH   5  23
ATOM     21  O   UNL     1      32.794 -16.465 -26.130  0.00  0.00    -0.126 OA
ATOM     22  O   UNL     1      34.969 -16.401 -25.815  0.00  0.00    -0.126 OA
ATOM     23  N   UNL     1      33.833 -15.878 -25.750  0.00  0.00    +0.058 N 
ENDBRANCH   5  23
TORSDOF 3
ENDMDL
MODEL 4
REMARK VINA RESULT:      -8.4     12.551     14.813
REMARK  Name = 4493
REMARK  3 active torsions:
REMARK  status: ('A' for Active; 'I' for Inactive)
REMARK    1  A    between atoms: C_1  and  N_9
REMARK    2  A    between atoms: C_4  and  C_20
REMARK    3  A    between atoms: C_5  and  N_23
REMARK                            x       y       z     vdW  Elec       q    Type
REMARK                         _______ _______ _______ _____ _____    ______ ____
ROOT
ATOM      1  C   UNL     1      33.521 -14.615 -22.868  0.00  0.00    +0.062 C 
ATOM      2  C   UNL     1      33.922 -13.542 -23.668  0.00  0.00    +0.021 C 
ATOM      3  C   UNL     1      32.572 -14.411 -21.864  0.00  0.00    +0.017 C 
ATOM      4  C   UNL     1      33.378 -12.274 -23.464  0.00  0.00    +0.095 C 
ATOM      5  C   UNL     1      32.431 -12.075 -22.459  0.00  0.00    +0.147 C 
ATOM      6  C   UNL     1      32.028 -13.144 -21.660  0.00  0.00    +0.025 C 
ENDROOT
BRANCH   1   9
ATOM      7  O   UNL     1      34.603 -16.462 -20.868  0.00  0.00    -0.272 OA
ATOM      8  O   UNL     1      33.846 -16.070 -25.401  0.00  0.00    -0.252 OA
ATOM      9  N   UNL     1      34.063 -15.879 -23.071  0.00  0.00    -0.191 N 
ATOM     10  N   UNL     1      34.766 -17.755 -24.080  0.00  0.00    -0.283 N 
ATOM     11  C   UNL     1      35.074 -18.002 -22.697  0.00  0.00    +0.128 C 
ATOM     12  C   UNL     1      34.561 -16.706 -22.069  0.00  0.00    +0.252 C 
ATOM     13  C   UNL     1      36.576 -18.140 -22.481  0.00  0.00    +0.029 C 
ATOM     14  C   UNL     1      34.298 -19.198 -22.163  0.00  0.00    +0.029 C 
ATOM     15  C   UNL     1      34.183 -16.508 -24.308  0.00  0.00    +0.314 C 
ATOM     16  H   UNL     1      34.949 -18.403 -24.797  0.00  0.00    +0.151 HD
ENDBRANCH   1   9
BRANCH   4  20
ATOM     17  F   UNL     1      32.796 -10.376 -24.751  0.00  0.00    -0.166 F 
ATOM     18  F   UNL     1      34.705 -10.327 -23.712  0.00  0.00    -0.166 F 
ATOM     19  F   UNL     1      34.448 -11.615 -25.451  0.00  0.00    -0.166 F 
ATOM     20  C   UNL     1      33.831 -11.150 -24.338  0.00  0.00    +0.420 C 
ENDBRANCH   4  20
BRANCH   5  23
ATOM     21  O   UNL     1      32.553  -9.920 -21.657  0.00  0.00    -0.126 OA
ATOM     22  O   UNL     1      30.689 -10.577 -22.621  0.00  0.00    -0.126 OA
ATOM     23  N   UNL     1      31.861 -10.790 -22.234  0.00  0.00    +0.058 N 
ENDBRANCH   5  23
TORSDOF 3
ENDMDL
MODEL 5
REMARK VINA RESULT:      -8.3      2.407      3.493
REMARK  Name = 4493
REMARK  3 active torsions:
REMARK  status: ('A' for Active; 'I' for Inactive)
REMARK    1  A    between atoms: C_1  and  N_9
REMARK    2  A    between atoms: C_4  and  C_20
REMARK    3  A    between atoms: C_5  and  N_23
REMARK                            x       y       z     vdW  Elec       q    Type
REMARK                         _______ _______ _______ _____ _____    ______ ____
ROOT
ATOM      1  C   UNL     1      32.897 -23.661 -15.173  0.00  0.00    +0.062 C 
ATOM      2  C   UNL     1      33.632 -23.776 -13.989  0.00  0.00    +0.021 C 
ATOM      3  C   UNL     1      33.562 -23.436 -16.380  0.00  0.00    +0.017 C 
ATOM      4  C   UNL     1      35.022 -23.666 -14.015  0.00  0.00    +0.095 C 
ATOM      5  C   UNL     1      35.682 -23.442 -15.223  0.00  0.00    +0.147 C 
ATOM      6  C   UNL     1      34.952 -23.327 -16.405  0.00  0.00    +0.025 C 
ENDROOT
BRANCH   1   9
ATOM      7  O   UNL     1      30.958 -22.514 -17.045  0.00  0.00    -0.272 OA
ATOM      8  O   UNL     1      31.219 -25.100 -13.236  0.00  0.00    -0.252 OA
ATOM      9  N   UNL     1      31.511 -23.769 -15.148  0.00  0.00    -0.191 N 
ATOM     10  N   UNL     1      29.434 -24.343 -14.528  0.00  0.00    -0.283 N 
ATOM     11  C   UNL     1      29.206 -23.537 -15.697  0.00  0.00    +0.128 C 
ATOM     12  C   UNL     1      30.648 -23.195 -16.075  0.00  0.00    +0.252 C 
ATOM     13  C   UNL     1      28.431 -22.272 -15.353  0.00  0.00    +0.029 C 
ATOM     14  C   UNL     1      28.540 -24.343 -16.804  0.00  0.00    +0.029 C 
ATOM     15  C   UNL     1      30.782 -24.475 -14.194  0.00  0.00    +0.314 C 
ATOM     16  H   UNL     1      28.708 -24.763 -14.013  0.00  0.00    +0.151 HD
ENDBRANCH   1   9
BRANCH   4  20
ATOM     17  F   UNL     1      36.422 -24.983 -12.635  0.00  0.00    -0.166 F 
ATOM     18  F   UNL     1      36.713 -22.829 -12.582  0.00  0.00    -0.166 F 
ATOM     19  F   UNL     1      34.942 -23.709 -11.666  0.00  0.00    -0.166 F 
ATOM     20  C   UNL     1      35.775 -23.795 -12.730  0.00  0.00    +0.420 C 
ENDBRANCH   4  20
BRANCH   5  23
ATOM     21  O   UNL     1      37.789 -24.371 -15.202  0.00  0.00    -0.126 OA
ATOM     22  O   UNL     1      37.606 -22.187 -15.385  0.00  0.00    -0.126 OA
ATOM     23  N   UNL     1      37.100 -23.328 -15.272  0.00  0.00    +0.058 N 
ENDBRANCH   5  23
TORSDOF 3
ENDMDL
MODEL 6
REMARK VINA RESULT:      -8.3     14.927     16.809
REMARK  Name = 4493
REMARK  3 active torsions:
REMARK  status: ('A' for Active; 'I' for Inactive)
REMARK    1  A    between atoms: C_1  and  N_9
REMARK    2  A    between atoms: C_4  and  C_20
REMARK    3  A    between atoms: C_5  and  N_23
REMARK                            x       y       z     vdW  Elec       q    Type
REMARK                         _______ _______ _______ _____ _____    ______ ____
ROOT
ATOM      1  C   UNL     1      33.223 -10.481 -23.602  0.00  0.00    +0.062 C 
ATOM      2  C   UNL     1      32.876 -11.362 -22.575  0.00  0.00    +0.021 C 
ATOM      3  C   UNL     1      33.804 -10.977 -24.772  0.00  0.00    +0.017 C 
ATOM      4  C   UNL     1      33.110 -12.730 -22.717  0.00  0.00    +0.095 C 
ATOM      5  C   UNL     1      33.690 -13.221 -23.886  0.00  0.00    +0.147 C 
ATOM      6  C   UNL     1      34.038 -12.344 -24.913  0.00  0.00    +0.025 C 
ENDROOT
BRANCH   1   9
ATOM      7  O   UNL     1      30.662  -9.111 -23.218  0.00  0.00    -0.272 OA
ATOM      8  O   UNL     1      35.184  -8.292 -23.611  0.00  0.00    -0.252 OA
ATOM      9  N   UNL     1      32.991  -9.117 -23.461  0.00  0.00    -0.191 N 
ATOM     10  N   UNL     1      33.336  -6.908 -23.297  0.00  0.00    -0.283 N 
ATOM     11  C   UNL     1      31.907  -7.017 -23.177  0.00  0.00    +0.128 C 
ATOM     12  C   UNL     1      31.742  -8.533 -23.281  0.00  0.00    +0.252 C 
ATOM     13  C   UNL     1      31.202  -6.323 -24.336  0.00  0.00    +0.029 C 
ATOM     14  C   UNL     1      31.425  -6.518 -21.822  0.00  0.00    +0.029 C 
ATOM     15  C   UNL     1      33.977  -8.134 -23.474  0.00  0.00    +0.314 C 
ATOM     16  H   UNL     1      33.817  -6.050 -23.256  0.00  0.00    +0.151 HD
ENDBRANCH   1   9
BRANCH   4  20
ATOM     17  F   UNL     1      32.011 -14.710 -22.033  0.00  0.00    -0.166 F 
ATOM     18  F   UNL     1      33.801 -14.138 -20.941  0.00  0.00    -0.166 F 
ATOM     19  F   UNL     1      31.961 -12.999 -20.683  0.00  0.00    -0.166 F 
ATOM     20  C   UNL     1      32.725 -13.643 -21.597  0.00  0.00    +0.420 C 
ENDBRANCH   4  20
BRANCH   5  23
ATOM     21  O   UNL     1      33.173 -15.273 -24.793  0.00  0.00    -0.126 OA
ATOM     22  O   UNL     1      34.910 -15.126 -23.452  0.00  0.00    -0.126 OA
ATOM     23  N   UNL     1      33.937 -14.613 -24.053  0.00  0.00    +0.058 N 
ENDBRANCH   5  23
TORSDOF 3
ENDMDL
MODEL 7
REMARK VINA RESULT:      -8.1      3.836      6.273
REMARK  Name = 4493
REMARK  3 active torsions:
REMARK  status: ('A' for Active; 'I' for Inactive)
REMARK    1  A    between atoms: C_1  and  N_9
REMARK    2  A    between atoms: C_4  and  C_20
REMARK    3  A    between atoms: C_5  and  N_23
REMARK                            x       y       z     vdW  Elec       q    Type
REMARK                         _______ _______ _______ _____ _____    ______ ____
ROOT
ATOM      1  C   UNL     1      35.906 -23.048 -15.827  0.00  0.00    +0.062 C 
ATOM      2  C   UNL     1      34.779 -22.985 -16.650  0.00  0.00    +0.021 C 
ATOM      3  C   UNL     1      37.110 -22.488 -16.261  0.00  0.00    +0.017 C 
ATOM      4  C   UNL     1      34.855 -22.366 -17.898  0.00  0.00    +0.095 C 
ATOM      5  C   UNL     1      36.060 -21.809 -18.327  0.00  0.00    +0.147 C 
ATOM      6  C   UNL     1      37.187 -21.870 -17.509  0.00  0.00    +0.025 C 
ENDROOT
BRANCH   1   9
ATOM      7  O   UNL     1      38.049 -23.442 -13.869  0.00  0.00    -0.272 OA
ATOM      8  O   UNL     1      33.559 -24.256 -14.536  0.00  0.00    -0.252 OA
ATOM      9  N   UNL     1      35.831 -23.664 -14.583  0.00  0.00    -0.191 N 
ATOM     10  N   UNL     1      35.019 -24.723 -12.781  0.00  0.00    -0.283 N 
ATOM     11  C   UNL     1      36.408 -24.551 -12.451  0.00  0.00    +0.128 C 
ATOM     12  C   UNL     1      36.895 -23.817 -13.701  0.00  0.00    +0.252 C 
ATOM     13  C   UNL     1      37.114 -25.894 -12.313  0.00  0.00    +0.029 C 
ATOM     14  C   UNL     1      36.579 -23.676 -11.216  0.00  0.00    +0.029 C 
ATOM     15  C   UNL     1      34.676 -24.215 -14.034  0.00  0.00    +0.314 C 
ATOM     16  H   UNL     1      34.372 -25.157 -12.180  0.00  0.00    +0.151 HD
ENDBRANCH   1   9
BRANCH   4  20
ATOM     17  F   UNL     1      33.393 -21.072 -19.233  0.00  0.00    -0.166 F 
ATOM     18  F   UNL     1      33.711 -23.140 -19.823  0.00  0.00    -0.166 F 
ATOM     19  F   UNL     1      32.531 -22.686 -18.048  0.00  0.00    -0.166 F 
ATOM     20  C   UNL     1      33.629 -22.317 -18.751  0.00  0.00    +0.420 C 
ENDBRANCH   4  20
BRANCH   5  23
ATOM     21  O   UNL     1      36.207 -19.922 -19.638  0.00  0.00    -0.126 OA
ATOM     22  O   UNL     1      36.200 -21.888 -20.624  0.00  0.00    -0.126 OA
ATOM     23  N   UNL     1      36.161 -21.173 -19.596  0.00  0.00    +0.058 N 
ENDBRANCH   5  23
TORSDOF 3
ENDMDL
MODEL 8
REMARK VINA RESULT:      -8.1      3.640      6.695
REMARK  Name = 4493
REMARK  3 active torsions:
REMARK  status: ('A' for Active; 'I' for Inactive)
REMARK    1  A    between atoms: C_1  and  N_9
REMARK    2  A    between atoms: C_4  and  C_20
REMARK    3  A    between atoms: C_5  and  N_23
REMARK                            x       y       z     vdW  Elec       q    Type
REMARK                         _______ _______ _______ _____ _____    ______ ____
ROOT
ATOM      1  C   UNL     1      33.894 -23.566 -14.995  0.00  0.00    +0.062 C 
ATOM      2  C   UNL     1      32.764 -23.633 -14.174  0.00  0.00    +0.021 C 
ATOM      3  C   UNL     1      33.737 -23.395 -16.372  0.00  0.00    +0.017 C 
ATOM      4  C   UNL     1      31.488 -23.528 -14.728  0.00  0.00    +0.095 C 
ATOM      5  C   UNL     1      31.337 -23.357 -16.104  0.00  0.00    +0.147 C 
ATOM      6  C   UNL     1      32.462 -23.290 -16.926  0.00  0.00    +0.025 C 
ENDROOT
BRANCH   1   9
ATOM      7  O   UNL     1      34.624 -24.326 -12.262  0.00  0.00    -0.272 OA
ATOM      8  O   UNL     1      36.485 -23.087 -16.295  0.00  0.00    -0.252 OA
ATOM      9  N   UNL     1      35.165 -23.671 -14.443  0.00  0.00    -0.191 N 
ATOM     10  N   UNL     1      37.397 -23.650 -14.227  0.00  0.00    -0.283 N 
ATOM     11  C   UNL     1      36.953 -24.028 -12.912  0.00  0.00    +0.128 C 
ATOM     12  C   UNL     1      35.439 -24.040 -13.131  0.00  0.00    +0.252 C 
ATOM     13  C   UNL     1      37.334 -22.978 -11.877  0.00  0.00    +0.029 C 
ATOM     14  C   UNL     1      37.449 -25.419 -12.539  0.00  0.00    +0.029 C 
ATOM     15  C   UNL     1      36.354 -23.429 -15.127  0.00  0.00    +0.314 C 
ATOM     16  H   UNL     1      38.347 -23.557 -14.469  0.00  0.00    +0.151 HD
ENDBRANCH   1   9
BRANCH   4  20
ATOM     17  F   UNL     1      29.649 -24.785 -13.932  0.00  0.00    -0.166 F 
ATOM     18  F   UNL     1      30.643 -23.468 -12.516  0.00  0.00    -0.166 F 
ATOM     19  F   UNL     1      29.410 -22.625 -14.103  0.00  0.00    -0.166 F 
ATOM     20  C   UNL     1      30.303 -23.603 -13.820  0.00  0.00    +0.420 C 
ENDBRANCH   4  20
BRANCH   5  23
ATOM     21  O   UNL     1      29.335 -24.274 -16.775  0.00  0.00    -0.126 OA
ATOM     22  O   UNL     1      29.667 -22.126 -17.102  0.00  0.00    -0.126 OA
ATOM     23  N   UNL     1      30.046 -23.247 -16.691  0.00  0.00    +0.058 N 
ENDBRANCH   5  23
TORSDOF 3
ENDMDL
MODEL 9
REMARK VINA RESULT:      -8.1      1.979      2.293
REMARK  Name = 4493
REMARK  3 active torsions:
REMARK  status: ('A' for Active; 'I' for Inactive)
REMARK    1  A    between atoms: C_1  and  N_9
REMARK    2  A    between atoms: C_4  and  C_20
REMARK    3  A    between atoms: C_5  and  N_23
REMARK                            x       y       z     vdW  Elec       q    Type
REMARK                         _______ _______ _______ _____ _____    ______ ____
ROOT
ATOM      1  C   UNL     1      33.540 -23.502 -14.805  0.00  0.00    +0.062 C 
ATOM      2  C   UNL     1      34.617 -23.054 -15.575  0.00  0.00    +0.021 C 
ATOM      3  C   UNL     1      33.773 -24.047 -13.540  0.00  0.00    +0.017 C 
ATOM      4  C   UNL     1      35.919 -23.153 -15.082  0.00  0.00    +0.095 C 
ATOM      5  C   UNL     1      36.147 -23.698 -13.819  0.00  0.00    +0.147 C 
ATOM      6  C   UNL     1      35.074 -24.145 -13.048  0.00  0.00    +0.025 C 
ENDROOT
BRANCH   1   9
ATOM      7  O   UNL     1      31.023 -23.746 -13.326  0.00  0.00    -0.272 OA
ATOM      8  O   UNL     1      32.673 -22.995 -17.567  0.00  0.00    -0.252 OA
ATOM      9  N   UNL     1      32.243 -23.405 -15.295  0.00  0.00    -0.191 N 
ATOM     10  N   UNL     1      30.515 -23.130 -16.699  0.00  0.00    -0.283 N 
ATOM     11  C   UNL     1      29.867 -23.370 -15.438  0.00  0.00    +0.128 C 
ATOM     12  C   UNL     1      31.087 -23.532 -14.531  0.00  0.00    +0.252 C 
ATOM     13  C   UNL     1      29.053 -24.659 -15.471  0.00  0.00    +0.029 C 
ATOM     14  C   UNL     1      29.035 -22.170 -15.005  0.00  0.00    +0.029 C 
ATOM     15  C   UNL     1      31.908 -23.159 -16.625  0.00  0.00    +0.314 C 
ATOM     16  H   UNL     1      30.023 -22.960 -17.534  0.00  0.00    +0.151 HD
ENDBRANCH   1   9
BRANCH   4  20
ATOM     17  F   UNL     1      37.551 -21.488 -15.483  0.00  0.00    -0.166 F 
ATOM     18  F   UNL     1      38.078 -23.539 -15.976  0.00  0.00    -0.166 F 
ATOM     19  F   UNL     1      36.642 -22.460 -17.209  0.00  0.00    -0.166 F 
ATOM     20  C   UNL     1      37.046 -22.663 -15.933  0.00  0.00    +0.420 C 
ENDBRANCH   4  20
BRANCH   5  23
ATOM     21  O   UNL     1      37.959 -22.822 -12.701  0.00  0.00    -0.126 OA
ATOM     22  O   UNL     1      38.085 -24.886 -13.450  0.00  0.00    -0.126 OA
ATOM     23  N   UNL     1      37.466 -23.807 -13.296  0.00  0.00    +0.058 N 
ENDBRANCH   5  23
TORSDOF 3
ENDMDL
