MODEL 1
REMARK VINA RESULT:      -8.3      0.000      0.000
REMARK  Name = 3542
REMARK  2 active torsions:
REMARK  status: ('A' for Active; 'I' for Inactive)
REMARK    1  A    between atoms: S_1  and  C_5
REMARK    2  A    between atoms: S_1  and  N_14
REMARK                            x       y       z     vdW  Elec       q    Type
REMARK                         _______ _______ _______ _____ _____    ______ ____
ROOT
ATOM      1  S   UNL     1      35.276 -24.130 -14.862  0.00  0.00    +0.063 S 
ATOM      2  O   UNL     1      34.019 -23.588 -14.385  0.00  0.00    -0.153 OA
ATOM      3  O   UNL     1      35.371 -25.467 -15.414  0.00  0.00    -0.153 OA
ENDROOT
BRANCH   1   5
ATOM      4  N   UNL     1      33.093 -22.047 -19.330  0.00  0.00    -0.242 NA
ATOM      5  C   UNL     1      35.738 -23.070 -16.229  0.00  0.00    +0.122 C 
ATOM      6  C   UNL     1      34.839 -22.753 -17.236  0.00  0.00    +0.022 C 
ATOM      7  C   UNL     1      37.036 -22.601 -16.205  0.00  0.00    +0.020 C 
ATOM      8  C   UNL     1      35.282 -21.913 -18.277  0.00  0.00    +0.020 C 
ATOM      9  C   UNL     1      37.470 -21.771 -17.236  0.00  0.00    +0.001 C 
ATOM     10  C   UNL     1      33.522 -23.228 -17.262  0.00  0.00    +0.022 C 
ATOM     11  C   UNL     1      36.600 -21.426 -18.269  0.00  0.00    +0.002 C 
ATOM     12  C   UNL     1      34.369 -21.599 -19.286  0.00  0.00    +0.099 C 
ATOM     13  C   UNL     1      32.704 -22.849 -18.317  0.00  0.00    +0.099 C 
ENDBRANCH   1   5
BRANCH   1  14
ATOM     14  N   UNL     1      36.453 -23.940 -13.640  0.00  0.00    -0.161 NA
ATOM     15  N   UNL     1      38.147 -24.056 -11.323  0.00  0.00    +0.386 N 
ATOM     16  C   UNL     1      37.539 -24.969 -13.557  0.00  0.00    +0.058 C 
ATOM     17  C   UNL     1      35.959 -23.477 -12.313  0.00  0.00    +0.072 C 
ATOM     18  C   UNL     1      38.653 -24.442 -12.640  0.00  0.00    -0.064 C 
ATOM     19  C   UNL     1      37.130 -23.012 -11.454  0.00  0.00    -0.062 C 
ATOM     20  C   UNL     1      37.003 -26.326 -13.104  0.00  0.00    +0.017 C 
ATOM     21  H   UNL     1      38.918 -23.705 -10.756  0.00  0.00    -0.084 HD
ATOM     22  H   UNL     1      37.728 -24.872 -10.876  0.00  0.00    -0.084 HD
ENDBRANCH   1  14
TORSDOF 2
ENDMDL
MODEL 2
REMARK VINA RESULT:      -8.2      6.091      8.813
REMARK  Name = 3542
REMARK  2 active torsions:
REMARK  status: ('A' for Active; 'I' for Inactive)
REMARK    1  A    between atoms: S_1  and  C_5
REMARK    2  A    between atoms: S_1  and  N_14
REMARK                            x       y       z     vdW  Elec       q    Type
REMARK                         _______ _______ _______ _____ _____    ______ ____
ROOT
ATOM      1  S   UNL     1      35.757 -18.385 -21.065  0.00  0.00    +0.063 S 
ATOM      2  O   UNL     1      37.101 -18.892 -21.260  0.00  0.00    -0.153 OA
ATOM      3  O   UNL     1      35.505 -17.132 -20.383  0.00  0.00    -0.153 OA
ENDROOT
BRANCH   1   5
ATOM      4  N   UNL     1      33.812 -14.348 -24.062  0.00  0.00    -0.242 NA
ATOM      5  C   UNL     1      35.133 -18.104 -22.719  0.00  0.00    +0.122 C 
ATOM      6  C   UNL     1      34.705 -16.850 -23.129  0.00  0.00    +0.022 C 
ATOM      7  C   UNL     1      35.110 -19.212 -23.542  0.00  0.00    +0.020 C 
ATOM      8  C   UNL     1      34.226 -16.713 -24.448  0.00  0.00    +0.020 C 
ATOM      9  C   UNL     1      34.636 -19.073 -24.845  0.00  0.00    +0.001 C 
ATOM     10  C   UNL     1      34.728 -15.725 -22.296  0.00  0.00    +0.022 C 
ATOM     11  C   UNL     1      34.196 -17.831 -25.299  0.00  0.00    +0.002 C 
ATOM     12  C   UNL     1      33.798 -15.446 -24.850  0.00  0.00    +0.099 C 
ATOM     13  C   UNL     1      34.276 -14.517 -22.806  0.00  0.00    +0.099 C 
ENDBRANCH   1   5
BRANCH   1  14
ATOM     14  N   UNL     1      34.806 -19.614 -20.356  0.00  0.00    -0.161 NA
ATOM     15  N   UNL     1      33.303 -21.963 -19.668  0.00  0.00    +0.386 N 
ATOM     16  C   UNL     1      35.515 -20.835 -19.854  0.00  0.00    +0.058 C 
ATOM     17  C   UNL     1      33.501 -19.902 -21.015  0.00  0.00    +0.072 C 
ATOM     18  C   UNL     1      34.549 -21.640 -18.971  0.00  0.00    -0.064 C 
ATOM     19  C   UNL     1      32.623 -20.737 -20.089  0.00  0.00    -0.062 C 
ATOM     20  C   UNL     1      36.093 -21.668 -20.997  0.00  0.00    +0.017 C 
ATOM     21  H   UNL     1      32.693 -22.487 -19.040  0.00  0.00    -0.084 HD
ATOM     22  H   UNL     1      33.520 -22.522 -20.493  0.00  0.00    -0.084 HD
ENDBRANCH   1  14
TORSDOF 2
ENDMDL
MODEL 3
REMARK VINA RESULT:      -8.0      5.788      9.436
REMARK  Name = 3542
REMARK  2 active torsions:
REMARK  status: ('A' for Active; 'I' for Inactive)
REMARK    1  A    between atoms: S_1  and  C_5
REMARK    2  A    between atoms: S_1  and  N_14
REMARK                            x       y       z     vdW  Elec       q    Type
REMARK                         _______ _______ _______ _____ _____    ______ ____
ROOT
ATOM      1  S   UNL     1      35.008 -18.461 -22.270  0.00  0.00    +0.063 S 
ATOM      2  O   UNL     1      36.414 -18.376 -21.926  0.00  0.00    -0.153 OA
ATOM      3  O   UNL     1      34.566 -18.958 -23.557  0.00  0.00    -0.153 OA
ENDROOT
BRANCH   1   5
ATOM      4  N   UNL     1      36.703 -22.011 -18.585  0.00  0.00    -0.242 NA
ATOM      5  C   UNL     1      34.324 -19.631 -21.101  0.00  0.00    +0.122 C 
ATOM      6  C   UNL     1      35.140 -20.401 -20.286  0.00  0.00    +0.022 C 
ATOM      7  C   UNL     1      32.946 -19.709 -21.075  0.00  0.00    +0.020 C 
ATOM      8  C   UNL     1      34.522 -21.300 -19.393  0.00  0.00    +0.020 C 
ATOM      9  C   UNL     1      32.339 -20.598 -20.191  0.00  0.00    +0.001 C 
ATOM     10  C   UNL     1      36.537 -20.325 -20.311  0.00  0.00    +0.022 C 
ATOM     11  C   UNL     1      33.121 -21.392 -19.352  0.00  0.00    +0.002 C 
ATOM     12  C   UNL     1      35.352 -22.071 -18.576  0.00  0.00    +0.099 C 
ATOM     13  C   UNL     1      37.259 -21.140 -19.452  0.00  0.00    +0.099 C 
ENDBRANCH   1   5
BRANCH   1  14
ATOM     14  N   UNL     1      34.279 -16.945 -21.971  0.00  0.00    -0.161 NA
ATOM     15  N   UNL     1      33.569 -14.182 -21.636  0.00  0.00    +0.386 N 
ATOM     16  C   UNL     1      33.861 -16.131 -23.157  0.00  0.00    +0.058 C 
ATOM     17  C   UNL     1      34.861 -16.140 -20.861  0.00  0.00    +0.072 C 
ATOM     18  C   UNL     1      32.944 -14.995 -22.680  0.00  0.00    -0.064 C 
ATOM     19  C   UNL     1      33.908 -15.013 -20.479  0.00  0.00    -0.062 C 
ATOM     20  C   UNL     1      35.065 -15.617 -23.946  0.00  0.00    +0.017 C 
ATOM     21  H   UNL     1      32.921 -13.450 -21.346  0.00  0.00    -0.084 HD
ATOM     22  H   UNL     1      34.424 -13.766 -22.006  0.00  0.00    -0.084 HD
ENDBRANCH   1  14
TORSDOF 2
ENDMDL
MODEL 4
REMARK VINA RESULT:      -8.0      6.856      9.681
REMARK  Name = 3542
REMARK  2 active torsions:
REMARK  status: ('A' for Active; 'I' for Inactive)
REMARK    1  A    between atoms: S_1  and  C_5
REMARK    2  A    between atoms: S_1  and  N_14
REMARK                            x       y       z     vdW  Elec       q    Type
REMARK                         _______ _______ _______ _____ _____    ______ ____
ROOT
ATOM      1  S   UNL     1      35.006 -17.471 -22.956  0.00  0.00    +0.063 S 
ATOM      2  O   UNL     1      36.227 -16.828 -23.399  0.00  0.00    -0.153 OA
ATOM      3  O   UNL     1      34.155 -18.205 -23.870  0.00  0.00    -0.153 OA
ENDROOT
BRANCH   1   5
ATOM      4  N   UNL     1      32.882 -21.212 -19.707  0.00  0.00    -0.242 NA
ATOM      5  C   UNL     1      35.545 -18.711 -21.783  0.00  0.00    +0.122 C 
ATOM      6  C   UNL     1      34.638 -19.520 -21.115  0.00  0.00    +0.022 C 
ATOM      7  C   UNL     1      36.911 -18.799 -21.596  0.00  0.00    +0.020 C 
ATOM      8  C   UNL     1      35.144 -20.472 -20.207  0.00  0.00    +0.020 C 
ATOM      9  C   UNL     1      37.407 -19.741 -20.698  0.00  0.00    +0.001 C 
ATOM     10  C   UNL     1      33.254 -19.432 -21.303  0.00  0.00    +0.022 C 
ATOM     11  C   UNL     1      36.531 -20.575 -20.004  0.00  0.00    +0.002 C 
ATOM     12  C   UNL     1      34.222 -21.281 -19.539  0.00  0.00    +0.099 C 
ATOM     13  C   UNL     1      32.434 -20.290 -20.584  0.00  0.00    +0.099 C 
ENDBRANCH   1   5
BRANCH   1  14
ATOM     14  N   UNL     1      34.065 -16.329 -22.103  0.00  0.00    -0.161 NA
ATOM     15  N   UNL     1      32.922 -14.044 -20.791  0.00  0.00    +0.386 N 
ATOM     16  C   UNL     1      33.343 -15.289 -22.905  0.00  0.00    +0.058 C 
ATOM     17  C   UNL     1      34.643 -15.815 -20.829  0.00  0.00    +0.072 C 
ATOM     18  C   UNL     1      32.313 -14.594 -22.002  0.00  0.00    -0.064 C 
ATOM     19  C   UNL     1      33.566 -15.106 -20.016  0.00  0.00    -0.062 C 
ATOM     20  C   UNL     1      34.310 -14.300 -23.555  0.00  0.00    +0.017 C 
ATOM     21  H   UNL     1      32.200 -13.603 -20.221  0.00  0.00    -0.084 HD
ATOM     22  H   UNL     1      33.626 -13.355 -21.057  0.00  0.00    -0.084 HD
ENDBRANCH   1  14
TORSDOF 2
ENDMDL
MODEL 5
REMARK VINA RESULT:      -8.0      1.651      2.881
REMARK  Name = 3542
REMARK  2 active torsions:
REMARK  status: ('A' for Active; 'I' for Inactive)
REMARK    1  A    between atoms: S_1  and  C_5
REMARK    2  A    between atoms: S_1  and  N_14
REMARK                            x       y       z     vdW  Elec       q    Type
REMARK                         _______ _______ _______ _____ _____    ______ ____
ROOT
ATOM      1  S   UNL     1      35.730 -24.347 -15.134  0.00  0.00    +0.063 S 
ATOM      2  O   UNL     1      35.732 -25.789 -15.282  0.00  0.00    -0.153 OA
ATOM      3  O   UNL     1      36.479 -23.487 -16.028  0.00  0.00    -0.153 OA
ENDROOT
BRANCH   1   5
ATOM      4  N   UNL     1      32.708 -21.996 -18.929  0.00  0.00    -0.242 NA
ATOM      5  C   UNL     1      34.027 -23.866 -15.405  0.00  0.00    +0.122 C 
ATOM      6  C   UNL     1      33.627 -23.250 -16.581  0.00  0.00    +0.022 C 
ATOM      7  C   UNL     1      33.157 -24.147 -14.370  0.00  0.00    +0.020 C 
ATOM      8  C   UNL     1      32.267 -22.901 -16.715  0.00  0.00    +0.020 C 
ATOM      9  C   UNL     1      31.815 -23.802 -14.506  0.00  0.00    +0.001 C 
ATOM     10  C   UNL     1      34.506 -22.962 -17.631  0.00  0.00    +0.022 C 
ATOM     11  C   UNL     1      31.368 -23.180 -15.672  0.00  0.00    +0.002 C 
ATOM     12  C   UNL     1      31.874 -22.281 -17.903  0.00  0.00    +0.099 C 
ATOM     13  C   UNL     1      34.002 -22.344 -18.765  0.00  0.00    +0.099 C 
ENDBRANCH   1   5
BRANCH   1  14
ATOM     14  N   UNL     1      36.125 -23.962 -13.518  0.00  0.00    -0.161 NA
ATOM     15  N   UNL     1      37.067 -23.828 -10.808  0.00  0.00    +0.386 N 
ATOM     16  C   UNL     1      37.527 -23.516 -13.234  0.00  0.00    +0.058 C 
ATOM     17  C   UNL     1      35.550 -24.850 -12.468  0.00  0.00    +0.072 C 
ATOM     18  C   UNL     1      37.578 -22.908 -11.825  0.00  0.00    -0.064 C 
ATOM     19  C   UNL     1      35.679 -24.190 -11.099  0.00  0.00    -0.062 C 
ATOM     20  C   UNL     1      38.533 -24.652 -13.417  0.00  0.00    +0.017 C 
ATOM     21  H   UNL     1      37.113 -23.378  -9.894  0.00  0.00    -0.084 HD
ATOM     22  H   UNL     1      37.637 -24.674 -10.809  0.00  0.00    -0.084 HD
ENDBRANCH   1  14
TORSDOF 2
ENDMDL
MODEL 6
REMARK VINA RESULT:      -8.0      2.061      3.022
REMARK  Name = 3542
REMARK  2 active torsions:
REMARK  status: ('A' for Active; 'I' for Inactive)
REMARK    1  A    between atoms: S_1  and  C_5
REMARK    2  A    between atoms: S_1  and  N_14
REMARK                            x       y       z     vdW  Elec       q    Type
REMARK                         _______ _______ _______ _____ _____    ______ ____
ROOT
ATOM      1  S   UNL     1      37.305 -22.905 -15.238  0.00  0.00    +0.063 S 
ATOM      2  O   UNL     1      38.541 -22.970 -15.992  0.00  0.00    -0.153 OA
ATOM      3  O   UNL     1      37.046 -21.844 -14.286  0.00  0.00    -0.153 OA
ENDROOT
BRANCH   1   5
ATOM      4  N   UNL     1      32.006 -23.716 -15.815  0.00  0.00    -0.242 NA
ATOM      5  C   UNL     1      36.028 -22.692 -16.474  0.00  0.00    +0.122 C 
ATOM      6  C   UNL     1      34.710 -23.041 -16.222  0.00  0.00    +0.022 C 
ATOM      7  C   UNL     1      36.449 -22.164 -17.679  0.00  0.00    +0.020 C 
ATOM      8  C   UNL     1      33.765 -22.843 -17.250  0.00  0.00    +0.020 C 
ATOM      9  C   UNL     1      35.512 -21.969 -18.691  0.00  0.00    +0.001 C 
ATOM     10  C   UNL     1      34.281 -23.578 -15.003  0.00  0.00    +0.022 C 
ATOM     11  C   UNL     1      34.176 -22.306 -18.482  0.00  0.00    +0.002 C 
ATOM     12  C   UNL     1      32.441 -23.198 -16.986  0.00  0.00    +0.099 C 
ATOM     13  C   UNL     1      32.938 -23.892 -14.855  0.00  0.00    +0.099 C 
ENDBRANCH   1   5
BRANCH   1  14
ATOM     14  N   UNL     1      37.045 -24.415 -14.482  0.00  0.00    -0.161 NA
ATOM     15  N   UNL     1      37.191 -26.971 -13.180  0.00  0.00    +0.386 N 
ATOM     16  C   UNL     1      37.233 -24.489 -12.998  0.00  0.00    +0.058 C 
ATOM     17  C   UNL     1      37.542 -25.614 -15.214  0.00  0.00    +0.072 C 
ATOM     18  C   UNL     1      36.635 -25.808 -12.487  0.00  0.00    -0.064 C 
ATOM     19  C   UNL     1      36.933 -26.878 -14.618  0.00  0.00    -0.062 C 
ATOM     20  C   UNL     1      38.699 -24.320 -12.601  0.00  0.00    +0.017 C 
ATOM     21  H   UNL     1      36.758 -27.819 -12.815  0.00  0.00    -0.084 HD
ATOM     22  H   UNL     1      38.199 -26.999 -13.025  0.00  0.00    -0.084 HD
ENDBRANCH   1  14
TORSDOF 2
ENDMDL
MODEL 7
REMARK VINA RESULT:      -7.8     13.486     16.442
REMARK  Name = 3542
REMARK  2 active torsions:
REMARK  status: ('A' for Active; 'I' for Inactive)
REMARK    1  A    between atoms: S_1  and  C_5
REMARK    2  A    between atoms: S_1  and  N_14
REMARK                            x       y       z     vdW  Elec       q    Type
REMARK                         _______ _______ _______ _____ _____    ______ ____
ROOT
ATOM      1  S   UNL     1      32.807  -9.210 -23.308  0.00  0.00    +0.063 S 
ATOM      2  O   UNL     1      34.252  -9.136 -23.233  0.00  0.00    -0.153 OA
ATOM      3  O   UNL     1      32.117  -9.420 -24.565  0.00  0.00    -0.153 OA
ENDROOT
BRANCH   1   5
ATOM      4  N   UNL     1      33.337 -14.571 -23.508  0.00  0.00    -0.242 NA
ATOM      5  C   UNL     1      32.375 -10.652 -22.338  0.00  0.00    +0.122 C 
ATOM      6  C   UNL     1      32.709 -11.931 -22.755  0.00  0.00    +0.022 C 
ATOM      7  C   UNL     1      31.694 -10.397 -21.164  0.00  0.00    +0.020 C 
ATOM      8  C   UNL     1      32.331 -13.014 -21.934  0.00  0.00    +0.020 C 
ATOM      9  C   UNL     1      31.323 -11.468 -20.356  0.00  0.00    +0.001 C 
ATOM     10  C   UNL     1      33.398 -12.193 -23.945  0.00  0.00    +0.022 C 
ATOM     11  C   UNL     1      31.638 -12.772 -20.736  0.00  0.00    +0.002 C 
ATOM     12  C   UNL     1      32.672 -14.298 -22.363  0.00  0.00    +0.099 C 
ATOM     13  C   UNL     1      33.682 -13.511 -24.268  0.00  0.00    +0.099 C 
ENDBRANCH   1   5
BRANCH   1  14
ATOM     14  N   UNL     1      32.147  -7.844 -22.524  0.00  0.00    -0.161 NA
ATOM     15  N   UNL     1      31.505  -5.270 -21.422  0.00  0.00    +0.386 N 
ATOM     16  C   UNL     1      31.483  -6.807 -23.379  0.00  0.00    +0.058 C 
ATOM     17  C   UNL     1      32.944  -7.278 -21.400  0.00  0.00    +0.072 C 
ATOM     18  C   UNL     1      30.680  -5.860 -22.476  0.00  0.00    -0.064 C 
ATOM     19  C   UNL     1      32.085  -6.319 -20.582  0.00  0.00    -0.062 C 
ATOM     20  C   UNL     1      32.490  -6.064 -24.256  0.00  0.00    +0.017 C 
ATOM     21  H   UNL     1      30.928  -4.659 -20.844  0.00  0.00    -0.084 HD
ATOM     22  H   UNL     1      32.260  -4.735 -21.851  0.00  0.00    -0.084 HD
ENDBRANCH   1  14
TORSDOF 2
ENDMDL
MODEL 8
REMARK VINA RESULT:      -7.7      2.880      6.043
REMARK  Name = 3542
REMARK  2 active torsions:
REMARK  status: ('A' for Active; 'I' for Inactive)
REMARK    1  A    between atoms: S_1  and  C_5
REMARK    2  A    between atoms: S_1  and  N_14
REMARK                            x       y       z     vdW  Elec       q    Type
REMARK                         _______ _______ _______ _____ _____    ______ ____
ROOT
ATOM      1  S   UNL     1      34.291 -23.718 -15.499  0.00  0.00    +0.063 S 
ATOM      2  O   UNL     1      34.543 -22.453 -14.837  0.00  0.00    -0.153 OA
ATOM      3  O   UNL     1      34.397 -23.861 -16.937  0.00  0.00    -0.153 OA
ENDROOT
BRANCH   1   5
ATOM      4  N   UNL     1      37.607 -24.123 -11.268  0.00  0.00    -0.242 NA
ATOM      5  C   UNL     1      35.550 -24.821 -14.865  0.00  0.00    +0.122 C 
ATOM      6  C   UNL     1      36.209 -24.559 -13.674  0.00  0.00    +0.022 C 
ATOM      7  C   UNL     1      35.813 -25.933 -15.641  0.00  0.00    +0.020 C 
ATOM      8  C   UNL     1      37.189 -25.478 -13.245  0.00  0.00    +0.020 C 
ATOM      9  C   UNL     1      36.781 -26.838 -15.214  0.00  0.00    +0.001 C 
ATOM     10  C   UNL     1      35.946 -23.433 -12.886  0.00  0.00    +0.022 C 
ATOM     11  C   UNL     1      37.469 -26.614 -14.022  0.00  0.00    +0.002 C 
ATOM     12  C   UNL     1      37.847 -25.205 -12.043  0.00  0.00    +0.099 C 
ATOM     13  C   UNL     1      36.663 -23.266 -11.710  0.00  0.00    +0.099 C 
ENDBRANCH   1   5
BRANCH   1  14
ATOM     14  N   UNL     1      32.776 -24.313 -14.983  0.00  0.00    -0.161 NA
ATOM     15  N   UNL     1      30.094 -24.749 -14.050  0.00  0.00    +0.386 N 
ATOM     16  C   UNL     1      31.624 -24.194 -15.934  0.00  0.00    +0.058 C 
ATOM     17  C   UNL     1      32.414 -24.053 -13.561  0.00  0.00    +0.072 C 
ATOM     18  C   UNL     1      30.470 -25.072 -15.427  0.00  0.00    -0.064 C 
ATOM     19  C   UNL     1      31.237 -24.934 -13.154  0.00  0.00    -0.062 C 
ATOM     20  C   UNL     1      31.204 -22.739 -16.139  0.00  0.00    +0.017 C 
ATOM     21  H   UNL     1      29.334 -25.362 -13.756  0.00  0.00    -0.084 HD
ATOM     22  H   UNL     1      29.794 -23.775 -14.008  0.00  0.00    -0.084 HD
ENDBRANCH   1  14
TORSDOF 2
ENDMDL
MODEL 9
REMARK VINA RESULT:      -7.7      6.366      8.871
REMARK  Name = 3542
REMARK  2 active torsions:
REMARK  status: ('A' for Active; 'I' for Inactive)
REMARK    1  A    between atoms: S_1  and  C_5
REMARK    2  A    between atoms: S_1  and  N_14
REMARK                            x       y       z     vdW  Elec       q    Type
REMARK                         _______ _______ _______ _____ _____    ______ ____
ROOT
ATOM      1  S   UNL     1      35.594 -18.784 -21.968  0.00  0.00    +0.063 S 
ATOM      2  O   UNL     1      35.233 -19.277 -23.282  0.00  0.00    -0.153 OA
ATOM      3  O   UNL     1      36.977 -18.613 -21.570  0.00  0.00    -0.153 OA
ENDROOT
BRANCH   1   5
ATOM      4  N   UNL     1      33.582 -15.066 -25.314  0.00  0.00    -0.242 NA
ATOM      5  C   UNL     1      34.923 -17.125 -21.905  0.00  0.00    +0.122 C 
ATOM      6  C   UNL     1      34.490 -16.475 -23.051  0.00  0.00    +0.022 C 
ATOM      7  C   UNL     1      34.872 -16.551 -20.650  0.00  0.00    +0.020 C 
ATOM      8  C   UNL     1      33.975 -15.170 -22.916  0.00  0.00    +0.020 C 
ATOM      9  C   UNL     1      34.363 -15.261 -20.521  0.00  0.00    +0.001 C 
ATOM     10  C   UNL     1      34.541 -17.055 -24.324  0.00  0.00    +0.022 C 
ATOM     11  C   UNL     1      33.916 -14.570 -21.647  0.00  0.00    +0.002 C 
ATOM     12  C   UNL     1      33.542 -14.524 -24.076  0.00  0.00    +0.099 C 
ATOM     13  C   UNL     1      34.081 -16.317 -25.405  0.00  0.00    +0.099 C 
ENDBRANCH   1   5
BRANCH   1  14
ATOM     14  N   UNL     1      34.780 -19.715 -20.790  0.00  0.00    -0.161 NA
ATOM     15  N   UNL     1      33.405 -21.693 -19.226  0.00  0.00    +0.386 N 
ATOM     16  C   UNL     1      35.555 -20.802 -20.109  0.00  0.00    +0.058 C 
ATOM     17  C   UNL     1      33.369 -20.082 -21.098  0.00  0.00    +0.072 C 
ATOM     18  C   UNL     1      34.765 -21.278 -18.881  0.00  0.00    -0.064 C 
ATOM     19  C   UNL     1      32.673 -20.582 -19.837  0.00  0.00    -0.062 C 
ATOM     20  C   UNL     1      35.892 -21.945 -21.065  0.00  0.00    +0.017 C 
ATOM     21  H   UNL     1      32.919 -21.990 -18.379  0.00  0.00    -0.084 HD
ATOM     22  H   UNL     1      33.452 -22.464 -19.891  0.00  0.00    -0.084 HD
ENDBRANCH   1  14
TORSDOF 2
ENDMDL
