MODEL 1
REMARK VINA RESULT:      -7.9      0.000      0.000
REMARK  Name = 73115
REMARK  4 active torsions:
REMARK  status: ('A' for Active; 'I' for Inactive)
REMARK    1  A    between atoms: C_3  and  O_17
REMARK    2  A    between atoms: C_4  and  N_9
REMARK    3  A    between atoms: C_6  and  C_19
REMARK    4  A    between atoms: C_19  and  O_20
REMARK                            x       y       z     vdW  Elec       q    Type
REMARK                         _______ _______ _______ _____ _____    ______ ____
ROOT
ATOM      1  F   UNL     1      35.582 -25.765 -15.030  0.00  0.00    -0.230 F 
ATOM      2  O   UNL     1      35.921 -23.168 -13.590  0.00  0.00    -0.332 OA
ATOM      3  C   UNL     1      37.529 -24.834 -14.145  0.00  0.00    +0.177 C 
ATOM      4  C   UNL     1      35.841 -23.424 -14.999  0.00  0.00    +0.235 C 
ATOM      5  C   UNL     1      36.490 -24.774 -15.237  0.00  0.00    +0.237 C 
ATOM      6  C   UNL     1      36.867 -24.079 -12.997  0.00  0.00    +0.176 C 
ENDROOT
BRANCH   4   9
ATOM      7  O   UNL     1      34.962 -23.004 -17.678  0.00  0.00    -0.252 OA
ATOM      8  O   UNL     1      30.537 -23.221 -16.444  0.00  0.00    -0.270 OA
ATOM      9  N   UNL     1      34.475 -23.363 -15.422  0.00  0.00    -0.217 N 
ATOM     10  N   UNL     1      32.759 -23.114 -17.049  0.00  0.00    -0.236 N 
ATOM     11  C   UNL     1      33.472 -23.517 -14.469  0.00  0.00    +0.071 C 
ATOM     12  C   UNL     1      34.131 -23.150 -16.779  0.00  0.00    +0.315 C 
ATOM     13  C   UNL     1      32.159 -23.482 -14.731  0.00  0.00    +0.047 C 
ATOM     14  C   UNL     1      31.725 -23.262 -16.137  0.00  0.00    +0.250 C 
ATOM     15  C   UNL     1      31.103 -23.651 -13.687  0.00  0.00    +0.037 C 
ATOM     16  H   UNL     1      32.500 -22.967 -17.987  0.00  0.00    +0.159 HD
ENDBRANCH   4   9
BRANCH   3  17
ATOM     17  O   UNL     1      38.692 -24.126 -14.558  0.00  0.00    -0.379 OA
ATOM     18  H   UNL     1      39.386 -24.758 -14.802  0.00  0.00    +0.211 HD
ENDBRANCH   3  17
BRANCH   6  19
ATOM     19  C   UNL     1      36.103 -24.989 -12.045  0.00  0.00    +0.169 C 
BRANCH  19  20
ATOM     20  O   UNL     1      36.747 -26.250 -12.008  0.00  0.00    -0.379 OA
ATOM     21  H   UNL     1      36.193 -26.882 -11.523  0.00  0.00    +0.211 HD
ENDBRANCH  19  20
ENDBRANCH   6  19
TORSDOF 4
ENDMDL
MODEL 2
REMARK VINA RESULT:      -7.8     10.127     12.685
REMARK  Name = 73115
REMARK  4 active torsions:
REMARK  status: ('A' for Active; 'I' for Inactive)
REMARK    1  A    between atoms: C_3  and  O_17
REMARK    2  A    between atoms: C_4  and  N_9
REMARK    3  A    between atoms: C_6  and  C_19
REMARK    4  A    between atoms: C_19  and  O_20
REMARK                            x       y       z     vdW  Elec       q    Type
REMARK                         _______ _______ _______ _____ _____    ______ ____
ROOT
ATOM      1  F   UNL     1      32.166 -15.015 -22.623  0.00  0.00    -0.230 F 
ATOM      2  O   UNL     1      34.618 -14.454 -24.238  0.00  0.00    -0.332 OA
ATOM      3  C   UNL     1      32.840 -13.006 -23.597  0.00  0.00    +0.177 C 
ATOM      4  C   UNL     1      34.463 -14.528 -22.814  0.00  0.00    +0.235 C 
ATOM      5  C   UNL     1      33.074 -14.010 -22.496  0.00  0.00    +0.237 C 
ATOM      6  C   UNL     1      33.581 -13.614 -24.782  0.00  0.00    +0.176 C 
ENDROOT
BRANCH   4   9
ATOM      7  O   UNL     1      34.894 -15.332 -20.112  0.00  0.00    -0.252 OA
ATOM      8  O   UNL     1      35.304 -19.753 -21.311  0.00  0.00    -0.270 OA
ATOM      9  N   UNL     1      34.686 -15.873 -22.376  0.00  0.00    -0.217 N 
ATOM     10  N   UNL     1      35.097 -17.533 -20.724  0.00  0.00    -0.236 N 
ATOM     11  C   UNL     1      34.700 -16.892 -23.324  0.00  0.00    +0.071 C 
ATOM     12  C   UNL     1      34.892 -16.179 -21.009  0.00  0.00    +0.315 C 
ATOM     13  C   UNL     1      34.897 -18.187 -23.048  0.00  0.00    +0.047 C 
ATOM     14  C   UNL     1      35.119 -18.582 -21.631  0.00  0.00    +0.250 C 
ATOM     15  C   UNL     1      34.906 -19.261 -24.087  0.00  0.00    +0.037 C 
ATOM     16  H   UNL     1      35.241 -17.766 -19.779  0.00  0.00    +0.159 HD
ENDBRANCH   4   9
BRANCH   3  17
ATOM     17  O   UNL     1      33.455 -11.769 -23.249  0.00  0.00    -0.379 OA
ATOM     18  H   UNL     1      33.229 -11.099 -23.911  0.00  0.00    +0.211 HD
ENDBRANCH   3  17
BRANCH   6  19
ATOM     19  C   UNL     1      32.692 -14.484 -25.660  0.00  0.00    +0.169 C 
BRANCH  19  20
ATOM     20  O   UNL     1      33.508 -15.174 -26.590  0.00  0.00    -0.379 OA
ATOM     21  H   UNL     1      33.912 -15.942 -26.159  0.00  0.00    +0.211 HD
ENDBRANCH  19  20
ENDBRANCH   6  19
TORSDOF 4
ENDMDL
MODEL 3
REMARK VINA RESULT:      -7.7      1.803      2.153
REMARK  Name = 73115
REMARK  4 active torsions:
REMARK  status: ('A' for Active; 'I' for Inactive)
REMARK    1  A    between atoms: C_3  and  O_17
REMARK    2  A    between atoms: C_4  and  N_9
REMARK    3  A    between atoms: C_6  and  C_19
REMARK    4  A    between atoms: C_19  and  O_20
REMARK                            x       y       z     vdW  Elec       q    Type
REMARK                         _______ _______ _______ _____ _____    ______ ____
ROOT
ATOM      1  F   UNL     1      36.813 -25.408 -13.931  0.00  0.00    -0.230 F 
ATOM      2  O   UNL     1      36.183 -22.846 -12.528  0.00  0.00    -0.332 OA
ATOM      3  C   UNL     1      37.921 -24.424 -12.131  0.00  0.00    +0.177 C 
ATOM      4  C   UNL     1      36.890 -23.060 -13.757  0.00  0.00    +0.235 C 
ATOM      5  C   UNL     1      37.635 -24.373 -13.611  0.00  0.00    +0.237 C 
ATOM      6  C   UNL     1      36.706 -23.734 -11.520  0.00  0.00    +0.176 C 
ENDROOT
BRANCH   4   9
ATOM      7  O   UNL     1      37.552 -22.446 -16.461  0.00  0.00    -0.252 OA
ATOM      8  O   UNL     1      33.207 -23.049 -17.842  0.00  0.00    -0.270 OA
ATOM      9  N   UNL     1      35.968 -23.044 -14.851  0.00  0.00    -0.217 N 
ATOM     10  N   UNL     1      35.381 -22.749 -17.136  0.00  0.00    -0.236 N 
ATOM     11  C   UNL     1      34.632 -23.349 -14.605  0.00  0.00    +0.071 C 
ATOM     12  C   UNL     1      36.388 -22.726 -16.165  0.00  0.00    +0.315 C 
ATOM     13  C   UNL     1      33.671 -23.370 -15.537  0.00  0.00    +0.047 C 
ATOM     14  C   UNL     1      34.041 -23.046 -16.941  0.00  0.00    +0.250 C 
ATOM     15  C   UNL     1      32.243 -23.702 -15.244  0.00  0.00    +0.037 C 
ATOM     16  H   UNL     1      35.653 -22.532 -18.056  0.00  0.00    +0.159 HD
ENDBRANCH   4   9
BRANCH   3  17
ATOM     17  O   UNL     1      39.085 -23.655 -11.846  0.00  0.00    -0.379 OA
ATOM     18  H   UNL     1      39.250 -23.037 -12.575  0.00  0.00    +0.211 HD
ENDBRANCH   3  17
BRANCH   6  19
ATOM     19  C   UNL     1      35.598 -24.705 -11.136  0.00  0.00    +0.169 C 
BRANCH  19  20
ATOM     20  O   UNL     1      35.368 -24.603  -9.742  0.00  0.00    -0.379 OA
ATOM     21  H   UNL     1      36.198 -24.755  -9.265  0.00  0.00    +0.211 HD
ENDBRANCH  19  20
ENDBRANCH   6  19
TORSDOF 4
ENDMDL
MODEL 4
REMARK VINA RESULT:      -7.6      1.769      3.038
REMARK  Name = 73115
REMARK  4 active torsions:
REMARK  status: ('A' for Active; 'I' for Inactive)
REMARK    1  A    between atoms: C_3  and  O_17
REMARK    2  A    between atoms: C_4  and  N_9
REMARK    3  A    between atoms: C_6  and  C_19
REMARK    4  A    between atoms: C_19  and  O_20
REMARK                            x       y       z     vdW  Elec       q    Type
REMARK                         _______ _______ _______ _____ _____    ______ ____
ROOT
ATOM      1  F   UNL     1      35.509 -22.940 -13.453  0.00  0.00    -0.230 F 
ATOM      2  O   UNL     1      35.981 -25.368 -15.132  0.00  0.00    -0.332 OA
ATOM      3  C   UNL     1      36.909 -24.756 -13.026  0.00  0.00    +0.177 C 
ATOM      4  C   UNL     1      34.905 -25.082 -14.228  0.00  0.00    +0.235 C 
ATOM      5  C   UNL     1      35.488 -24.253 -13.099  0.00  0.00    +0.237 C 
ATOM      6  C   UNL     1      37.234 -25.085 -14.478  0.00  0.00    +0.176 C 
ENDROOT
BRANCH   4   9
ATOM      7  O   UNL     1      32.227 -24.797 -13.292  0.00  0.00    -0.252 OA
ATOM      8  O   UNL     1      30.964 -22.514 -17.079  0.00  0.00    -0.270 OA
ATOM      9  N   UNL     1      33.847 -24.424 -14.933  0.00  0.00    -0.217 N 
ATOM     10  N   UNL     1      31.610 -23.660 -15.187  0.00  0.00    -0.236 N 
ATOM     11  C   UNL     1      34.119 -23.868 -16.180  0.00  0.00    +0.071 C 
ATOM     12  C   UNL     1      32.544 -24.330 -14.388  0.00  0.00    +0.315 C 
ATOM     13  C   UNL     1      33.223 -23.227 -16.941  0.00  0.00    +0.047 C 
ATOM     14  C   UNL     1      31.832 -23.091 -16.431  0.00  0.00    +0.250 C 
ATOM     15  C   UNL     1      33.543 -22.639 -18.277  0.00  0.00    +0.037 C 
ATOM     16  H   UNL     1      30.698 -23.584 -14.825  0.00  0.00    +0.159 HD
ENDBRANCH   4   9
BRANCH   3  17
ATOM     17  O   UNL     1      36.948 -25.954 -12.257  0.00  0.00    -0.379 OA
ATOM     18  H   UNL     1      37.683 -26.508 -12.561  0.00  0.00    +0.211 HD
ENDBRANCH   3  17
BRANCH   6  19
ATOM     19  C   UNL     1      37.893 -23.930 -15.219  0.00  0.00    +0.169 C 
BRANCH  19  20
ATOM     20  O   UNL     1      39.253 -24.254 -15.449  0.00  0.00    -0.379 OA
ATOM     21  H   UNL     1      39.315 -25.152 -15.812  0.00  0.00    +0.211 HD
ENDBRANCH  19  20
ENDBRANCH   6  19
TORSDOF 4
ENDMDL
MODEL 5
REMARK VINA RESULT:      -7.5      2.157      3.702
REMARK  Name = 73115
REMARK  4 active torsions:
REMARK  status: ('A' for Active; 'I' for Inactive)
REMARK    1  A    between atoms: C_3  and  O_17
REMARK    2  A    between atoms: C_4  and  N_9
REMARK    3  A    between atoms: C_6  and  C_19
REMARK    4  A    between atoms: C_19  and  O_20
REMARK                            x       y       z     vdW  Elec       q    Type
REMARK                         _______ _______ _______ _____ _____    ______ ____
ROOT
ATOM      1  F   UNL     1      35.130 -22.074 -14.798  0.00  0.00    -0.230 F 
ATOM      2  O   UNL     1      35.477 -24.812 -15.946  0.00  0.00    -0.332 OA
ATOM      3  C   UNL     1      35.506 -24.084 -13.678  0.00  0.00    +0.177 C 
ATOM      4  C   UNL     1      34.271 -24.079 -15.689  0.00  0.00    +0.235 C 
ATOM      5  C   UNL     1      34.523 -23.240 -14.450  0.00  0.00    +0.237 C 
ATOM      6  C   UNL     1      36.320 -24.758 -14.777  0.00  0.00    +0.176 C 
ENDROOT
BRANCH   4   9
ATOM      7  O   UNL     1      31.616 -23.438 -16.505  0.00  0.00    -0.252 OA
ATOM      8  O   UNL     1      33.122 -21.088 -20.160  0.00  0.00    -0.270 OA
ATOM      9  N   UNL     1      33.924 -23.306 -16.842  0.00  0.00    -0.217 N 
ATOM     10  N   UNL     1      32.381 -22.269 -18.325  0.00  0.00    -0.236 N 
ATOM     11  C   UNL     1      34.945 -22.813 -17.650  0.00  0.00    +0.071 C 
ATOM     12  C   UNL     1      32.573 -23.037 -17.171  0.00  0.00    +0.315 C 
ATOM     13  C   UNL     1      34.757 -22.079 -18.754  0.00  0.00    +0.047 C 
ATOM     14  C   UNL     1      33.362 -21.757 -19.159  0.00  0.00    +0.250 C 
ATOM     15  C   UNL     1      35.873 -21.564 -19.604  0.00  0.00    +0.037 C 
ATOM     16  H   UNL     1      31.449 -22.071 -18.569  0.00  0.00    +0.159 HD
ENDBRANCH   4   9
BRANCH   3  17
ATOM     17  O   UNL     1      34.802 -25.079 -12.944  0.00  0.00    -0.379 OA
ATOM     18  H   UNL     1      34.021 -24.683 -12.528  0.00  0.00    +0.211 HD
ENDBRANCH   3  17
BRANCH   6  19
ATOM     19  C   UNL     1      37.579 -23.987 -15.148  0.00  0.00    +0.169 C 
BRANCH  19  20
ATOM     20  O   UNL     1      37.988 -23.222 -14.028  0.00  0.00    -0.379 OA
ATOM     21  H   UNL     1      38.566 -22.501 -14.322  0.00  0.00    +0.211 HD
ENDBRANCH  19  20
ENDBRANCH   6  19
TORSDOF 4
ENDMDL
MODEL 6
REMARK VINA RESULT:      -7.1      6.206      8.699
REMARK  Name = 73115
REMARK  4 active torsions:
REMARK  status: ('A' for Active; 'I' for Inactive)
REMARK    1  A    between atoms: C_3  and  O_17
REMARK    2  A    between atoms: C_4  and  N_9
REMARK    3  A    between atoms: C_6  and  C_19
REMARK    4  A    between atoms: C_19  and  O_20
REMARK                            x       y       z     vdW  Elec       q    Type
REMARK                         _______ _______ _______ _____ _____    ______ ____
ROOT
ATOM      1  F   UNL     1      36.547 -18.535 -20.721  0.00  0.00    -0.230 F 
ATOM      2  O   UNL     1      33.695 -18.000 -21.435  0.00  0.00    -0.332 OA
ATOM      3  C   UNL     1      35.702 -17.181 -22.421  0.00  0.00    +0.177 C 
ATOM      4  C   UNL     1      34.523 -19.120 -21.775  0.00  0.00    +0.235 C 
ATOM      5  C   UNL     1      35.935 -18.590 -21.934  0.00  0.00    +0.237 C 
ATOM      6  C   UNL     1      34.411 -16.781 -21.714  0.00  0.00    +0.176 C 
ENDROOT
BRANCH   4   9
ATOM      7  O   UNL     1      32.105 -20.448 -21.055  0.00  0.00    -0.252 OA
ATOM      8  O   UNL     1      34.244 -22.989 -17.875  0.00  0.00    -0.270 OA
ATOM      9  N   UNL     1      34.402 -20.131 -20.768  0.00  0.00    -0.217 N 
ATOM     10  N   UNL     1      33.185 -21.709 -19.471  0.00  0.00    -0.236 N 
ATOM     11  C   UNL     1      35.541 -20.517 -20.067  0.00  0.00    +0.071 C 
ATOM     12  C   UNL     1      33.156 -20.737 -20.478  0.00  0.00    +0.315 C 
ATOM     13  C   UNL     1      35.565 -21.447 -19.104  0.00  0.00    +0.047 C 
ATOM     14  C   UNL     1      34.290 -22.127 -18.747  0.00  0.00    +0.250 C 
ATOM     15  C   UNL     1      36.803 -21.843 -18.368  0.00  0.00    +0.037 C 
ATOM     16  H   UNL     1      32.328 -22.142 -19.255  0.00  0.00    +0.159 HD
ENDBRANCH   4   9
BRANCH   3  17
ATOM     17  O   UNL     1      35.477 -17.197 -23.827  0.00  0.00    -0.379 OA
ATOM     18  H   UNL     1      35.046 -16.371 -24.094  0.00  0.00    +0.211 HD
ENDBRANCH   3  17
BRANCH   6  19
ATOM     19  C   UNL     1      34.651 -16.070 -20.390  0.00  0.00    +0.169 C 
BRANCH  19  20
ATOM     20  O   UNL     1      34.934 -14.707 -20.651  0.00  0.00    -0.379 OA
ATOM     21  H   UNL     1      34.103 -14.221 -20.773  0.00  0.00    +0.211 HD
ENDBRANCH  19  20
ENDBRANCH   6  19
TORSDOF 4
ENDMDL
MODEL 7
REMARK VINA RESULT:      -7.0      1.758      2.255
REMARK  Name = 73115
REMARK  4 active torsions:
REMARK  status: ('A' for Active; 'I' for Inactive)
REMARK    1  A    between atoms: C_3  and  O_17
REMARK    2  A    between atoms: C_4  and  N_9
REMARK    3  A    between atoms: C_6  and  C_19
REMARK    4  A    between atoms: C_19  and  O_20
REMARK                            x       y       z     vdW  Elec       q    Type
REMARK                         _______ _______ _______ _____ _____    ______ ____
ROOT
ATOM      1  F   UNL     1      35.937 -25.862 -15.269  0.00  0.00    -0.230 F 
ATOM      2  O   UNL     1      36.778 -23.913 -13.165  0.00  0.00    -0.332 OA
ATOM      3  C   UNL     1      38.088 -25.141 -14.729  0.00  0.00    +0.177 C 
ATOM      4  C   UNL     1      36.263 -23.666 -14.481  0.00  0.00    +0.235 C 
ATOM      5  C   UNL     1      36.767 -24.789 -15.367  0.00  0.00    +0.237 C 
ATOM      6  C   UNL     1      37.833 -24.892 -13.246  0.00  0.00    +0.176 C 
ENDROOT
BRANCH   4   9
ATOM      7  O   UNL     1      34.682 -23.880 -12.118  0.00  0.00    -0.252 OA
ATOM      8  O   UNL     1      30.775 -23.288 -14.471  0.00  0.00    -0.270 OA
ATOM      9  N   UNL     1      34.835 -23.575 -14.429  0.00  0.00    -0.217 N 
ATOM     10  N   UNL     1      32.741 -23.584 -13.304  0.00  0.00    -0.236 N 
ATOM     11  C   UNL     1      34.135 -23.366 -15.613  0.00  0.00    +0.071 C 
ATOM     12  C   UNL     1      34.132 -23.694 -13.206  0.00  0.00    +0.315 C 
ATOM     13  C   UNL     1      32.803 -23.262 -15.704  0.00  0.00    +0.047 C 
ATOM     14  C   UNL     1      32.000 -23.376 -14.457  0.00  0.00    +0.250 C 
ATOM     15  C   UNL     1      32.077 -23.036 -16.990  0.00  0.00    +0.037 C 
ATOM     16  H   UNL     1      32.234 -23.663 -12.464  0.00  0.00    +0.159 HD
ENDBRANCH   4   9
BRANCH   3  17
ATOM     17  O   UNL     1      39.090 -24.239 -15.186  0.00  0.00    -0.379 OA
ATOM     18  H   UNL     1      39.840 -24.741 -15.539  0.00  0.00    +0.211 HD
ENDBRANCH   3  17
BRANCH   6  19
ATOM     19  C   UNL     1      37.370 -26.136 -12.502  0.00  0.00    +0.169 C 
BRANCH  19  20
ATOM     20  O   UNL     1      36.520 -25.740 -11.440  0.00  0.00    -0.379 OA
ATOM     21  H   UNL     1      36.685 -24.810 -11.223  0.00  0.00    +0.211 HD
ENDBRANCH  19  20
ENDBRANCH   6  19
TORSDOF 4
ENDMDL
MODEL 8
REMARK VINA RESULT:      -6.9      1.471      2.282
REMARK  Name = 73115
REMARK  4 active torsions:
REMARK  status: ('A' for Active; 'I' for Inactive)
REMARK    1  A    between atoms: C_3  and  O_17
REMARK    2  A    between atoms: C_4  and  N_9
REMARK    3  A    between atoms: C_6  and  C_19
REMARK    4  A    between atoms: C_19  and  O_20
REMARK                            x       y       z     vdW  Elec       q    Type
REMARK                         _______ _______ _______ _____ _____    ______ ____
ROOT
ATOM      1  F   UNL     1      35.104 -22.842 -13.638  0.00  0.00    -0.230 F 
ATOM      2  O   UNL     1      35.742 -25.042 -15.558  0.00  0.00    -0.332 OA
ATOM      3  C   UNL     1      36.542 -24.655 -13.349  0.00  0.00    +0.177 C 
ATOM      4  C   UNL     1      34.613 -24.894 -14.686  0.00  0.00    +0.235 C 
ATOM      5  C   UNL     1      35.111 -24.188 -13.439  0.00  0.00    +0.237 C 
ATOM      6  C   UNL     1      36.951 -24.802 -14.810  0.00  0.00    +0.176 C 
ENDROOT
BRANCH   4   9
ATOM      7  O   UNL     1      34.926 -23.421 -17.108  0.00  0.00    -0.252 OA
ATOM      8  O   UNL     1      30.482 -22.237 -17.164  0.00  0.00    -0.270 OA
ATOM      9  N   UNL     1      33.570 -24.187 -15.366  0.00  0.00    -0.217 N 
ATOM     10  N   UNL     1      32.707 -22.837 -17.123  0.00  0.00    -0.236 N 
ATOM     11  C   UNL     1      32.288 -24.203 -14.824  0.00  0.00    +0.071 C 
ATOM     12  C   UNL     1      33.819 -23.481 -16.568  0.00  0.00    +0.315 C 
ATOM     13  C   UNL     1      31.227 -23.586 -15.358  0.00  0.00    +0.047 C 
ATOM     14  C   UNL     1      31.415 -22.824 -16.622  0.00  0.00    +0.250 C 
ATOM     15  C   UNL     1      29.860 -23.619 -14.754  0.00  0.00    +0.037 C 
ATOM     16  H   UNL     1      32.860 -22.341 -17.959  0.00  0.00    +0.159 HD
ENDBRANCH   4   9
BRANCH   3  17
ATOM     17  O   UNL     1      36.584 -25.934 -12.724  0.00  0.00    -0.379 OA
ATOM     18  H   UNL     1      35.787 -26.057 -12.185  0.00  0.00    +0.211 HD
ENDBRANCH   3  17
BRANCH   6  19
ATOM     19  C   UNL     1      37.606 -23.550 -15.376  0.00  0.00    +0.169 C 
BRANCH  19  20
ATOM     20  O   UNL     1      38.964 -23.836 -15.658  0.00  0.00    -0.379 OA
ATOM     21  H   UNL     1      39.152 -23.630 -16.587  0.00  0.00    +0.211 HD
ENDBRANCH  19  20
ENDBRANCH   6  19
TORSDOF 4
ENDMDL
MODEL 9
REMARK VINA RESULT:      -6.9      1.979      3.017
REMARK  Name = 73115
REMARK  4 active torsions:
REMARK  status: ('A' for Active; 'I' for Inactive)
REMARK    1  A    between atoms: C_3  and  O_17
REMARK    2  A    between atoms: C_4  and  N_9
REMARK    3  A    between atoms: C_6  and  C_19
REMARK    4  A    between atoms: C_19  and  O_20
REMARK                            x       y       z     vdW  Elec       q    Type
REMARK                         _______ _______ _______ _____ _____    ______ ____
ROOT
ATOM      1  F   UNL     1      36.056 -25.389 -15.398  0.00  0.00    -0.230 F 
ATOM      2  O   UNL     1      35.899 -22.779 -13.951  0.00  0.00    -0.332 OA
ATOM      3  C   UNL     1      37.367 -24.626 -13.628  0.00  0.00    +0.177 C 
ATOM      4  C   UNL     1      36.522 -23.088 -15.205  0.00  0.00    +0.235 C 
ATOM      5  C   UNL     1      37.046 -24.507 -15.097  0.00  0.00    +0.237 C 
ATOM      6  C   UNL     1      36.301 -23.755 -12.970  0.00  0.00    +0.176 C 
ENDROOT
BRANCH   4   9
ATOM      7  O   UNL     1      33.774 -23.844 -15.121  0.00  0.00    -0.252 OA
ATOM      8  O   UNL     1      33.042 -22.305 -19.392  0.00  0.00    -0.270 OA
ATOM      9  N   UNL     1      35.580 -22.906 -16.268  0.00  0.00    -0.217 N 
ATOM     10  N   UNL     1      33.423 -23.073 -17.253  0.00  0.00    -0.236 N 
ATOM     11  C   UNL     1      36.013 -22.313 -17.451  0.00  0.00    +0.071 C 
ATOM     12  C   UNL     1      34.231 -23.313 -16.136  0.00  0.00    +0.315 C 
ATOM     13  C   UNL     1      35.238 -22.085 -18.518  0.00  0.00    +0.047 C 
ATOM     14  C   UNL     1      33.807 -22.488 -18.450  0.00  0.00    +0.250 C 
ATOM     15  C   UNL     1      35.729 -21.447 -19.776  0.00  0.00    +0.037 C 
ATOM     16  H   UNL     1      32.481 -23.349 -17.181  0.00  0.00    +0.159 HD
ENDBRANCH   4   9
BRANCH   3  17
ATOM     17  O   UNL     1      38.649 -24.061 -13.376  0.00  0.00    -0.379 OA
ATOM     18  H   UNL     1      38.860 -23.416 -14.068  0.00  0.00    +0.211 HD
ENDBRANCH   3  17
BRANCH   6  19
ATOM     19  C   UNL     1      35.062 -24.537 -12.558  0.00  0.00    +0.169 C 
BRANCH  19  20
ATOM     20  O   UNL     1      33.989 -23.629 -12.382  0.00  0.00    -0.379 OA
ATOM     21  H   UNL     1      33.255 -24.077 -11.935  0.00  0.00    +0.211 HD
ENDBRANCH  19  20
ENDBRANCH   6  19
TORSDOF 4
ENDMDL
