MODEL 1
REMARK VINA RESULT:      -7.9      0.000      0.000
REMARK  Name = 1614
REMARK  3 active torsions:
REMARK  status: ('A' for Active; 'I' for Inactive)
REMARK    1  A    between atoms: C_3  and  C_10
REMARK    2  A    between atoms: C_10  and  C_11
REMARK    3  A    between atoms: C_11  and  N_13
REMARK                            x       y       z     vdW  Elec       q    Type
REMARK                         _______ _______ _______ _____ _____    ______ ____
ROOT
ATOM      1  O   UNL     1      32.610 -22.164 -18.775  0.00  0.00    -0.435 OA
ATOM      2  O   UNL     1      34.833 -22.896 -18.204  0.00  0.00    -0.435 OA
ATOM      3  C   UNL     1      34.471 -19.803 -20.879  0.00  0.00    -0.021 C 
ATOM      4  C   UNL     1      33.353 -20.419 -20.313  0.00  0.00    +0.036 C 
ATOM      5  C   UNL     1      33.571 -21.451 -19.423  0.00  0.00    +0.176 C 
ATOM      6  C   UNL     1      35.769 -20.231 -20.546  0.00  0.00    -0.001 C 
ATOM      7  C   UNL     1      34.841 -21.869 -19.098  0.00  0.00    +0.176 C 
ATOM      8  C   UNL     1      35.962 -21.278 -19.643  0.00  0.00    +0.040 C 
ATOM      9  C   UNL     1      33.417 -23.078 -18.005  0.00  0.00    +0.429 C 
ENDROOT
BRANCH   3  10
ATOM     10  C   UNL     1      34.289 -18.682 -21.847  0.00  0.00    +0.005 C 
BRANCH  10  11
ATOM     11  C   UNL     1      35.312 -18.672 -23.007  0.00  0.00    -0.061 C 
ATOM     12  C   UNL     1      34.695 -19.133 -24.327  0.00  0.00    -0.024 C 
BRANCH  11  13
ATOM     13  N   UNL     1      35.849 -17.321 -23.195  0.00  0.00    +0.382 N 
ATOM     14  H   UNL     1      35.740 -16.789 -22.332  0.00  0.00    -0.089 HD
ATOM     15  H   UNL     1      35.341 -16.856 -23.947  0.00  0.00    -0.089 HD
ATOM     16  H   UNL     1      36.838 -17.378 -23.437  0.00  0.00    -0.089 HD
ENDBRANCH  11  13
ENDBRANCH  10  11
ENDBRANCH   3  10
TORSDOF 3
ENDMDL
MODEL 2
REMARK VINA RESULT:      -7.7      1.086      2.188
REMARK  Name = 1614
REMARK  3 active torsions:
REMARK  status: ('A' for Active; 'I' for Inactive)
REMARK    1  A    between atoms: C_3  and  C_10
REMARK    2  A    between atoms: C_10  and  C_11
REMARK    3  A    between atoms: C_11  and  N_13
REMARK                            x       y       z     vdW  Elec       q    Type
REMARK                         _______ _______ _______ _____ _____    ______ ____
ROOT
ATOM      1  O   UNL     1      35.121 -22.480 -18.756  0.00  0.00    -0.435 OA
ATOM      2  O   UNL     1      32.721 -22.293 -18.865  0.00  0.00    -0.435 OA
ATOM      3  C   UNL     1      34.946 -19.524 -20.922  0.00  0.00    -0.021 C 
ATOM      4  C   UNL     1      35.547 -20.544 -20.180  0.00  0.00    +0.036 C 
ATOM      5  C   UNL     1      34.719 -21.429 -19.520  0.00  0.00    +0.176 C 
ATOM      6  C   UNL     1      33.545 -19.415 -20.985  0.00  0.00    -0.001 C 
ATOM      7  C   UNL     1      33.349 -21.322 -19.583  0.00  0.00    +0.176 C 
ATOM      8  C   UNL     1      32.731 -20.324 -20.308  0.00  0.00    +0.040 C 
ATOM      9  C   UNL     1      33.850 -23.023 -18.343  0.00  0.00    +0.429 C 
ENDROOT
BRANCH   3  10
ATOM     10  C   UNL     1      35.797 -18.540 -21.653  0.00  0.00    +0.005 C 
BRANCH  10  11
ATOM     11  C   UNL     1      35.019 -17.336 -22.233  0.00  0.00    -0.061 C 
ATOM     12  C   UNL     1      34.852 -16.209 -21.214  0.00  0.00    -0.024 C 
BRANCH  11  13
ATOM     13  N   UNL     1      35.720 -16.799 -23.404  0.00  0.00    +0.382 N 
ATOM     14  H   UNL     1      35.732 -17.501 -24.145  0.00  0.00    -0.089 HD
ATOM     15  H   UNL     1      36.678 -16.561 -23.146  0.00  0.00    -0.089 HD
ATOM     16  H   UNL     1      35.239 -15.963 -23.735  0.00  0.00    -0.089 HD
ENDBRANCH  11  13
ENDBRANCH  10  11
ENDBRANCH   3  10
TORSDOF 3
ENDMDL
MODEL 3
REMARK VINA RESULT:      -7.4      4.762      7.028
REMARK  Name = 1614
REMARK  3 active torsions:
REMARK  status: ('A' for Active; 'I' for Inactive)
REMARK    1  A    between atoms: C_3  and  C_10
REMARK    2  A    between atoms: C_10  and  C_11
REMARK    3  A    between atoms: C_11  and  N_13
REMARK                            x       y       z     vdW  Elec       q    Type
REMARK                         _______ _______ _______ _____ _____    ______ ____
ROOT
ATOM      1  O   UNL     1      33.597 -16.061 -26.352  0.00  0.00    -0.435 OA
ATOM      2  O   UNL     1      33.013 -14.150 -25.006  0.00  0.00    -0.435 OA
ATOM      3  C   UNL     1      35.126 -17.176 -23.208  0.00  0.00    -0.021 C 
ATOM      4  C   UNL     1      34.751 -17.240 -24.553  0.00  0.00    +0.036 C 
ATOM      5  C   UNL     1      34.042 -16.175 -25.072  0.00  0.00    +0.176 C 
ATOM      6  C   UNL     1      34.784 -16.061 -22.423  0.00  0.00    -0.001 C 
ATOM      7  C   UNL     1      33.709 -15.084 -24.302  0.00  0.00    +0.176 C 
ATOM      8  C   UNL     1      34.066 -14.997 -22.973  0.00  0.00    +0.040 C 
ATOM      9  C   UNL     1      32.945 -14.775 -26.303  0.00  0.00    +0.429 C 
ENDROOT
BRANCH   3  10
ATOM     10  C   UNL     1      35.894 -18.301 -22.599  0.00  0.00    +0.005 C 
BRANCH  10  11
ATOM     11  C   UNL     1      35.446 -18.672 -21.166  0.00  0.00    -0.061 C 
ATOM     12  C   UNL     1      34.200 -19.558 -21.159  0.00  0.00    -0.024 C 
BRANCH  11  13
ATOM     13  N   UNL     1      36.522 -19.385 -20.470  0.00  0.00    +0.382 N 
ATOM     14  H   UNL     1      37.356 -18.798 -20.444  0.00  0.00    -0.089 HD
ATOM     15  H   UNL     1      36.731 -20.251 -20.966  0.00  0.00    -0.089 HD
ATOM     16  H   UNL     1      36.228 -19.600 -19.518  0.00  0.00    -0.089 HD
ENDBRANCH  11  13
ENDBRANCH  10  11
ENDBRANCH   3  10
TORSDOF 3
ENDMDL
MODEL 4
REMARK VINA RESULT:      -7.2      1.236      1.685
REMARK  Name = 1614
REMARK  3 active torsions:
REMARK  status: ('A' for Active; 'I' for Inactive)
REMARK    1  A    between atoms: C_3  and  C_10
REMARK    2  A    between atoms: C_10  and  C_11
REMARK    3  A    between atoms: C_11  and  N_13
REMARK                            x       y       z     vdW  Elec       q    Type
REMARK                         _______ _______ _______ _____ _____    ______ ____
ROOT
ATOM      1  O   UNL     1      32.997 -21.554 -19.592  0.00  0.00    -0.435 OA
ATOM      2  O   UNL     1      34.902 -22.596 -18.547  0.00  0.00    -0.435 OA
ATOM      3  C   UNL     1      35.594 -19.384 -21.010  0.00  0.00    -0.021 C 
ATOM      4  C   UNL     1      34.304 -19.867 -20.777  0.00  0.00    +0.036 C 
ATOM      5  C   UNL     1      34.167 -20.951 -19.935  0.00  0.00    +0.176 C 
ATOM      6  C   UNL     1      36.706 -19.992 -20.400  0.00  0.00    -0.001 C 
ATOM      7  C   UNL     1      35.256 -21.546 -19.339  0.00  0.00    +0.176 C 
ATOM      8  C   UNL     1      36.540 -21.089 -19.552  0.00  0.00    +0.040 C 
ATOM      9  C   UNL     1      33.470 -22.595 -18.713  0.00  0.00    +0.429 C 
ENDROOT
BRANCH   3  10
ATOM     10  C   UNL     1      35.795 -18.213 -21.913  0.00  0.00    +0.005 C 
BRANCH  10  11
ATOM     11  C   UNL     1      34.604 -17.227 -21.949  0.00  0.00    -0.061 C 
ATOM     12  C   UNL     1      34.714 -16.146 -20.874  0.00  0.00    -0.024 C 
BRANCH  11  13
ATOM     13  N   UNL     1      34.532 -16.570 -23.258  0.00  0.00    +0.382 N 
ATOM     14  H   UNL     1      34.741 -15.578 -23.152  0.00  0.00    -0.089 HD
ATOM     15  H   UNL     1      33.594 -16.681 -23.642  0.00  0.00    -0.089 HD
ATOM     16  H   UNL     1      35.211 -16.995 -23.889  0.00  0.00    -0.089 HD
ENDBRANCH  11  13
ENDBRANCH  10  11
ENDBRANCH   3  10
TORSDOF 3
ENDMDL
MODEL 5
REMARK VINA RESULT:      -7.1      4.363      6.621
REMARK  Name = 1614
REMARK  3 active torsions:
REMARK  status: ('A' for Active; 'I' for Inactive)
REMARK    1  A    between atoms: C_3  and  C_10
REMARK    2  A    between atoms: C_10  and  C_11
REMARK    3  A    between atoms: C_11  and  N_13
REMARK                            x       y       z     vdW  Elec       q    Type
REMARK                         _______ _______ _______ _____ _____    ______ ____
ROOT
ATOM      1  O   UNL     1      33.774 -14.717 -24.201  0.00  0.00    -0.435 OA
ATOM      2  O   UNL     1      33.651 -16.090 -26.178  0.00  0.00    -0.435 OA
ATOM      3  C   UNL     1      35.129 -17.804 -22.752  0.00  0.00    -0.021 C 
ATOM      4  C   UNL     1      34.709 -16.472 -22.785  0.00  0.00    +0.036 C 
ATOM      5  C   UNL     1      34.227 -15.981 -23.981  0.00  0.00    +0.176 C 
ATOM      6  C   UNL     1      35.057 -18.605 -23.907  0.00  0.00    -0.001 C 
ATOM      7  C   UNL     1      34.157 -16.765 -25.109  0.00  0.00    +0.176 C 
ATOM      8  C   UNL     1      34.565 -18.083 -25.104  0.00  0.00    +0.040 C 
ATOM      9  C   UNL     1      33.412 -14.793 -25.595  0.00  0.00    +0.429 C 
ENDROOT
BRANCH   3  10
ATOM     10  C   UNL     1      35.659 -18.383 -21.484  0.00  0.00    +0.005 C 
BRANCH  10  11
ATOM     11  C   UNL     1      35.192 -19.830 -21.203  0.00  0.00    -0.061 C 
ATOM     12  C   UNL     1      36.090 -20.544 -20.192  0.00  0.00    -0.024 C 
BRANCH  11  13
ATOM     13  N   UNL     1      33.822 -19.826 -20.679  0.00  0.00    +0.382 N 
ATOM     14  H   UNL     1      33.162 -19.787 -21.456  0.00  0.00    -0.089 HD
ATOM     15  H   UNL     1      33.691 -19.012 -20.080  0.00  0.00    -0.089 HD
ATOM     16  H   UNL     1      33.662 -20.676 -20.139  0.00  0.00    -0.089 HD
ENDBRANCH  11  13
ENDBRANCH  10  11
ENDBRANCH   3  10
TORSDOF 3
ENDMDL
MODEL 6
REMARK VINA RESULT:      -6.8      4.100      6.288
REMARK  Name = 1614
REMARK  3 active torsions:
REMARK  status: ('A' for Active; 'I' for Inactive)
REMARK    1  A    between atoms: C_3  and  C_10
REMARK    2  A    between atoms: C_10  and  C_11
REMARK    3  A    between atoms: C_11  and  N_13
REMARK                            x       y       z     vdW  Elec       q    Type
REMARK                         _______ _______ _______ _____ _____    ______ ____
ROOT
ATOM      1  O   UNL     1      34.471 -17.115 -25.422  0.00  0.00    -0.435 OA
ATOM      2  O   UNL     1      33.553 -15.121 -24.430  0.00  0.00    -0.435 OA
ATOM      3  C   UNL     1      35.447 -17.789 -21.950  0.00  0.00    -0.021 C 
ATOM      4  C   UNL     1      35.331 -18.018 -23.323  0.00  0.00    +0.036 C 
ATOM      5  C   UNL     1      34.677 -17.065 -24.079  0.00  0.00    +0.176 C 
ATOM      6  C   UNL     1      34.911 -16.625 -21.371  0.00  0.00    -0.001 C 
ATOM      7  C   UNL     1      34.153 -15.926 -23.511  0.00  0.00    +0.176 C 
ATOM      8  C   UNL     1      34.254 -15.677 -22.158  0.00  0.00    +0.040 C 
ATOM      9  C   UNL     1      33.758 -15.881 -25.638  0.00  0.00    +0.429 C 
ENDROOT
BRANCH   3  10
ATOM     10  C   UNL     1      36.144 -18.788 -21.089  0.00  0.00    +0.005 C 
BRANCH  10  11
ATOM     11  C   UNL     1      35.401 -20.137 -20.952  0.00  0.00    -0.061 C 
ATOM     12  C   UNL     1      36.057 -21.060 -19.925  0.00  0.00    -0.024 C 
BRANCH  11  13
ATOM     13  N   UNL     1      34.011 -19.909 -20.545  0.00  0.00    +0.382 N 
ATOM     14  H   UNL     1      33.452 -20.734 -20.763  0.00  0.00    -0.089 HD
ATOM     15  H   UNL     1      33.638 -19.104 -21.048  0.00  0.00    -0.089 HD
ATOM     16  H   UNL     1      33.975 -19.730 -19.542  0.00  0.00    -0.089 HD
ENDBRANCH  11  13
ENDBRANCH  10  11
ENDBRANCH   3  10
TORSDOF 3
ENDMDL
MODEL 7
REMARK VINA RESULT:      -6.8      3.812      5.861
REMARK  Name = 1614
REMARK  3 active torsions:
REMARK  status: ('A' for Active; 'I' for Inactive)
REMARK    1  A    between atoms: C_3  and  C_10
REMARK    2  A    between atoms: C_10  and  C_11
REMARK    3  A    between atoms: C_11  and  N_13
REMARK                            x       y       z     vdW  Elec       q    Type
REMARK                         _______ _______ _______ _____ _____    ______ ____
ROOT
ATOM      1  O   UNL     1      34.639 -15.397 -22.183  0.00  0.00    -0.435 OA
ATOM      2  O   UNL     1      34.620 -16.128 -24.479  0.00  0.00    -0.435 OA
ATOM      3  C   UNL     1      34.889 -19.005 -21.561  0.00  0.00    -0.021 C 
ATOM      4  C   UNL     1      34.811 -17.646 -21.248  0.00  0.00    +0.036 C 
ATOM      5  C   UNL     1      34.724 -16.750 -22.294  0.00  0.00    +0.176 C 
ATOM      6  C   UNL     1      34.878 -19.431 -22.902  0.00  0.00    -0.001 C 
ATOM      7  C   UNL     1      34.713 -17.168 -23.605  0.00  0.00    +0.176 C 
ATOM      8  C   UNL     1      34.789 -18.504 -23.942  0.00  0.00    +0.040 C 
ATOM      9  C   UNL     1      34.574 -15.009 -23.570  0.00  0.00    +0.429 C 
ENDROOT
BRANCH   3  10
ATOM     10  C   UNL     1      34.985 -20.013 -20.466  0.00  0.00    +0.005 C 
BRANCH  10  11
ATOM     11  C   UNL     1      33.759 -20.950 -20.357  0.00  0.00    -0.061 C 
ATOM     12  C   UNL     1      33.878 -21.925 -19.185  0.00  0.00    -0.024 C 
BRANCH  11  13
ATOM     13  N   UNL     1      32.536 -20.161 -20.178  0.00  0.00    +0.382 N 
ATOM     14  H   UNL     1      32.492 -19.436 -20.894  0.00  0.00    -0.089 HD
ATOM     15  H   UNL     1      32.544 -19.728 -19.255  0.00  0.00    -0.089 HD
ATOM     16  H   UNL     1      31.723 -20.771 -20.261  0.00  0.00    -0.089 HD
ENDBRANCH  11  13
ENDBRANCH  10  11
ENDBRANCH   3  10
TORSDOF 3
ENDMDL
MODEL 8
REMARK VINA RESULT:      -6.7      7.086      8.366
REMARK  Name = 1614
REMARK  3 active torsions:
REMARK  status: ('A' for Active; 'I' for Inactive)
REMARK    1  A    between atoms: C_3  and  C_10
REMARK    2  A    between atoms: C_10  and  C_11
REMARK    3  A    between atoms: C_11  and  N_13
REMARK                            x       y       z     vdW  Elec       q    Type
REMARK                         _______ _______ _______ _____ _____    ______ ____
ROOT
ATOM      1  O   UNL     1      29.044 -22.194 -16.969  0.00  0.00    -0.435 OA
ATOM      2  O   UNL     1      27.838 -24.269 -16.752  0.00  0.00    -0.435 OA
ATOM      3  C   UNL     1      31.256 -23.807 -14.524  0.00  0.00    -0.021 C 
ATOM      4  C   UNL     1      30.797 -22.804 -15.383  0.00  0.00    +0.036 C 
ATOM      5  C   UNL     1      29.639 -23.048 -16.092  0.00  0.00    +0.176 C 
ATOM      6  C   UNL     1      30.551 -25.018 -14.398  0.00  0.00    -0.001 C 
ATOM      7  C   UNL     1      28.950 -24.233 -15.968  0.00  0.00    +0.176 C 
ATOM      8  C   UNL     1      29.382 -25.239 -15.128  0.00  0.00    +0.040 C 
ATOM      9  C   UNL     1      27.904 -22.974 -17.383  0.00  0.00    +0.429 C 
ENDROOT
BRANCH   3  10
ATOM     10  C   UNL     1      32.503 -23.593 -13.734  0.00  0.00    +0.005 C 
BRANCH  10  11
ATOM     11  C   UNL     1      33.742 -24.332 -14.292  0.00  0.00    -0.061 C 
ATOM     12  C   UNL     1      34.533 -23.474 -15.280  0.00  0.00    -0.024 C 
BRANCH  11  13
ATOM     13  N   UNL     1      34.636 -24.716 -13.196  0.00  0.00    +0.382 N 
ATOM     14  H   UNL     1      35.095 -25.598 -13.425  0.00  0.00    -0.089 HD
ATOM     15  H   UNL     1      34.095 -24.826 -12.339  0.00  0.00    -0.089 HD
ATOM     16  H   UNL     1      35.341 -23.992 -13.062  0.00  0.00    -0.089 HD
ENDBRANCH  11  13
ENDBRANCH  10  11
ENDBRANCH   3  10
TORSDOF 3
ENDMDL
MODEL 9
REMARK VINA RESULT:      -6.6      3.437      5.559
REMARK  Name = 1614
REMARK  3 active torsions:
REMARK  status: ('A' for Active; 'I' for Inactive)
REMARK    1  A    between atoms: C_3  and  C_10
REMARK    2  A    between atoms: C_10  and  C_11
REMARK    3  A    between atoms: C_11  and  N_13
REMARK                            x       y       z     vdW  Elec       q    Type
REMARK                         _______ _______ _______ _____ _____    ______ ____
ROOT
ATOM      1  O   UNL     1      36.439 -19.450 -20.878  0.00  0.00    -0.435 OA
ATOM      2  O   UNL     1      34.440 -18.304 -21.583  0.00  0.00    -0.435 OA
ATOM      3  C   UNL     1      33.993 -21.772 -19.432  0.00  0.00    -0.021 C 
ATOM      4  C   UNL     1      35.255 -21.263 -19.751  0.00  0.00    +0.036 C 
ATOM      5  C   UNL     1      35.308 -20.091 -20.478  0.00  0.00    +0.176 C 
ATOM      6  C   UNL     1      32.827 -21.103 -19.844  0.00  0.00    -0.001 C 
ATOM      7  C   UNL     1      34.166 -19.437 -20.881  0.00  0.00    +0.176 C 
ATOM      8  C   UNL     1      32.909 -19.919 -20.579  0.00  0.00    +0.040 C 
ATOM      9  C   UNL     1      35.882 -18.318 -21.577  0.00  0.00    +0.429 C 
ENDROOT
BRANCH   3  10
ATOM     10  C   UNL     1      33.882 -23.036 -18.648  0.00  0.00    +0.005 C 
BRANCH  10  11
ATOM     11  C   UNL     1      33.561 -22.828 -17.149  0.00  0.00    -0.061 C 
ATOM     12  C   UNL     1      32.123 -23.216 -16.804  0.00  0.00    -0.024 C 
BRANCH  11  13
ATOM     13  N   UNL     1      34.466 -23.632 -16.322  0.00  0.00    +0.382 N 
ATOM     14  H   UNL     1      35.432 -23.372 -16.525  0.00  0.00    -0.089 HD
ATOM     15  H   UNL     1      34.329 -24.620 -16.532  0.00  0.00    -0.089 HD
ATOM     16  H   UNL     1      34.269 -23.461 -15.337  0.00  0.00    -0.089 HD
ENDBRANCH  11  13
ENDBRANCH  10  11
ENDBRANCH   3  10
TORSDOF 3
ENDMDL
