MODEL 1
REMARK VINA RESULT:     -11.3      0.000      0.000
REMARK  Name = 132999
REMARK  10 active torsions:
REMARK  status: ('A' for Active; 'I' for Inactive)
REMARK    1  A    between atoms: C_1  and  C_2
REMARK    2  A    between atoms: C_1  and  C_19
REMARK    3  A    between atoms: C_2  and  N_3
REMARK    4  A    between atoms: N_3  and  C_6
REMARK    5  A    between atoms: C_6  and  C_7
REMARK    6  A    between atoms: C_13  and  O_15
REMARK    7  A    between atoms: C_14  and  O_17
REMARK    8  A    between atoms: C_19  and  N_21
REMARK    9  A    between atoms: C_30  and  O_32
REMARK   10  A    between atoms: C_31  and  O_34
REMARK                            x       y       z     vdW  Elec       q    Type
REMARK                         _______ _______ _______ _____ _____    ______ ____
ROOT
ATOM      1  C   UNL     1      34.672 -18.735 -22.501  0.00  0.00    -0.001 C 
ENDROOT
BRANCH   1   2
ATOM      2  C   UNL     1      35.872 -17.850 -22.847  0.00  0.00    -0.076 C 
BRANCH   2   3
ATOM      3  N   UNL     1      35.465 -16.607 -23.492  0.00  0.00    +0.386 N 
ATOM      4  C   UNL     1      34.482 -16.870 -24.545  0.00  0.00    -0.101 C 
ATOM      5  H   UNL     1      36.290 -16.184 -23.917  0.00  0.00    -0.080 HD
BRANCH   3   6
ATOM      6  C   UNL     1      34.916 -15.671 -22.509  0.00  0.00    -0.073 C 
BRANCH   6   7
ATOM      7  C   UNL     1      33.483 -15.296 -22.858  0.00  0.00    +0.006 C 
ATOM      8  C   UNL     1      32.537 -15.085 -21.629  0.00  0.00    +0.028 C 
ATOM      9  C   UNL     1      33.310 -13.829 -23.121  0.00  0.00    -0.025 C 
ATOM     10  C   UNL     1      32.481 -13.644 -22.042  0.00  0.00    -0.023 C 
ATOM     11  C   UNL     1      33.664 -12.797 -23.957  0.00  0.00    +0.035 C 
ATOM     12  C   UNL     1      31.951 -12.413 -21.731  0.00  0.00    +0.035 C 
ATOM     13  C   UNL     1      33.142 -11.533 -23.668  0.00  0.00    +0.172 C 
ATOM     14  C   UNL     1      32.290 -11.343 -22.561  0.00  0.00    +0.172 C 
BRANCH  13  15
ATOM     15  O   UNL     1      33.465 -10.480 -24.471  0.00  0.00    -0.468 OA
ATOM     16  C   UNL     1      34.588  -9.691 -24.083  0.00  0.00    +0.253 C 
ENDBRANCH  13  15
BRANCH  14  17
ATOM     17  O   UNL     1      31.788 -10.105 -22.291  0.00  0.00    -0.468 OA
ATOM     18  C   UNL     1      31.891  -9.646 -20.944  0.00  0.00    +0.253 C 
ENDBRANCH  14  17
ENDBRANCH   6   7
ENDBRANCH   3   6
ENDBRANCH   2   3
ENDBRANCH   1   2
BRANCH   1  19
ATOM     19  C   UNL     1      34.403 -18.876 -21.005  0.00  0.00    +0.091 C 
BRANCH  19  21
ATOM     20  O   UNL     1      32.285 -20.272 -19.723  0.00  0.00    -0.275 OA
ATOM     21  N   UNL     1      34.456 -20.260 -20.556  0.00  0.00    -0.279 N 
ATOM     22  C   UNL     1      35.732 -20.958 -20.691  0.00  0.00    +0.098 C 
ATOM     23  C   UNL     1      36.451 -21.074 -19.350  0.00  0.00    +0.048 C 
ATOM     24  C   UNL     1      33.361 -20.840 -19.922  0.00  0.00    +0.230 C 
ATOM     25  C   UNL     1      35.791 -21.879 -18.248  0.00  0.00    -0.021 C 
ATOM     26  C   UNL     1      33.560 -22.270 -19.470  0.00  0.00    +0.111 C 
ATOM     27  C   UNL     1      34.482 -22.401 -18.283  0.00  0.00    -0.014 C 
ATOM     28  C   UNL     1      36.570 -22.082 -17.089  0.00  0.00    +0.036 C 
ATOM     29  C   UNL     1      34.007 -23.124 -17.170  0.00  0.00    +0.036 C 
ATOM     30  C   UNL     1      36.079 -22.793 -15.995  0.00  0.00    +0.172 C 
ATOM     31  C   UNL     1      34.796 -23.317 -16.036  0.00  0.00    +0.172 C 
BRANCH  30  32
ATOM     32  O   UNL     1      36.867 -22.964 -14.897  0.00  0.00    -0.468 OA
ATOM     33  C   UNL     1      37.850 -23.995 -14.958  0.00  0.00    +0.253 C 
ENDBRANCH  30  32
BRANCH  31  34
ATOM     34  O   UNL     1      34.296 -24.019 -14.981  0.00  0.00    -0.468 OA
ATOM     35  C   UNL     1      32.952 -23.740 -14.594  0.00  0.00    +0.253 C 
ENDBRANCH  31  34
ENDBRANCH  19  21
ENDBRANCH   1  19
TORSDOF 10
ENDMDL
MODEL 2
REMARK VINA RESULT:     -10.6      1.752      3.030
REMARK  Name = 132999
REMARK  10 active torsions:
REMARK  status: ('A' for Active; 'I' for Inactive)
REMARK    1  A    between atoms: C_1  and  C_2
REMARK    2  A    between atoms: C_1  and  C_19
REMARK    3  A    between atoms: C_2  and  N_3
REMARK    4  A    between atoms: N_3  and  C_6
REMARK    5  A    between atoms: C_6  and  C_7
REMARK    6  A    between atoms: C_13  and  O_15
REMARK    7  A    between atoms: C_14  and  O_17
REMARK    8  A    between atoms: C_19  and  N_21
REMARK    9  A    between atoms: C_30  and  O_32
REMARK   10  A    between atoms: C_31  and  O_34
REMARK                            x       y       z     vdW  Elec       q    Type
REMARK                         _______ _______ _______ _____ _____    ______ ____
ROOT
ATOM      1  C   UNL     1      34.935 -15.859 -23.022  0.00  0.00    -0.001 C 
ENDROOT
BRANCH   1   2
ATOM      2  C   UNL     1      33.626 -15.383 -23.658  0.00  0.00    -0.076 C 
BRANCH   2   3
ATOM      3  N   UNL     1      33.838 -14.826 -24.988  0.00  0.00    +0.386 N 
ATOM      4  C   UNL     1      33.296 -15.719 -26.014  0.00  0.00    -0.101 C 
ATOM      5  H   UNL     1      34.843 -14.732 -25.138  0.00  0.00    -0.080 HD
BRANCH   3   6
ATOM      6  C   UNL     1      33.226 -13.500 -25.097  0.00  0.00    -0.073 C 
BRANCH   6   7
ATOM      7  C   UNL     1      33.994 -12.478 -24.272  0.00  0.00    +0.006 C 
ATOM      8  C   UNL     1      34.299 -11.130 -25.007  0.00  0.00    +0.028 C 
ATOM      9  C   UNL     1      33.110 -11.674 -23.366  0.00  0.00    -0.025 C 
ATOM     10  C   UNL     1      33.376 -10.491 -24.011  0.00  0.00    -0.023 C 
ATOM     11  C   UNL     1      32.263 -11.741 -22.285  0.00  0.00    +0.035 C 
ATOM     12  C   UNL     1      32.815  -9.300 -23.615  0.00  0.00    +0.035 C 
ATOM     13  C   UNL     1      31.676 -10.548 -21.857  0.00  0.00    +0.172 C 
ATOM     14  C   UNL     1      31.950  -9.334 -22.519  0.00  0.00    +0.172 C 
BRANCH  13  15
ATOM     15  O   UNL     1      30.831 -10.568 -20.788  0.00  0.00    -0.468 OA
ATOM     16  C   UNL     1      31.426 -10.538 -19.492  0.00  0.00    +0.253 C 
ENDBRANCH  13  15
BRANCH  14  17
ATOM     17  O   UNL     1      31.370  -8.176 -22.091  0.00  0.00    -0.468 OA
ATOM     18  C   UNL     1      32.183  -7.294 -21.319  0.00  0.00    +0.253 C 
ENDBRANCH  14  17
ENDBRANCH   6   7
ENDBRANCH   3   6
ENDBRANCH   2   3
ENDBRANCH   1   2
BRANCH   1  19
ATOM     19  C   UNL     1      34.777 -16.459 -21.627  0.00  0.00    +0.091 C 
BRANCH  19  21
ATOM     20  O   UNL     1      32.535 -17.944 -20.705  0.00  0.00    -0.275 OA
ATOM     21  N   UNL     1      34.658 -17.910 -21.652  0.00  0.00    -0.279 N 
ATOM     22  C   UNL     1      35.823 -18.667 -22.102  0.00  0.00    +0.098 C 
ATOM     23  C   UNL     1      36.566 -19.300 -20.929  0.00  0.00    +0.048 C 
ATOM     24  C   UNL     1      33.517 -18.535 -21.158  0.00  0.00    +0.230 C 
ATOM     25  C   UNL     1      35.842 -20.342 -20.099  0.00  0.00    -0.021 C 
ATOM     26  C   UNL     1      33.537 -20.048 -21.207  0.00  0.00    +0.111 C 
ATOM     27  C   UNL     1      34.474 -20.668 -20.199  0.00  0.00    -0.014 C 
ATOM     28  C   UNL     1      36.626 -21.003 -19.129  0.00  0.00    +0.036 C 
ATOM     29  C   UNL     1      33.944 -21.656 -19.345  0.00  0.00    +0.036 C 
ATOM     30  C   UNL     1      36.081 -21.973 -18.288  0.00  0.00    +0.172 C 
ATOM     31  C   UNL     1      34.738 -22.301 -18.398  0.00  0.00    +0.172 C 
BRANCH  30  32
ATOM     32  O   UNL     1      36.876 -22.586 -17.368  0.00  0.00    -0.468 OA
ATOM     33  C   UNL     1      37.260 -21.819 -16.228  0.00  0.00    +0.253 C 
ENDBRANCH  30  32
BRANCH  31  34
ATOM     34  O   UNL     1      34.186 -23.249 -17.590  0.00  0.00    -0.468 OA
ATOM     35  C   UNL     1      32.811 -23.086 -17.246  0.00  0.00    +0.253 C 
ENDBRANCH  31  34
ENDBRANCH  19  21
ENDBRANCH   1  19
TORSDOF 10
ENDMDL
MODEL 3
REMARK VINA RESULT:     -10.4      1.615      2.461
REMARK  Name = 132999
REMARK  10 active torsions:
REMARK  status: ('A' for Active; 'I' for Inactive)
REMARK    1  A    between atoms: C_1  and  C_2
REMARK    2  A    between atoms: C_1  and  C_19
REMARK    3  A    between atoms: C_2  and  N_3
REMARK    4  A    between atoms: N_3  and  C_6
REMARK    5  A    between atoms: C_6  and  C_7
REMARK    6  A    between atoms: C_13  and  O_15
REMARK    7  A    between atoms: C_14  and  O_17
REMARK    8  A    between atoms: C_19  and  N_21
REMARK    9  A    between atoms: C_30  and  O_32
REMARK   10  A    between atoms: C_31  and  O_34
REMARK                            x       y       z     vdW  Elec       q    Type
REMARK                         _______ _______ _______ _____ _____    ______ ____
ROOT
ATOM      1  C   UNL     1      35.001 -16.193 -22.774  0.00  0.00    -0.001 C 
ENDROOT
BRANCH   1   2
ATOM      2  C   UNL     1      33.845 -15.762 -23.680  0.00  0.00    -0.076 C 
BRANCH   2   3
ATOM      3  N   UNL     1      34.056 -14.431 -24.237  0.00  0.00    +0.386 N 
ATOM      4  C   UNL     1      33.102 -14.166 -25.316  0.00  0.00    -0.101 C 
ATOM      5  H   UNL     1      35.000 -14.393 -24.622  0.00  0.00    -0.080 HD
BRANCH   3   6
ATOM      6  C   UNL     1      33.938 -13.411 -23.193  0.00  0.00    -0.073 C 
BRANCH   6   7
ATOM      7  C   UNL     1      32.573 -12.741 -23.241  0.00  0.00    +0.006 C 
ATOM      8  C   UNL     1      31.822 -12.671 -21.869  0.00  0.00    +0.028 C 
ATOM      9  C   UNL     1      32.652 -11.245 -23.165  0.00  0.00    -0.025 C 
ATOM     10  C   UNL     1      31.994 -11.183 -21.961  0.00  0.00    -0.023 C 
ATOM     11  C   UNL     1      33.100 -10.118 -23.812  0.00  0.00    +0.035 C 
ATOM     12  C   UNL     1      31.743  -9.990 -21.326  0.00  0.00    +0.035 C 
ATOM     13  C   UNL     1      32.861  -8.888 -23.192  0.00  0.00    +0.172 C 
ATOM     14  C   UNL     1      32.186  -8.825 -21.957  0.00  0.00    +0.172 C 
BRANCH  13  15
ATOM     15  O   UNL     1      33.287  -7.744 -23.798  0.00  0.00    -0.468 OA
ATOM     16  C   UNL     1      34.677  -7.438 -23.698  0.00  0.00    +0.253 C 
ENDBRANCH  13  15
BRANCH  14  17
ATOM     17  O   UNL     1      31.958  -7.618 -21.363  0.00  0.00    -0.468 OA
ATOM     18  C   UNL     1      32.445  -7.451 -20.034  0.00  0.00    +0.253 C 
ENDBRANCH  14  17
ENDBRANCH   6   7
ENDBRANCH   3   6
ENDBRANCH   2   3
ENDBRANCH   1   2
BRANCH   1  19
ATOM     19  C   UNL     1      34.566 -16.754 -21.421  0.00  0.00    +0.091 C 
BRANCH  19  21
ATOM     20  O   UNL     1      32.279 -18.196 -20.544  0.00  0.00    -0.275 OA
ATOM     21  N   UNL     1      34.425 -18.203 -21.437  0.00  0.00    -0.279 N 
ATOM     22  C   UNL     1      35.589 -18.983 -21.850  0.00  0.00    +0.098 C 
ATOM     23  C   UNL     1      36.292 -19.616 -20.652  0.00  0.00    +0.048 C 
ATOM     24  C   UNL     1      33.263 -18.807 -20.966  0.00  0.00    +0.230 C 
ATOM     25  C   UNL     1      35.532 -20.638 -19.831  0.00  0.00    -0.021 C 
ATOM     26  C   UNL     1      33.261 -20.319 -21.000  0.00  0.00    +0.111 C 
ATOM     27  C   UNL     1      34.162 -20.944 -19.964  0.00  0.00    -0.014 C 
ATOM     28  C   UNL     1      36.280 -21.302 -18.836  0.00  0.00    +0.036 C 
ATOM     29  C   UNL     1      33.595 -21.916 -19.115  0.00  0.00    +0.036 C 
ATOM     30  C   UNL     1      35.699 -22.255 -18.001  0.00  0.00    +0.172 C 
ATOM     31  C   UNL     1      34.355 -22.564 -18.141  0.00  0.00    +0.172 C 
BRANCH  30  32
ATOM     32  O   UNL     1      36.461 -22.872 -17.054  0.00  0.00    -0.468 OA
ATOM     33  C   UNL     1      37.265 -22.037 -16.223  0.00  0.00    +0.253 C 
ENDBRANCH  30  32
BRANCH  31  34
ATOM     34  O   UNL     1      33.767 -23.495 -17.340  0.00  0.00    -0.468 OA
ATOM     35  C   UNL     1      32.494 -23.165 -16.787  0.00  0.00    +0.253 C 
ENDBRANCH  31  34
ENDBRANCH  19  21
ENDBRANCH   1  19
TORSDOF 10
ENDMDL
MODEL 4
REMARK VINA RESULT:     -10.1      2.070      4.225
REMARK  Name = 132999
REMARK  10 active torsions:
REMARK  status: ('A' for Active; 'I' for Inactive)
REMARK    1  A    between atoms: C_1  and  C_2
REMARK    2  A    between atoms: C_1  and  C_19
REMARK    3  A    between atoms: C_2  and  N_3
REMARK    4  A    between atoms: N_3  and  C_6
REMARK    5  A    between atoms: C_6  and  C_7
REMARK    6  A    between atoms: C_13  and  O_15
REMARK    7  A    between atoms: C_14  and  O_17
REMARK    8  A    between atoms: C_19  and  N_21
REMARK    9  A    between atoms: C_30  and  O_32
REMARK   10  A    between atoms: C_31  and  O_34
REMARK                            x       y       z     vdW  Elec       q    Type
REMARK                         _______ _______ _______ _____ _____    ______ ____
ROOT
ATOM      1  C   UNL     1      33.653 -21.045 -19.921  0.00  0.00    -0.001 C 
ENDROOT
BRANCH   1   2
ATOM      2  C   UNL     1      34.529 -20.448 -21.025  0.00  0.00    -0.076 C 
BRANCH   2   3
ATOM      3  N   UNL     1      35.009 -19.116 -20.678  0.00  0.00    +0.386 N 
ATOM      4  C   UNL     1      36.438 -18.989 -20.972  0.00  0.00    -0.101 C 
ATOM      5  H   UNL     1      34.871 -18.978 -19.677  0.00  0.00    -0.080 HD
BRANCH   3   6
ATOM      6  C   UNL     1      34.251 -18.090 -21.398  0.00  0.00    -0.073 C 
BRANCH   6   7
ATOM      7  C   UNL     1      35.107 -17.436 -22.472  0.00  0.00    +0.006 C 
ATOM      8  C   UNL     1      34.862 -17.965 -23.925  0.00  0.00    +0.028 C 
ATOM      9  C   UNL     1      34.545 -16.133 -22.955  0.00  0.00    -0.025 C 
ATOM     10  C   UNL     1      34.328 -16.597 -24.230  0.00  0.00    -0.023 C 
ATOM     11  C   UNL     1      34.232 -14.846 -22.583  0.00  0.00    +0.035 C 
ATOM     12  C   UNL     1      33.786 -15.804 -25.214  0.00  0.00    +0.035 C 
ATOM     13  C   UNL     1      33.679 -14.015 -23.560  0.00  0.00    +0.172 C 
ATOM     14  C   UNL     1      33.458 -14.491 -24.868  0.00  0.00    +0.172 C 
BRANCH  13  15
ATOM     15  O   UNL     1      33.354 -12.732 -23.236  0.00  0.00    -0.468 OA
ATOM     16  C   UNL     1      32.198 -12.542 -22.422  0.00  0.00    +0.253 C 
ENDBRANCH  13  15
BRANCH  14  17
ATOM     17  O   UNL     1      32.918 -13.669 -25.813  0.00  0.00    -0.468 OA
ATOM     18  C   UNL     1      33.457 -13.757 -27.130  0.00  0.00    +0.253 C 
ENDBRANCH  14  17
ENDBRANCH   6   7
ENDBRANCH   3   6
ENDBRANCH   2   3
ENDBRANCH   1   2
BRANCH   1  19
ATOM     19  C   UNL     1      34.174 -22.359 -19.343  0.00  0.00    +0.091 C 
BRANCH  19  21
ATOM     20  O   UNL     1      36.916 -21.716 -18.958  0.00  0.00    -0.275 OA
ATOM     21  N   UNL     1      34.826 -22.182 -18.053  0.00  0.00    -0.279 N 
ATOM     22  C   UNL     1      34.027 -22.447 -16.859  0.00  0.00    +0.098 C 
ATOM     23  C   UNL     1      34.385 -23.792 -16.234  0.00  0.00    +0.048 C 
ATOM     24  C   UNL     1      36.184 -21.883 -17.981  0.00  0.00    +0.230 C 
ATOM     25  C   UNL     1      35.789 -23.983 -15.696  0.00  0.00    -0.021 C 
ATOM     26  C   UNL     1      36.745 -21.764 -16.581  0.00  0.00    +0.111 C 
ATOM     27  C   UNL     1      36.864 -23.088 -15.868  0.00  0.00    -0.014 C 
ATOM     28  C   UNL     1      36.015 -25.186 -14.992  0.00  0.00    +0.036 C 
ATOM     29  C   UNL     1      38.118 -23.414 -15.312  0.00  0.00    +0.036 C 
ATOM     30  C   UNL     1      37.265 -25.494 -14.458  0.00  0.00    +0.172 C 
ATOM     31  C   UNL     1      38.318 -24.606 -14.616  0.00  0.00    +0.172 C 
BRANCH  30  32
ATOM     32  O   UNL     1      37.437 -26.666 -13.785  0.00  0.00    -0.468 OA
ATOM     33  C   UNL     1      37.226 -26.642 -12.375  0.00  0.00    +0.253 C 
ENDBRANCH  30  32
BRANCH  31  34
ATOM     34  O   UNL     1      39.547 -24.883 -14.098  0.00  0.00    -0.468 OA
ATOM     35  C   UNL     1      40.478 -25.543 -14.954  0.00  0.00    +0.253 C 
ENDBRANCH  31  34
ENDBRANCH  19  21
ENDBRANCH   1  19
TORSDOF 10
ENDMDL
MODEL 5
REMARK VINA RESULT:     -10.0      1.661     11.329
REMARK  Name = 132999
REMARK  10 active torsions:
REMARK  status: ('A' for Active; 'I' for Inactive)
REMARK    1  A    between atoms: C_1  and  C_2
REMARK    2  A    between atoms: C_1  and  C_19
REMARK    3  A    between atoms: C_2  and  N_3
REMARK    4  A    between atoms: N_3  and  C_6
REMARK    5  A    between atoms: C_6  and  C_7
REMARK    6  A    between atoms: C_13  and  O_15
REMARK    7  A    between atoms: C_14  and  O_17
REMARK    8  A    between atoms: C_19  and  N_21
REMARK    9  A    between atoms: C_30  and  O_32
REMARK   10  A    between atoms: C_31  and  O_34
REMARK                            x       y       z     vdW  Elec       q    Type
REMARK                         _______ _______ _______ _____ _____    ______ ____
ROOT
ATOM      1  C   UNL     1      35.340 -17.596 -22.221  0.00  0.00    -0.001 C 
ENDROOT
BRANCH   1   2
ATOM      2  C   UNL     1      34.571 -18.899 -21.987  0.00  0.00    -0.076 C 
BRANCH   2   3
ATOM      3  N   UNL     1      35.385 -19.896 -21.303  0.00  0.00    +0.386 N 
ATOM      4  C   UNL     1      36.691 -19.339 -20.943  0.00  0.00    -0.101 C 
ATOM      5  H   UNL     1      35.532 -20.679 -21.941  0.00  0.00    -0.080 HD
BRANCH   3   6
ATOM      6  C   UNL     1      34.700 -20.392 -20.108  0.00  0.00    -0.073 C 
BRANCH   6   7
ATOM      7  C   UNL     1      35.282 -21.725 -19.662  0.00  0.00    +0.006 C 
ATOM      8  C   UNL     1      36.510 -21.620 -18.697  0.00  0.00    +0.028 C 
ATOM      9  C   UNL     1      34.545 -22.326 -18.502  0.00  0.00    -0.025 C 
ATOM     10  C   UNL     1      35.622 -22.234 -17.655  0.00  0.00    -0.023 C 
ATOM     11  C   UNL     1      33.339 -22.847 -18.096  0.00  0.00    +0.035 C 
ATOM     12  C   UNL     1      35.562 -22.657 -16.348  0.00  0.00    +0.035 C 
ATOM     13  C   UNL     1      33.245 -23.286 -16.773  0.00  0.00    +0.172 C 
ATOM     14  C   UNL     1      34.351 -23.191 -15.904  0.00  0.00    +0.172 C 
BRANCH  13  15
ATOM     15  O   UNL     1      32.069 -23.810 -16.328  0.00  0.00    -0.468 OA
ATOM     16  C   UNL     1      30.929 -22.952 -16.345  0.00  0.00    +0.253 C 
ENDBRANCH  13  15
BRANCH  14  17
ATOM     17  O   UNL     1      34.246 -23.623 -14.615  0.00  0.00    -0.468 OA
ATOM     18  C   UNL     1      35.464 -23.861 -13.913  0.00  0.00    +0.253 C 
ENDBRANCH  14  17
ENDBRANCH   6   7
ENDBRANCH   3   6
ENDBRANCH   2   3
ENDBRANCH   1   2
BRANCH   1  19
ATOM     19  C   UNL     1      34.938 -16.451 -21.294  0.00  0.00    +0.091 C 
BRANCH  19  21
ATOM     20  O   UNL     1      34.884 -14.826 -23.625  0.00  0.00    -0.275 OA
ATOM     21  N   UNL     1      33.780 -15.717 -21.783  0.00  0.00    -0.279 N 
ATOM     22  C   UNL     1      32.575 -15.743 -20.958  0.00  0.00    +0.098 C 
ATOM     23  C   UNL     1      32.392 -14.434 -20.194  0.00  0.00    +0.048 C 
ATOM     24  C   UNL     1      33.872 -14.935 -22.931  0.00  0.00    +0.230 C 
ATOM     25  C   UNL     1      32.174 -13.163 -20.990  0.00  0.00    -0.021 C 
ATOM     26  C   UNL     1      32.608 -14.192 -23.309  0.00  0.00    +0.111 C 
ATOM     27  C   UNL     1      32.294 -13.038 -22.389  0.00  0.00    -0.014 C 
ATOM     28  C   UNL     1      31.856 -12.015 -20.233  0.00  0.00    +0.036 C 
ATOM     29  C   UNL     1      32.069 -11.779 -22.983  0.00  0.00    +0.036 C 
ATOM     30  C   UNL     1      31.646 -10.777 -20.838  0.00  0.00    +0.172 C 
ATOM     31  C   UNL     1      31.750 -10.659 -22.216  0.00  0.00    +0.172 C 
BRANCH  30  32
ATOM     32  O   UNL     1      31.340  -9.696 -20.068  0.00  0.00    -0.468 OA
ATOM     33  C   UNL     1      32.374  -8.738 -19.852  0.00  0.00    +0.253 C 
ENDBRANCH  30  32
BRANCH  31  34
ATOM     34  O   UNL     1      31.544  -9.461 -22.830  0.00  0.00    -0.468 OA
ATOM     35  C   UNL     1      32.615  -8.943 -23.618  0.00  0.00    +0.253 C 
ENDBRANCH  31  34
ENDBRANCH  19  21
ENDBRANCH   1  19
TORSDOF 10
ENDMDL
MODEL 6
REMARK VINA RESULT:      -9.9      1.128      1.966
REMARK  Name = 132999
REMARK  10 active torsions:
REMARK  status: ('A' for Active; 'I' for Inactive)
REMARK    1  A    between atoms: C_1  and  C_2
REMARK    2  A    between atoms: C_1  and  C_19
REMARK    3  A    between atoms: C_2  and  N_3
REMARK    4  A    between atoms: N_3  and  C_6
REMARK    5  A    between atoms: C_6  and  C_7
REMARK    6  A    between atoms: C_13  and  O_15
REMARK    7  A    between atoms: C_14  and  O_17
REMARK    8  A    between atoms: C_19  and  N_21
REMARK    9  A    between atoms: C_30  and  O_32
REMARK   10  A    between atoms: C_31  and  O_34
REMARK                            x       y       z     vdW  Elec       q    Type
REMARK                         _______ _______ _______ _____ _____    ______ ____
ROOT
ATOM      1  C   UNL     1      34.581 -19.070 -22.264  0.00  0.00    -0.001 C 
ENDROOT
BRANCH   1   2
ATOM      2  C   UNL     1      34.742 -17.645 -22.800  0.00  0.00    -0.076 C 
BRANCH   2   3
ATOM      3  N   UNL     1      33.990 -16.678 -22.010  0.00  0.00    +0.386 N 
ATOM      4  C   UNL     1      34.852 -16.051 -21.005  0.00  0.00    -0.101 C 
ATOM      5  H   UNL     1      33.240 -17.174 -21.529  0.00  0.00    -0.080 HD
BRANCH   3   6
ATOM      6  C   UNL     1      33.394 -15.656 -22.873  0.00  0.00    -0.073 C 
BRANCH   6   7
ATOM      7  C   UNL     1      34.057 -14.305 -22.653  0.00  0.00    +0.006 C 
ATOM      8  C   UNL     1      34.221 -13.431 -23.941  0.00  0.00    +0.028 C 
ATOM      9  C   UNL     1      33.098 -13.254 -22.178  0.00  0.00    -0.025 C 
ATOM     10  C   UNL     1      33.241 -12.487 -23.309  0.00  0.00    -0.023 C 
ATOM     11  C   UNL     1      32.267 -12.886 -21.146  0.00  0.00    +0.035 C 
ATOM     12  C   UNL     1      32.562 -11.304 -23.479  0.00  0.00    +0.035 C 
ATOM     13  C   UNL     1      31.563 -11.688 -21.289  0.00  0.00    +0.172 C 
ATOM     14  C   UNL     1      31.710 -10.901 -22.449  0.00  0.00    +0.172 C 
BRANCH  13  15
ATOM     15  O   UNL     1      30.728 -11.284 -20.290  0.00  0.00    -0.468 OA
ATOM     16  C   UNL     1      31.335 -10.750 -19.115  0.00  0.00    +0.253 C 
ENDBRANCH  13  15
BRANCH  14  17
ATOM     17  O   UNL     1      31.016  -9.734 -22.576  0.00  0.00    -0.468 OA
ATOM     18  C   UNL     1      31.739  -8.526 -22.347  0.00  0.00    +0.253 C 
ENDBRANCH  14  17
ENDBRANCH   6   7
ENDBRANCH   3   6
ENDBRANCH   2   3
ENDBRANCH   1   2
BRANCH   1  19
ATOM     19  C   UNL     1      34.541 -19.169 -20.741  0.00  0.00    +0.091 C 
BRANCH  19  21
ATOM     20  O   UNL     1      32.381 -20.600 -19.571  0.00  0.00    -0.275 OA
ATOM     21  N   UNL     1      34.598 -20.546 -20.269  0.00  0.00    -0.279 N 
ATOM     22  C   UNL     1      35.896 -21.215 -20.316  0.00  0.00    +0.098 C 
ATOM     23  C   UNL     1      36.534 -21.296 -18.932  0.00  0.00    +0.048 C 
ATOM     24  C   UNL     1      33.480 -21.144 -19.696  0.00  0.00    +0.230 C 
ATOM     25  C   UNL     1      35.827 -22.103 -17.862  0.00  0.00    -0.021 C 
ATOM     26  C   UNL     1      33.684 -22.563 -19.212  0.00  0.00    +0.111 C 
ATOM     27  C   UNL     1      34.534 -22.657 -17.969  0.00  0.00    -0.014 C 
ATOM     28  C   UNL     1      36.537 -22.272 -16.654  0.00  0.00    +0.036 C 
ATOM     29  C   UNL     1      34.009 -23.376 -16.877  0.00  0.00    +0.036 C 
ATOM     30  C   UNL     1      35.996 -22.980 -15.582  0.00  0.00    +0.172 C 
ATOM     31  C   UNL     1      34.730 -23.535 -15.694  0.00  0.00    +0.172 C 
BRANCH  30  32
ATOM     32  O   UNL     1      36.719 -23.118 -14.436  0.00  0.00    -0.468 OA
ATOM     33  C   UNL     1      37.686 -24.166 -14.400  0.00  0.00    +0.253 C 
ENDBRANCH  30  32
BRANCH  31  34
ATOM     34  O   UNL     1      34.183 -24.235 -14.662  0.00  0.00    -0.468 OA
ATOM     35  C   UNL     1      32.856 -23.887 -14.273  0.00  0.00    +0.253 C 
ENDBRANCH  31  34
ENDBRANCH  19  21
ENDBRANCH   1  19
TORSDOF 10
ENDMDL
MODEL 7
REMARK VINA RESULT:      -9.9      1.599      2.145
REMARK  Name = 132999
REMARK  10 active torsions:
REMARK  status: ('A' for Active; 'I' for Inactive)
REMARK    1  A    between atoms: C_1  and  C_2
REMARK    2  A    between atoms: C_1  and  C_19
REMARK    3  A    between atoms: C_2  and  N_3
REMARK    4  A    between atoms: N_3  and  C_6
REMARK    5  A    between atoms: C_6  and  C_7
REMARK    6  A    between atoms: C_13  and  O_15
REMARK    7  A    between atoms: C_14  and  O_17
REMARK    8  A    between atoms: C_19  and  N_21
REMARK    9  A    between atoms: C_30  and  O_32
REMARK   10  A    between atoms: C_31  and  O_34
REMARK                            x       y       z     vdW  Elec       q    Type
REMARK                         _______ _______ _______ _____ _____    ______ ____
ROOT
ATOM      1  C   UNL     1      34.061 -20.157 -20.837  0.00  0.00    -0.001 C 
ENDROOT
BRANCH   1   2
ATOM      2  C   UNL     1      33.913 -18.687 -21.240  0.00  0.00    -0.076 C 
BRANCH   2   3
ATOM      3  N   UNL     1      35.137 -17.932 -21.006  0.00  0.00    +0.386 N 
ATOM      4  C   UNL     1      36.056 -18.075 -22.138  0.00  0.00    -0.101 C 
ATOM      5  H   UNL     1      35.589 -18.308 -20.173  0.00  0.00    -0.080 HD
BRANCH   3   6
ATOM      6  C   UNL     1      34.836 -16.518 -20.774  0.00  0.00    -0.073 C 
BRANCH   6   7
ATOM      7  C   UNL     1      33.427 -16.180 -21.237  0.00  0.00    +0.006 C 
ATOM      8  C   UNL     1      32.590 -15.319 -20.233  0.00  0.00    +0.028 C 
ATOM      9  C   UNL     1      33.380 -14.990 -22.148  0.00  0.00    -0.025 C 
ATOM     10  C   UNL     1      32.646 -14.233 -21.267  0.00  0.00    -0.023 C 
ATOM     11  C   UNL     1      33.775 -14.506 -23.373  0.00  0.00    +0.035 C 
ATOM     12  C   UNL     1      32.260 -12.945 -21.555  0.00  0.00    +0.035 C 
ATOM     13  C   UNL     1      33.398 -13.199 -23.696  0.00  0.00    +0.172 C 
ATOM     14  C   UNL     1      32.645 -12.424 -22.792  0.00  0.00    +0.172 C 
BRANCH  13  15
ATOM     15  O   UNL     1      33.768 -12.679 -24.900  0.00  0.00    -0.468 OA
ATOM     16  C   UNL     1      33.263 -13.327 -26.067  0.00  0.00    +0.253 C 
ENDBRANCH  13  15
BRANCH  14  17
ATOM     17  O   UNL     1      32.284 -11.150 -23.119  0.00  0.00    -0.468 OA
ATOM     18  C   UNL     1      31.650 -10.377 -22.103  0.00  0.00    +0.253 C 
ENDBRANCH  14  17
ENDBRANCH   6   7
ENDBRANCH   3   6
ENDBRANCH   2   3
ENDBRANCH   1   2
BRANCH   1  19
ATOM     19  C   UNL     1      33.247 -20.559 -19.610  0.00  0.00    +0.091 C 
BRANCH  19  21
ATOM     20  O   UNL     1      31.767 -22.156 -17.782  0.00  0.00    -0.275 OA
ATOM     21  N   UNL     1      33.702 -21.813 -19.025  0.00  0.00    -0.279 N 
ATOM     22  C   UNL     1      35.065 -22.237 -19.330  0.00  0.00    +0.098 C 
ATOM     23  C   UNL     1      36.006 -21.986 -18.154  0.00  0.00    +0.048 C 
ATOM     24  C   UNL     1      32.898 -22.506 -18.124  0.00  0.00    +0.230 C 
ATOM     25  C   UNL     1      35.750 -22.732 -16.859  0.00  0.00    -0.021 C 
ATOM     26  C   UNL     1      33.503 -23.773 -17.560  0.00  0.00    +0.111 C 
ATOM     27  C   UNL     1      34.616 -23.518 -16.573  0.00  0.00    -0.014 C 
ATOM     28  C   UNL     1      36.737 -22.580 -15.862  0.00  0.00    +0.036 C 
ATOM     29  C   UNL     1      34.519 -24.142 -15.313  0.00  0.00    +0.036 C 
ATOM     30  C   UNL     1      36.619 -23.199 -14.619  0.00  0.00    +0.172 C 
ATOM     31  C   UNL     1      35.509 -23.983 -14.344  0.00  0.00    +0.172 C 
BRANCH  30  32
ATOM     32  O   UNL     1      37.598 -23.025 -13.687  0.00  0.00    -0.468 OA
ATOM     33  C   UNL     1      38.510 -24.104 -13.495  0.00  0.00    +0.253 C 
ENDBRANCH  30  32
BRANCH  31  34
ATOM     34  O   UNL     1      35.375 -24.601 -13.138  0.00  0.00    -0.468 OA
ATOM     35  C   UNL     1      35.150 -23.767 -12.003  0.00  0.00    +0.253 C 
ENDBRANCH  31  34
ENDBRANCH  19  21
ENDBRANCH   1  19
TORSDOF 10
ENDMDL
MODEL 8
REMARK VINA RESULT:      -9.9      4.184     13.853
REMARK  Name = 132999
REMARK  10 active torsions:
REMARK  status: ('A' for Active; 'I' for Inactive)
REMARK    1  A    between atoms: C_1  and  C_2
REMARK    2  A    between atoms: C_1  and  C_19
REMARK    3  A    between atoms: C_2  and  N_3
REMARK    4  A    between atoms: N_3  and  C_6
REMARK    5  A    between atoms: C_6  and  C_7
REMARK    6  A    between atoms: C_13  and  O_15
REMARK    7  A    between atoms: C_14  and  O_17
REMARK    8  A    between atoms: C_19  and  N_21
REMARK    9  A    between atoms: C_30  and  O_32
REMARK   10  A    between atoms: C_31  and  O_34
REMARK                            x       y       z     vdW  Elec       q    Type
REMARK                         _______ _______ _______ _____ _____    ______ ____
ROOT
ATOM      1  C   UNL     1      33.236 -10.564 -24.095  0.00  0.00    -0.001 C 
ENDROOT
BRANCH   1   2
ATOM      2  C   UNL     1      33.827 -11.953 -23.843  0.00  0.00    -0.076 C 
BRANCH   2   3
ATOM      3  N   UNL     1      32.854 -13.011 -24.086  0.00  0.00    +0.386 N 
ATOM      4  C   UNL     1      33.183 -13.745 -25.309  0.00  0.00    -0.101 C 
ATOM      5  H   UNL     1      31.937 -12.580 -24.204  0.00  0.00    -0.080 HD
BRANCH   3   6
ATOM      6  C   UNL     1      32.793 -13.928 -22.946  0.00  0.00    -0.073 C 
BRANCH   6   7
ATOM      7  C   UNL     1      34.184 -14.205 -22.397  0.00  0.00    +0.006 C 
ATOM      8  C   UNL     1      34.240 -14.521 -20.864  0.00  0.00    +0.028 C 
ATOM      9  C   UNL     1      34.625 -15.623 -22.607  0.00  0.00    -0.025 C 
ATOM     10  C   UNL     1      34.672 -15.901 -21.262  0.00  0.00    -0.023 C 
ATOM     11  C   UNL     1      34.938 -16.565 -23.559  0.00  0.00    +0.035 C 
ATOM     12  C   UNL     1      35.037 -17.137 -20.784  0.00  0.00    +0.035 C 
ATOM     13  C   UNL     1      35.312 -17.833 -23.105  0.00  0.00    +0.172 C 
ATOM     14  C   UNL     1      35.361 -18.117 -21.725  0.00  0.00    +0.172 C 
BRANCH  13  15
ATOM     15  O   UNL     1      35.632 -18.797 -24.014  0.00  0.00    -0.468 OA
ATOM     16  C   UNL     1      34.552 -19.396 -24.729  0.00  0.00    +0.253 C 
ENDBRANCH  13  15
BRANCH  14  17
ATOM     17  O   UNL     1      35.729 -19.358 -21.296  0.00  0.00    -0.468 OA
ATOM     18  C   UNL     1      34.735 -20.129 -20.624  0.00  0.00    +0.253 C 
ENDBRANCH  14  17
ENDBRANCH   6   7
ENDBRANCH   3   6
ENDBRANCH   2   3
ENDBRANCH   1   2
BRANCH   1  19
ATOM     19  C   UNL     1      32.697  -9.871 -22.846  0.00  0.00    +0.091 C 
BRANCH  19  21
ATOM     20  O   UNL     1      30.507  -8.208 -23.564  0.00  0.00    -0.275 OA
ATOM     21  N   UNL     1      32.739  -8.419 -22.950  0.00  0.00    -0.279 N 
ATOM     22  C   UNL     1      34.035  -7.773 -22.761  0.00  0.00    +0.098 C 
ATOM     23  C   UNL     1      34.641  -7.335 -24.091  0.00  0.00    +0.048 C 
ATOM     24  C   UNL     1      31.606  -7.704 -23.327  0.00  0.00    +0.230 C 
ATOM     25  C   UNL     1      33.908  -6.287 -24.904  0.00  0.00    -0.021 C 
ATOM     26  C   UNL     1      31.795  -6.206 -23.436  0.00  0.00    +0.111 C 
ATOM     27  C   UNL     1      32.616  -5.790 -24.632  0.00  0.00    -0.014 C 
ATOM     28  C   UNL     1      34.590  -5.809 -26.043  0.00  0.00    +0.036 C 
ATOM     29  C   UNL     1      32.064  -4.820 -25.491  0.00  0.00    +0.036 C 
ATOM     30  C   UNL     1      34.022  -4.854 -26.886  0.00  0.00    +0.172 C 
ATOM     31  C   UNL     1      32.758  -4.357 -26.609  0.00  0.00    +0.172 C 
BRANCH  30  32
ATOM     32  O   UNL     1      34.719  -4.421 -27.974  0.00  0.00    -0.468 OA
ATOM     33  C   UNL     1      36.137  -4.348 -27.850  0.00  0.00    +0.253 C 
ENDBRANCH  30  32
BRANCH  31  34
ATOM     34  O   UNL     1      32.186  -3.421 -27.416  0.00  0.00    -0.468 OA
ATOM     35  C   UNL     1      31.520  -2.333 -26.776  0.00  0.00    +0.253 C 
ENDBRANCH  31  34
ENDBRANCH  19  21
ENDBRANCH   1  19
TORSDOF 10
ENDMDL
MODEL 9
REMARK VINA RESULT:      -9.8      1.848     11.212
REMARK  Name = 132999
REMARK  10 active torsions:
REMARK  status: ('A' for Active; 'I' for Inactive)
REMARK    1  A    between atoms: C_1  and  C_2
REMARK    2  A    between atoms: C_1  and  C_19
REMARK    3  A    between atoms: C_2  and  N_3
REMARK    4  A    between atoms: N_3  and  C_6
REMARK    5  A    between atoms: C_6  and  C_7
REMARK    6  A    between atoms: C_13  and  O_15
REMARK    7  A    between atoms: C_14  and  O_17
REMARK    8  A    between atoms: C_19  and  N_21
REMARK    9  A    between atoms: C_30  and  O_32
REMARK   10  A    between atoms: C_31  and  O_34
REMARK                            x       y       z     vdW  Elec       q    Type
REMARK                         _______ _______ _______ _____ _____    ______ ____
ROOT
ATOM      1  C   UNL     1      34.543 -16.639 -21.225  0.00  0.00    -0.001 C 
ENDROOT
BRANCH   1   2
ATOM      2  C   UNL     1      35.227 -17.112 -22.511  0.00  0.00    -0.076 C 
BRANCH   2   3
ATOM      3  N   UNL     1      34.454 -18.145 -23.190  0.00  0.00    +0.386 N 
ATOM      4  C   UNL     1      34.906 -18.302 -24.574  0.00  0.00    -0.101 C 
ATOM      5  H   UNL     1      33.476 -17.856 -23.200  0.00  0.00    -0.080 HD
BRANCH   3   6
ATOM      6  C   UNL     1      34.556 -19.420 -22.476  0.00  0.00    -0.073 C 
BRANCH   6   7
ATOM      7  C   UNL     1      34.040 -19.287 -21.051  0.00  0.00    +0.006 C 
ATOM      8  C   UNL     1      32.666 -19.986 -20.778  0.00  0.00    +0.028 C 
ATOM      9  C   UNL     1      34.632 -20.300 -20.118  0.00  0.00    -0.025 C 
ATOM     10  C   UNL     1      33.428 -20.914 -19.878  0.00  0.00    -0.023 C 
ATOM     11  C   UNL     1      35.800 -20.729 -19.533  0.00  0.00    +0.035 C 
ATOM     12  C   UNL     1      33.314 -21.997 -19.038  0.00  0.00    +0.035 C 
ATOM     13  C   UNL     1      35.719 -21.828 -18.673  0.00  0.00    +0.172 C 
ATOM     14  C   UNL     1      34.482 -22.458 -18.428  0.00  0.00    +0.172 C 
BRANCH  13  15
ATOM     15  O   UNL     1      36.852 -22.287 -18.071  0.00  0.00    -0.468 OA
ATOM     16  C   UNL     1      37.190 -21.716 -16.808  0.00  0.00    +0.253 C 
ENDBRANCH  13  15
BRANCH  14  17
ATOM     17  O   UNL     1      34.416 -23.529 -17.586  0.00  0.00    -0.468 OA
ATOM     18  C   UNL     1      33.412 -23.494 -16.574  0.00  0.00    +0.253 C 
ENDBRANCH  14  17
ENDBRANCH   6   7
ENDBRANCH   3   6
ENDBRANCH   2   3
ENDBRANCH   1   2
BRANCH   1  19
ATOM     19  C   UNL     1      34.639 -15.135 -20.977  0.00  0.00    +0.091 C 
BRANCH  19  21
ATOM     20  O   UNL     1      34.485 -13.910 -23.537  0.00  0.00    -0.275 OA
ATOM     21  N   UNL     1      33.489 -14.409 -21.496  0.00  0.00    -0.279 N 
ATOM     22  C   UNL     1      32.358 -14.215 -20.592  0.00  0.00    +0.098 C 
ATOM     23  C   UNL     1      32.316 -12.790 -20.047  0.00  0.00    +0.048 C 
ATOM     24  C   UNL     1      33.529 -13.832 -22.762  0.00  0.00    +0.230 C 
ATOM     25  C   UNL     1      32.106 -11.652 -21.026  0.00  0.00    -0.021 C 
ATOM     26  C   UNL     1      32.284 -13.072 -23.165  0.00  0.00    +0.111 C 
ATOM     27  C   UNL     1      32.115 -11.765 -22.431  0.00  0.00    -0.014 C 
ATOM     28  C   UNL     1      31.920 -10.377 -20.450  0.00  0.00    +0.036 C 
ATOM     29  C   UNL     1      31.915 -10.607 -23.209  0.00  0.00    +0.036 C 
ATOM     30  C   UNL     1      31.732  -9.242 -21.237  0.00  0.00    +0.172 C 
ATOM     31  C   UNL     1      31.727  -9.357 -22.619  0.00  0.00    +0.172 C 
BRANCH  30  32
ATOM     32  O   UNL     1      31.555  -8.031 -20.638  0.00  0.00    -0.468 OA
ATOM     33  C   UNL     1      32.704  -7.422 -20.053  0.00  0.00    +0.253 C 
ENDBRANCH  30  32
BRANCH  31  34
ATOM     34  O   UNL     1      31.541  -8.263 -23.408  0.00  0.00    -0.468 OA
ATOM     35  C   UNL     1      32.703  -7.520 -23.774  0.00  0.00    +0.253 C 
ENDBRANCH  31  34
ENDBRANCH  19  21
ENDBRANCH   1  19
TORSDOF 10
ENDMDL
