MODEL 1
REMARK VINA RESULT:      -7.5      0.000      0.000
REMARK  Name = 46937034
REMARK  2 active torsions:
REMARK  status: ('A' for Active; 'I' for Inactive)
REMARK    1  A    between atoms: C_10  and  C_16
REMARK    2  A    between atoms: C_16  and  O_17
REMARK                            x       y       z     vdW  Elec       q    Type
REMARK                         _______ _______ _______ _____ _____    ______ ____
ROOT
ATOM      1  C   UNL     1      36.721 -24.369 -13.919  0.00  0.00    +0.008 C 
ATOM      2  C   UNL     1      37.367 -23.258 -14.814  0.00  0.00    +0.022 C 
ATOM      3  C   UNL     1      37.822 -25.464 -13.743  0.00  0.00    +0.029 C 
ATOM      4  C   UNL     1      35.514 -24.850 -14.750  0.00  0.00    +0.001 C 
ATOM      5  C   UNL     1      36.434 -23.859 -12.477  0.00  0.00    +0.001 C 
ATOM      6  C   UNL     1      35.078 -23.649 -15.606  0.00  0.00    +0.000 C 
ATOM      7  C   UNL     1      36.424 -23.029 -16.006  0.00  0.00    +0.004 C 
ATOM      8  C   UNL     1      38.246 -25.428 -12.271  0.00  0.00    +0.005 C 
ATOM      9  C   UNL     1      37.768 -24.081 -11.753  0.00  0.00    +0.000 C 
ATOM     10  C   UNL     1      38.905 -25.018 -14.668  0.00  0.00    +0.049 C 
ATOM     11  C   UNL     1      38.679 -23.836 -15.240  0.00  0.00    -0.024 C 
ATOM     12  C   UNL     1      35.303 -24.587 -11.747  0.00  0.00    +0.000 C 
ATOM     13  C   UNL     1      34.214 -22.651 -14.824  0.00  0.00    +0.000 C 
ATOM     14  C   UNL     1      34.291 -24.114 -16.838  0.00  0.00    +0.000 C 
ENDROOT
BRANCH  10  16
ATOM     15  O   UNL     1      40.801 -26.334 -14.098  0.00  0.00    -0.245 OA
ATOM     16  C   UNL     1      40.100 -25.799 -14.947  0.00  0.00    +0.334 C 
BRANCH  16  17
ATOM     17  O   UNL     1      40.321 -25.846 -16.281  0.00  0.00    -0.477 OA
ATOM     18  H   UNL     1      40.726 -26.601 -16.662  0.00  0.00    +0.295 HD
ENDBRANCH  16  17
ENDBRANCH  10  16
TORSDOF 2
ENDMDL
MODEL 2
REMARK VINA RESULT:      -7.3     17.324     19.475
REMARK  Name = 46937034
REMARK  2 active torsions:
REMARK  status: ('A' for Active; 'I' for Inactive)
REMARK    1  A    between atoms: C_10  and  C_16
REMARK    2  A    between atoms: C_16  and  O_17
REMARK                            x       y       z     vdW  Elec       q    Type
REMARK                         _______ _______ _______ _____ _____    ______ ____
ROOT
ATOM      1  C   UNL     1      32.629  -8.643 -22.627  0.00  0.00    +0.008 C 
ATOM      2  C   UNL     1      32.696  -8.318 -21.096  0.00  0.00    +0.022 C 
ATOM      3  C   UNL     1      32.205  -7.310 -23.324  0.00  0.00    +0.029 C 
ATOM      4  C   UNL     1      31.553  -9.744 -22.717  0.00  0.00    +0.001 C 
ATOM      5  C   UNL     1      34.032  -8.970 -23.213  0.00  0.00    +0.001 C 
ATOM      6  C   UNL     1      31.587 -10.489 -21.372  0.00  0.00    +0.000 C 
ATOM      7  C   UNL     1      31.811  -9.345 -20.373  0.00  0.00    +0.004 C 
ATOM      8  C   UNL     1      33.415  -6.835 -24.135  0.00  0.00    +0.005 C 
ATOM      9  C   UNL     1      34.602  -7.587 -23.554  0.00  0.00    +0.000 C 
ATOM     10  C   UNL     1      31.884  -6.407 -22.180  0.00  0.00    +0.049 C 
ATOM     11  C   UNL     1      32.151  -6.929 -20.984  0.00  0.00    -0.024 C 
ATOM     12  C   UNL     1      34.021  -9.864 -24.456  0.00  0.00    +0.000 C 
ATOM     13  C   UNL     1      32.720 -11.522 -21.300  0.00  0.00    +0.000 C 
ATOM     14  C   UNL     1      30.257 -11.205 -21.110  0.00  0.00    +0.000 C 
ENDROOT
BRANCH  10  16
ATOM     15  O   UNL     1      31.586  -4.301 -23.242  0.00  0.00    -0.245 OA
ATOM     16  C   UNL     1      31.314  -5.078 -22.337  0.00  0.00    +0.334 C 
BRANCH  16  17
ATOM     17  O   UNL     1      30.439  -4.829 -21.336  0.00  0.00    -0.477 OA
ATOM     18  H   UNL     1      30.754  -4.572 -20.491  0.00  0.00    +0.295 HD
ENDBRANCH  16  17
ENDBRANCH  10  16
TORSDOF 2
ENDMDL
MODEL 3
REMARK VINA RESULT:      -7.2     18.335     20.214
REMARK  Name = 46937034
REMARK  2 active torsions:
REMARK  status: ('A' for Active; 'I' for Inactive)
REMARK    1  A    between atoms: C_10  and  C_16
REMARK    2  A    between atoms: C_16  and  O_17
REMARK                            x       y       z     vdW  Elec       q    Type
REMARK                         _______ _______ _______ _____ _____    ______ ____
ROOT
ATOM      1  C   UNL     1      32.474  -6.806 -23.662  0.00  0.00    +0.008 C 
ATOM      2  C   UNL     1      33.992  -6.622 -23.999  0.00  0.00    +0.022 C 
ATOM      3  C   UNL     1      32.278  -8.337 -23.415  0.00  0.00    +0.029 C 
ATOM      4  C   UNL     1      31.756  -6.300 -24.930  0.00  0.00    +0.001 C 
ATOM      5  C   UNL     1      32.093  -6.134 -22.312  0.00  0.00    +0.001 C 
ATOM      6  C   UNL     1      32.686  -5.250 -25.559  0.00  0.00    +0.000 C 
ATOM      7  C   UNL     1      34.073  -5.870 -25.337  0.00  0.00    +0.004 C 
ATOM      8  C   UNL     1      31.968  -8.505 -21.924  0.00  0.00    +0.005 C 
ATOM      9  C   UNL     1      32.432  -7.211 -21.274  0.00  0.00    +0.000 C 
ATOM     10  C   UNL     1      33.596  -8.922 -23.801  0.00  0.00    +0.049 C 
ATOM     11  C   UNL     1      34.524  -8.016 -24.107  0.00  0.00    -0.024 C 
ATOM     12  C   UNL     1      30.625  -5.717 -22.188  0.00  0.00    +0.000 C 
ATOM     13  C   UNL     1      32.573  -3.879 -24.878  0.00  0.00    +0.000 C 
ATOM     14  C   UNL     1      32.385  -5.078 -27.053  0.00  0.00    +0.000 C 
ENDROOT
BRANCH  10  16
ATOM     15  O   UNL     1      33.072 -11.223 -23.511  0.00  0.00    -0.245 OA
ATOM     16  C   UNL     1      33.857 -10.352 -23.862  0.00  0.00    +0.334 C 
BRANCH  16  17
ATOM     17  O   UNL     1      35.094 -10.576 -24.362  0.00  0.00    -0.477 OA
ATOM     18  H   UNL     1      35.271 -10.410 -25.267  0.00  0.00    +0.295 HD
ENDBRANCH  16  17
ENDBRANCH  10  16
TORSDOF 2
ENDMDL
MODEL 4
REMARK VINA RESULT:      -7.0      8.824     11.166
REMARK  Name = 46937034
REMARK  2 active torsions:
REMARK  status: ('A' for Active; 'I' for Inactive)
REMARK    1  A    between atoms: C_10  and  C_16
REMARK    2  A    between atoms: C_16  and  O_17
REMARK                            x       y       z     vdW  Elec       q    Type
REMARK                         _______ _______ _______ _____ _____    ______ ____
ROOT
ATOM      1  C   UNL     1      34.611 -17.368 -22.694  0.00  0.00    +0.008 C 
ATOM      2  C   UNL     1      33.432 -17.683 -21.713  0.00  0.00    +0.022 C 
ATOM      3  C   UNL     1      35.689 -18.467 -22.427  0.00  0.00    +0.029 C 
ATOM      4  C   UNL     1      35.067 -15.956 -22.272  0.00  0.00    +0.001 C 
ATOM      5  C   UNL     1      34.199 -17.568 -24.181  0.00  0.00    +0.001 C 
ATOM      6  C   UNL     1      33.826 -15.261 -21.688  0.00  0.00    +0.000 C 
ATOM      7  C   UNL     1      33.151 -16.401 -20.913  0.00  0.00    +0.004 C 
ATOM      8  C   UNL     1      35.735 -19.350 -23.679  0.00  0.00    +0.005 C 
ATOM      9  C   UNL     1      34.434 -19.066 -24.413  0.00  0.00    +0.000 C 
ATOM     10  C   UNL     1      35.161 -19.187 -21.231  0.00  0.00    +0.049 C 
ATOM     11  C   UNL     1      33.951 -18.784 -20.845  0.00  0.00    -0.024 C 
ATOM     12  C   UNL     1      34.998 -16.739 -25.191  0.00  0.00    +0.000 C 
ATOM     13  C   UNL     1      32.899 -14.699 -22.774  0.00  0.00    +0.000 C 
ATOM     14  C   UNL     1      34.232 -14.115 -20.753  0.00  0.00    +0.000 C 
ENDROOT
BRANCH  10  16
ATOM     15  O   UNL     1      35.583 -21.410 -20.499  0.00  0.00    -0.245 OA
ATOM     16  C   UNL     1      35.895 -20.226 -20.525  0.00  0.00    +0.334 C 
BRANCH  16  17
ATOM     17  O   UNL     1      36.970 -19.692 -19.903  0.00  0.00    -0.477 OA
ATOM     18  H   UNL     1      37.372 -18.917 -20.243  0.00  0.00    +0.295 HD
ENDBRANCH  16  17
ENDBRANCH  10  16
TORSDOF 2
ENDMDL
MODEL 5
REMARK VINA RESULT:      -6.9     13.166     15.336
REMARK  Name = 46937034
REMARK  2 active torsions:
REMARK  status: ('A' for Active; 'I' for Inactive)
REMARK    1  A    between atoms: C_10  and  C_16
REMARK    2  A    between atoms: C_16  and  O_17
REMARK                            x       y       z     vdW  Elec       q    Type
REMARK                         _______ _______ _______ _____ _____    ______ ____
ROOT
ATOM      1  C   UNL     1      32.857 -12.952 -22.101  0.00  0.00    +0.008 C 
ATOM      2  C   UNL     1      32.524 -14.019 -23.197  0.00  0.00    +0.022 C 
ATOM      3  C   UNL     1      33.483 -11.741 -22.865  0.00  0.00    +0.029 C 
ATOM      4  C   UNL     1      33.863 -13.676 -21.183  0.00  0.00    +0.001 C 
ATOM      5  C   UNL     1      31.571 -12.381 -21.437  0.00  0.00    +0.001 C 
ATOM      6  C   UNL     1      33.532 -15.174 -21.282  0.00  0.00    +0.000 C 
ATOM      7  C   UNL     1      33.195 -15.334 -22.771  0.00  0.00    +0.004 C 
ATOM      8  C   UNL     1      32.477 -10.590 -22.764  0.00  0.00    +0.005 C 
ATOM      9  C   UNL     1      31.159 -11.247 -22.384  0.00  0.00    +0.000 C 
ATOM     10  C   UNL     1      33.638 -12.253 -24.259  0.00  0.00    +0.049 C 
ATOM     11  C   UNL     1      33.121 -13.466 -24.452  0.00  0.00    -0.024 C 
ATOM     12  C   UNL     1      31.760 -11.845 -20.015  0.00  0.00    +0.000 C 
ATOM     13  C   UNL     1      32.346 -15.576 -20.395  0.00  0.00    +0.000 C 
ATOM     14  C   UNL     1      34.745 -16.028 -20.891  0.00  0.00    +0.000 C 
ENDROOT
BRANCH  10  16
ATOM     15  O   UNL     1      34.110 -11.678 -26.517  0.00  0.00    -0.245 OA
ATOM     16  C   UNL     1      34.307 -11.516 -25.319  0.00  0.00    +0.334 C 
BRANCH  16  17
ATOM     17  O   UNL     1      35.177 -10.628 -24.788  0.00  0.00    -0.477 OA
ATOM     18  H   UNL     1      36.002 -10.922 -24.452  0.00  0.00    +0.295 HD
ENDBRANCH  16  17
ENDBRANCH  10  16
TORSDOF 2
ENDMDL
MODEL 6
REMARK VINA RESULT:      -6.7     13.217     15.258
REMARK  Name = 46937034
REMARK  2 active torsions:
REMARK  status: ('A' for Active; 'I' for Inactive)
REMARK    1  A    between atoms: C_10  and  C_16
REMARK    2  A    between atoms: C_16  and  O_17
REMARK                            x       y       z     vdW  Elec       q    Type
REMARK                         _______ _______ _______ _____ _____    ______ ____
ROOT
ATOM      1  C   UNL     1      32.975 -13.558 -22.735  0.00  0.00    +0.008 C 
ATOM      2  C   UNL     1      33.654 -12.264 -23.297  0.00  0.00    +0.022 C 
ATOM      3  C   UNL     1      32.883 -14.546 -23.942  0.00  0.00    +0.029 C 
ATOM      4  C   UNL     1      31.597 -13.065 -22.249  0.00  0.00    +0.001 C 
ATOM      5  C   UNL     1      33.878 -14.283 -21.697  0.00  0.00    +0.001 C 
ATOM      6  C   UNL     1      31.783 -11.589 -21.859  0.00  0.00    +0.000 C 
ATOM      7  C   UNL     1      32.733 -11.082 -22.953  0.00  0.00    +0.004 C 
ATOM      8  C   UNL     1      33.849 -15.698 -23.642  0.00  0.00    +0.005 C 
ATOM      9  C   UNL     1      34.783 -15.162 -22.569  0.00  0.00    +0.000 C 
ATOM     10  C   UNL     1      33.317 -13.715 -25.104  0.00  0.00    +0.049 C 
ATOM     11  C   UNL     1      33.741 -12.496 -24.772  0.00  0.00    -0.024 C 
ATOM     12  C   UNL     1      33.128 -15.140 -20.673  0.00  0.00    +0.000 C 
ATOM     13  C   UNL     1      32.400 -11.421 -20.464  0.00  0.00    +0.000 C 
ATOM     14  C   UNL     1      30.445 -10.842 -21.894  0.00  0.00    +0.000 C 
ENDROOT
BRANCH  10  16
ATOM     15  O   UNL     1      33.332 -15.343 -26.837  0.00  0.00    -0.245 OA
ATOM     16  C   UNL     1      33.272 -14.172 -26.484  0.00  0.00    +0.334 C 
BRANCH  16  17
ATOM     17  O   UNL     1      33.155 -13.114 -27.319  0.00  0.00    -0.477 OA
ATOM     18  H   UNL     1      33.284 -12.244 -26.994  0.00  0.00    +0.295 HD
ENDBRANCH  16  17
ENDBRANCH  10  16
TORSDOF 2
ENDMDL
MODEL 7
REMARK VINA RESULT:      -6.3     18.958     21.039
REMARK  Name = 46937034
REMARK  2 active torsions:
REMARK  status: ('A' for Active; 'I' for Inactive)
REMARK    1  A    between atoms: C_10  and  C_16
REMARK    2  A    between atoms: C_16  and  O_17
REMARK                            x       y       z     vdW  Elec       q    Type
REMARK                         _______ _______ _______ _____ _____    ______ ____
ROOT
ATOM      1  C   UNL     1      32.107  -6.954 -22.660  0.00  0.00    +0.008 C 
ATOM      2  C   UNL     1      31.137  -7.637 -23.682  0.00  0.00    +0.022 C 
ATOM      3  C   UNL     1      32.238  -5.469 -23.127  0.00  0.00    +0.029 C 
ATOM      4  C   UNL     1      33.417  -7.755 -22.810  0.00  0.00    +0.001 C 
ATOM      5  C   UNL     1      31.485  -6.869 -21.237  0.00  0.00    +0.001 C 
ATOM      6  C   UNL     1      33.006  -9.168 -23.255  0.00  0.00    +0.000 C 
ATOM      7  C   UNL     1      31.855  -8.881 -24.229  0.00  0.00    +0.004 C 
ATOM      8  C   UNL     1      31.546  -4.611 -22.063  0.00  0.00    +0.005 C 
ATOM      9  C   UNL     1      30.663  -5.575 -21.288  0.00  0.00    +0.000 C 
ATOM     10  C   UNL     1      31.521  -5.454 -24.437  0.00  0.00    +0.049 C 
ATOM     11  C   UNL     1      30.920  -6.604 -24.741  0.00  0.00    -0.024 C 
ATOM     12  C   UNL     1      32.498  -6.812 -20.090  0.00  0.00    +0.000 C 
ATOM     13  C   UNL     1      32.539 -10.042 -22.082  0.00  0.00    +0.000 C 
ATOM     14  C   UNL     1      34.168  -9.879 -23.959  0.00  0.00    +0.000 C 
ENDROOT
BRANCH  10  16
ATOM     15  O   UNL     1      32.332  -4.044 -26.172  0.00  0.00    -0.245 OA
ATOM     16  C   UNL     1      31.487  -4.302 -25.325  0.00  0.00    +0.334 C 
BRANCH  16  17
ATOM     17  O   UNL     1      30.385  -3.558 -25.075  0.00  0.00    -0.477 OA
ATOM     18  H   UNL     1      30.474  -2.667 -24.797  0.00  0.00    +0.295 HD
ENDBRANCH  16  17
ENDBRANCH  10  16
TORSDOF 2
ENDMDL
MODEL 8
REMARK VINA RESULT:      -6.2     11.008     13.384
REMARK  Name = 46937034
REMARK  2 active torsions:
REMARK  status: ('A' for Active; 'I' for Inactive)
REMARK    1  A    between atoms: C_10  and  C_16
REMARK    2  A    between atoms: C_16  and  O_17
REMARK                            x       y       z     vdW  Elec       q    Type
REMARK                         _______ _______ _______ _____ _____    ______ ____
ROOT
ATOM      1  C   UNL     1      33.988 -15.965 -22.818  0.00  0.00    +0.008 C 
ATOM      2  C   UNL     1      34.937 -15.611 -21.623  0.00  0.00    +0.022 C 
ATOM      3  C   UNL     1      32.839 -14.907 -22.773  0.00  0.00    +0.029 C 
ATOM      4  C   UNL     1      33.510 -17.394 -22.491  0.00  0.00    +0.001 C 
ATOM      5  C   UNL     1      34.678 -15.742 -24.194  0.00  0.00    +0.001 C 
ATOM      6  C   UNL     1      34.635 -18.045 -21.670  0.00  0.00    +0.000 C 
ATOM      7  C   UNL     1      35.101 -16.885 -20.780  0.00  0.00    +0.004 C 
ATOM      8  C   UNL     1      33.008 -14.020 -24.011  0.00  0.00    +0.005 C 
ATOM      9  C   UNL     1      34.438 -14.253 -24.472  0.00  0.00    +0.000 C 
ATOM     10  C   UNL     1      33.092 -14.173 -21.497  0.00  0.00    +0.049 C 
ATOM     11  C   UNL     1      34.216 -14.533 -20.878  0.00  0.00    -0.024 C 
ATOM     12  C   UNL     1      34.127 -16.595 -25.340  0.00  0.00    +0.000 C 
ATOM     13  C   UNL     1      35.780 -18.567 -22.549  0.00  0.00    +0.000 C 
ATOM     14  C   UNL     1      34.096 -19.209 -20.831  0.00  0.00    +0.000 C 
ENDROOT
BRANCH  10  16
ATOM     15  O   UNL     1      32.141 -12.838 -19.776  0.00  0.00    -0.245 OA
ATOM     16  C   UNL     1      32.195 -13.166 -20.954  0.00  0.00    +0.334 C 
BRANCH  16  17
ATOM     17  O   UNL     1      31.430 -12.646 -21.941  0.00  0.00    -0.477 OA
ATOM     18  H   UNL     1      31.652 -12.803 -22.838  0.00  0.00    +0.295 HD
ENDBRANCH  16  17
ENDBRANCH  10  16
TORSDOF 2
ENDMDL
MODEL 9
REMARK VINA RESULT:      -6.2     13.977     15.957
REMARK  Name = 46937034
REMARK  2 active torsions:
REMARK  status: ('A' for Active; 'I' for Inactive)
REMARK    1  A    between atoms: C_10  and  C_16
REMARK    2  A    between atoms: C_16  and  O_17
REMARK                            x       y       z     vdW  Elec       q    Type
REMARK                         _______ _______ _______ _____ _____    ______ ____
ROOT
ATOM      1  C   UNL     1      32.443 -12.025 -22.457  0.00  0.00    +0.008 C 
ATOM      2  C   UNL     1      33.664 -11.443 -23.246  0.00  0.00    +0.022 C 
ATOM      3  C   UNL     1      32.130 -13.406 -23.118  0.00  0.00    +0.029 C 
ATOM      4  C   UNL     1      31.333 -10.978 -22.683  0.00  0.00    +0.001 C 
ATOM      5  C   UNL     1      32.811 -12.364 -20.984  0.00  0.00    +0.001 C 
ATOM      6  C   UNL     1      32.047  -9.633 -22.889  0.00  0.00    +0.000 C 
ATOM      7  C   UNL     1      33.268 -10.038 -23.726  0.00  0.00    +0.004 C 
ATOM      8  C   UNL     1      32.487 -14.479 -22.084  0.00  0.00    +0.005 C 
ATOM      9  C   UNL     1      33.393 -13.780 -21.084  0.00  0.00    +0.000 C 
ATOM     10  C   UNL     1      33.028 -13.430 -24.311  0.00  0.00    +0.049 C 
ATOM     11  C   UNL     1      33.860 -12.392 -24.386  0.00  0.00    -0.024 C 
ATOM     12  C   UNL     1      31.638 -12.338 -20.001  0.00  0.00    +0.000 C 
ATOM     13  C   UNL     1      32.471  -8.982 -21.565  0.00  0.00    +0.000 C 
ATOM     14  C   UNL     1      31.151  -8.649 -23.651  0.00  0.00    +0.000 C 
ENDROOT
BRANCH  10  16
ATOM     15  O   UNL     1      33.644 -15.515 -25.272  0.00  0.00    -0.245 OA
ATOM     16  C   UNL     1      32.999 -14.476 -25.321  0.00  0.00    +0.334 C 
BRANCH  16  17
ATOM     17  O   UNL     1      32.156 -14.131 -26.321  0.00  0.00    -0.477 OA
ATOM     18  H   UNL     1      31.345 -14.588 -26.429  0.00  0.00    +0.295 HD
ENDBRANCH  16  17
ENDBRANCH  10  16
TORSDOF 2
ENDMDL
