MODEL 1
REMARK VINA RESULT:      -8.2      0.000      0.000
REMARK  Name = 676157
REMARK  5 active torsions:
REMARK  status: ('A' for Active; 'I' for Inactive)
REMARK    1  A    between atoms: C_2  and  C_11
REMARK    2  A    between atoms: C_11  and  C_12
REMARK    3  A    between atoms: C_12  and  O_13
REMARK    4  A    between atoms: C_12  and  C_16
REMARK    5  A    between atoms: C_16  and  O_17
REMARK                            x       y       z     vdW  Elec       q    Type
REMARK                         _______ _______ _______ _____ _____    ______ ____
ROOT
ATOM      1  N   UNL     1      36.790 -19.887 -20.347  0.00  0.00    -0.312 N 
ATOM      2  C   UNL     1      35.216 -18.767 -21.439  0.00  0.00    -0.003 C 
ATOM      3  C   UNL     1      34.591 -19.825 -20.720  0.00  0.00    +0.011 C 
ATOM      4  C   UNL     1      35.601 -20.511 -20.043  0.00  0.00    +0.048 C 
ATOM      5  C   UNL     1      36.567 -18.832 -21.190  0.00  0.00    +0.058 C 
ATOM      6  C   UNL     1      33.260 -20.264 -20.580  0.00  0.00    +0.001 C 
ATOM      7  C   UNL     1      35.345 -21.621 -19.228  0.00  0.00    +0.015 C 
ATOM      8  C   UNL     1      32.989 -21.371 -19.769  0.00  0.00    +0.000 C 
ATOM      9  C   UNL     1      34.016 -22.038 -19.104  0.00  0.00    +0.001 C 
ATOM     10  H   UNL     1      37.673 -20.160 -20.006  0.00  0.00    +0.152 HD
ENDROOT
BRANCH   2  11
ATOM     11  C   UNL     1      34.544 -17.774 -22.303  0.00  0.00    +0.068 C 
BRANCH  11  12
ATOM     12  C   UNL     1      35.365 -17.391 -23.550  0.00  0.00    +0.214 C 
BRANCH  12  13
ATOM     13  O   UNL     1      35.554 -15.982 -23.553  0.00  0.00    -0.374 OA
ATOM     14  H   UNL     1      35.981 -15.712 -22.725  0.00  0.00    +0.211 HD
ENDBRANCH  12  13
BRANCH  12  16
ATOM     15  O   UNL     1      34.009 -18.781 -25.022  0.00  0.00    -0.248 OA
ATOM     16  C   UNL     1      34.647 -17.756 -24.831  0.00  0.00    +0.341 C 
BRANCH  16  17
ATOM     17  O   UNL     1      34.827 -16.797 -25.775  0.00  0.00    -0.479 OA
ATOM     18  H   UNL     1      35.490 -16.903 -26.429  0.00  0.00    +0.295 HD
ENDBRANCH  16  17
ENDBRANCH  12  16
ENDBRANCH  11  12
ENDBRANCH   2  11
TORSDOF 5
ENDMDL
MODEL 2
REMARK VINA RESULT:      -7.8      1.416      2.416
REMARK  Name = 676157
REMARK  5 active torsions:
REMARK  status: ('A' for Active; 'I' for Inactive)
REMARK    1  A    between atoms: C_2  and  C_11
REMARK    2  A    between atoms: C_11  and  C_12
REMARK    3  A    between atoms: C_12  and  O_13
REMARK    4  A    between atoms: C_12  and  C_16
REMARK    5  A    between atoms: C_16  and  O_17
REMARK                            x       y       z     vdW  Elec       q    Type
REMARK                         _______ _______ _______ _____ _____    ______ ____
ROOT
ATOM      1  N   UNL     1      32.682 -20.539 -20.390  0.00  0.00    -0.312 N 
ATOM      2  C   UNL     1      34.227 -19.290 -21.380  0.00  0.00    -0.003 C 
ATOM      3  C   UNL     1      34.882 -20.187 -20.490  0.00  0.00    +0.011 C 
ATOM      4  C   UNL     1      33.890 -20.959 -19.882  0.00  0.00    +0.048 C 
ATOM      5  C   UNL     1      32.874 -19.531 -21.296  0.00  0.00    +0.058 C 
ATOM      6  C   UNL     1      36.229 -20.416 -20.143  0.00  0.00    +0.001 C 
ATOM      7  C   UNL     1      34.178 -21.953 -18.940  0.00  0.00    +0.015 C 
ATOM      8  C   UNL     1      36.531 -21.407 -19.203  0.00  0.00    +0.000 C 
ATOM      9  C   UNL     1      35.521 -22.163 -18.611  0.00  0.00    +0.001 C 
ATOM     10  H   UNL     1      31.805 -20.910 -20.139  0.00  0.00    +0.152 HD
ENDROOT
BRANCH   2  11
ATOM     11  C   UNL     1      34.872 -18.279 -22.243  0.00  0.00    +0.068 C 
BRANCH  11  12
ATOM     12  C   UNL     1      34.445 -18.372 -23.721  0.00  0.00    +0.214 C 
BRANCH  12  13
ATOM     13  O   UNL     1      35.004 -19.554 -24.280  0.00  0.00    -0.374 OA
ATOM     14  H   UNL     1      35.322 -20.130 -23.567  0.00  0.00    +0.211 HD
ENDBRANCH  12  13
BRANCH  12  16
ATOM     15  O   UNL     1      34.780 -17.032 -25.728  0.00  0.00    -0.248 OA
ATOM     16  C   UNL     1      34.956 -17.201 -24.531  0.00  0.00    +0.341 C 
BRANCH  16  17
ATOM     17  O   UNL     1      35.676 -16.353 -23.751  0.00  0.00    -0.479 OA
ATOM     18  H   UNL     1      36.604 -16.289 -23.864  0.00  0.00    +0.295 HD
ENDBRANCH  16  17
ENDBRANCH  12  16
ENDBRANCH  11  12
ENDBRANCH   2  11
TORSDOF 5
ENDMDL
MODEL 3
REMARK VINA RESULT:      -7.7      1.443      1.905
REMARK  Name = 676157
REMARK  5 active torsions:
REMARK  status: ('A' for Active; 'I' for Inactive)
REMARK    1  A    between atoms: C_2  and  C_11
REMARK    2  A    between atoms: C_11  and  C_12
REMARK    3  A    between atoms: C_12  and  O_13
REMARK    4  A    between atoms: C_12  and  C_16
REMARK    5  A    between atoms: C_16  and  O_17
REMARK                            x       y       z     vdW  Elec       q    Type
REMARK                         _______ _______ _______ _____ _____    ______ ____
ROOT
ATOM      1  N   UNL     1      36.765 -19.824 -20.426  0.00  0.00    -0.312 N 
ATOM      2  C   UNL     1      34.986 -18.744 -21.197  0.00  0.00    -0.003 C 
ATOM      3  C   UNL     1      34.537 -19.906 -20.509  0.00  0.00    +0.011 C 
ATOM      4  C   UNL     1      35.673 -20.565 -20.035  0.00  0.00    +0.048 C 
ATOM      5  C   UNL     1      36.360 -18.721 -21.129  0.00  0.00    +0.058 C 
ATOM      6  C   UNL     1      33.269 -20.461 -20.243  0.00  0.00    +0.001 C 
ATOM      7  C   UNL     1      35.605 -21.757 -19.304  0.00  0.00    +0.015 C 
ATOM      8  C   UNL     1      33.186 -21.652 -19.514  0.00  0.00    +0.000 C 
ATOM      9  C   UNL     1      34.336 -22.289 -19.053  0.00  0.00    +0.001 C 
ATOM     10  H   UNL     1      37.702 -20.053 -20.229  0.00  0.00    +0.152 HD
ENDROOT
BRANCH   2  11
ATOM     11  C   UNL     1      34.138 -17.737 -21.868  0.00  0.00    +0.068 C 
BRANCH  11  12
ATOM     12  C   UNL     1      34.582 -16.285 -21.600  0.00  0.00    +0.214 C 
BRANCH  12  13
ATOM     13  O   UNL     1      33.543 -15.616 -20.897  0.00  0.00    -0.374 OA
ATOM     14  H   UNL     1      33.624 -14.659 -21.034  0.00  0.00    +0.211 HD
ENDBRANCH  12  13
BRANCH  12  16
ATOM     15  O   UNL     1      34.294 -14.468 -23.198  0.00  0.00    -0.248 OA
ATOM     16  C   UNL     1      34.825 -15.524 -22.885  0.00  0.00    +0.341 C 
BRANCH  16  17
ATOM     17  O   UNL     1      35.704 -16.187 -23.679  0.00  0.00    -0.479 OA
ATOM     18  H   UNL     1      35.687 -17.123 -23.717  0.00  0.00    +0.295 HD
ENDBRANCH  16  17
ENDBRANCH  12  16
ENDBRANCH  11  12
ENDBRANCH   2  11
TORSDOF 5
ENDMDL
MODEL 4
REMARK VINA RESULT:      -7.7      1.750      2.890
REMARK  Name = 676157
REMARK  5 active torsions:
REMARK  status: ('A' for Active; 'I' for Inactive)
REMARK    1  A    between atoms: C_2  and  C_11
REMARK    2  A    between atoms: C_11  and  C_12
REMARK    3  A    between atoms: C_12  and  O_13
REMARK    4  A    between atoms: C_12  and  C_16
REMARK    5  A    between atoms: C_16  and  O_17
REMARK                            x       y       z     vdW  Elec       q    Type
REMARK                         _______ _______ _______ _____ _____    ______ ____
ROOT
ATOM      1  N   UNL     1      32.682 -20.374 -20.597  0.00  0.00    -0.312 N 
ATOM      2  C   UNL     1      34.559 -19.385 -21.245  0.00  0.00    -0.003 C 
ATOM      3  C   UNL     1      34.889 -20.375 -20.277  0.00  0.00    +0.011 C 
ATOM      4  C   UNL     1      33.694 -20.981 -19.887  0.00  0.00    +0.048 C 
ATOM      5  C   UNL     1      33.195 -19.409 -21.420  0.00  0.00    +0.058 C 
ATOM      6  C   UNL     1      36.095 -20.814 -19.694  0.00  0.00    +0.001 C 
ATOM      7  C   UNL     1      33.642 -22.009 -18.939  0.00  0.00    +0.015 C 
ATOM      8  C   UNL     1      36.058 -21.842 -18.746  0.00  0.00    +0.000 C 
ATOM      9  C   UNL     1      34.851 -22.429 -18.374  0.00  0.00    +0.001 C 
ATOM     10  H   UNL     1      31.726 -20.603 -20.523  0.00  0.00    +0.152 HD
ENDROOT
BRANCH   2  11
ATOM     11  C   UNL     1      35.504 -18.487 -21.942  0.00  0.00    +0.068 C 
BRANCH  11  12
ATOM     12  C   UNL     1      34.848 -17.192 -22.461  0.00  0.00    +0.214 C 
BRANCH  12  13
ATOM     13  O   UNL     1      35.597 -16.720 -23.574  0.00  0.00    -0.374 OA
ATOM     14  H   UNL     1      36.495 -17.088 -23.538  0.00  0.00    +0.211 HD
ENDBRANCH  12  13
BRANCH  12  16
ATOM     15  O   UNL     1      35.065 -16.258 -20.222  0.00  0.00    -0.248 OA
ATOM     16  C   UNL     1      34.850 -16.100 -21.415  0.00  0.00    +0.341 C 
BRANCH  16  17
ATOM     17  O   UNL     1      34.549 -14.898 -21.971  0.00  0.00    -0.479 OA
ATOM     18  H   UNL     1      34.736 -14.107 -21.504  0.00  0.00    +0.295 HD
ENDBRANCH  16  17
ENDBRANCH  12  16
ENDBRANCH  11  12
ENDBRANCH   2  11
TORSDOF 5
ENDMDL
MODEL 5
REMARK VINA RESULT:      -7.6      7.828      9.351
REMARK  Name = 676157
REMARK  5 active torsions:
REMARK  status: ('A' for Active; 'I' for Inactive)
REMARK    1  A    between atoms: C_2  and  C_11
REMARK    2  A    between atoms: C_11  and  C_12
REMARK    3  A    between atoms: C_12  and  O_13
REMARK    4  A    between atoms: C_12  and  C_16
REMARK    5  A    between atoms: C_16  and  O_17
REMARK                            x       y       z     vdW  Elec       q    Type
REMARK                         _______ _______ _______ _____ _____    ______ ____
ROOT
ATOM      1  N   UNL     1      31.306 -23.861 -13.812  0.00  0.00    -0.312 N 
ATOM      2  C   UNL     1      30.374 -23.093 -15.674  0.00  0.00    -0.003 C 
ATOM      3  C   UNL     1      31.770 -23.246 -15.905  0.00  0.00    +0.011 C 
ATOM      4  C   UNL     1      32.331 -23.729 -14.722  0.00  0.00    +0.048 C 
ATOM      5  C   UNL     1      30.119 -23.479 -14.378  0.00  0.00    +0.058 C 
ATOM      6  C   UNL     1      32.612 -23.018 -17.012  0.00  0.00    +0.001 C 
ATOM      7  C   UNL     1      33.698 -23.998 -14.588  0.00  0.00    +0.015 C 
ATOM      8  C   UNL     1      33.981 -23.283 -16.893  0.00  0.00    +0.000 C 
ATOM      9  C   UNL     1      34.514 -23.765 -15.700  0.00  0.00    +0.001 C 
ATOM     10  H   UNL     1      31.411 -24.184 -12.887  0.00  0.00    +0.152 HD
ENDROOT
BRANCH   2  11
ATOM     11  C   UNL     1      29.370 -22.607 -16.643  0.00  0.00    +0.068 C 
BRANCH  11  12
ATOM     12  C   UNL     1      27.955 -23.166 -16.392  0.00  0.00    +0.214 C 
BRANCH  12  13
ATOM     13  O   UNL     1      27.654 -24.111 -17.411  0.00  0.00    -0.374 OA
ATOM     14  H   UNL     1      28.479 -24.495 -17.749  0.00  0.00    +0.211 HD
ENDBRANCH  12  13
BRANCH  12  16
ATOM     15  O   UNL     1      26.819 -21.216 -17.309  0.00  0.00    -0.248 OA
ATOM     16  C   UNL     1      26.902 -22.082 -16.451  0.00  0.00    +0.341 C 
BRANCH  16  17
ATOM     17  O   UNL     1      26.055 -22.174 -15.393  0.00  0.00    -0.479 OA
ATOM     18  H   UNL     1      26.394 -22.350 -14.537  0.00  0.00    +0.295 HD
ENDBRANCH  16  17
ENDBRANCH  12  16
ENDBRANCH  11  12
ENDBRANCH   2  11
TORSDOF 5
ENDMDL
MODEL 6
REMARK VINA RESULT:      -7.5      3.402      5.605
REMARK  Name = 676157
REMARK  5 active torsions:
REMARK  status: ('A' for Active; 'I' for Inactive)
REMARK    1  A    between atoms: C_2  and  C_11
REMARK    2  A    between atoms: C_11  and  C_12
REMARK    3  A    between atoms: C_12  and  O_13
REMARK    4  A    between atoms: C_12  and  C_16
REMARK    5  A    between atoms: C_16  and  O_17
REMARK                            x       y       z     vdW  Elec       q    Type
REMARK                         _______ _______ _______ _____ _____    ______ ____
ROOT
ATOM      1  N   UNL     1      34.862 -18.278 -23.913  0.00  0.00    -0.312 N 
ATOM      2  C   UNL     1      34.823 -18.963 -21.803  0.00  0.00    -0.003 C 
ATOM      3  C   UNL     1      34.701 -17.545 -21.812  0.00  0.00    +0.011 C 
ATOM      4  C   UNL     1      34.727 -17.141 -23.148  0.00  0.00    +0.048 C 
ATOM      5  C   UNL     1      34.921 -19.384 -23.109  0.00  0.00    +0.058 C 
ATOM      6  C   UNL     1      34.569 -16.564 -20.809  0.00  0.00    +0.001 C 
ATOM      7  C   UNL     1      34.628 -15.799 -23.534  0.00  0.00    +0.015 C 
ATOM      8  C   UNL     1      34.468 -15.219 -21.180  0.00  0.00    +0.000 C 
ATOM      9  C   UNL     1      34.497 -14.844 -22.521  0.00  0.00    +0.001 C 
ATOM     10  H   UNL     1      34.909 -18.293 -24.897  0.00  0.00    +0.152 HD
ENDROOT
BRANCH   2  11
ATOM     11  C   UNL     1      34.845 -19.835 -20.610  0.00  0.00    +0.068 C 
BRANCH  11  12
ATOM     12  C   UNL     1      33.629 -20.779 -20.519  0.00  0.00    +0.214 C 
BRANCH  12  13
ATOM     13  O   UNL     1      32.499 -20.022 -20.102  0.00  0.00    -0.374 OA
ATOM     14  H   UNL     1      32.706 -19.075 -20.158  0.00  0.00    +0.211 HD
ENDBRANCH  12  13
BRANCH  12  16
ATOM     15  O   UNL     1      34.877 -22.505 -19.338  0.00  0.00    -0.248 OA
ATOM     16  C   UNL     1      33.842 -21.876 -19.500  0.00  0.00    +0.341 C 
BRANCH  16  17
ATOM     17  O   UNL     1      32.706 -22.103 -18.791  0.00  0.00    -0.479 OA
ATOM     18  H   UNL     1      32.695 -22.760 -18.123  0.00  0.00    +0.295 HD
ENDBRANCH  16  17
ENDBRANCH  12  16
ENDBRANCH  11  12
ENDBRANCH   2  11
TORSDOF 5
ENDMDL
MODEL 7
REMARK VINA RESULT:      -7.4      8.998     10.685
REMARK  Name = 676157
REMARK  5 active torsions:
REMARK  status: ('A' for Active; 'I' for Inactive)
REMARK    1  A    between atoms: C_2  and  C_11
REMARK    2  A    between atoms: C_11  and  C_12
REMARK    3  A    between atoms: C_12  and  O_13
REMARK    4  A    between atoms: C_12  and  C_16
REMARK    5  A    between atoms: C_16  and  O_17
REMARK                            x       y       z     vdW  Elec       q    Type
REMARK                         _______ _______ _______ _____ _____    ______ ____
ROOT
ATOM      1  N   UNL     1      34.560 -23.671 -16.103  0.00  0.00    -0.312 N 
ATOM      2  C   UNL     1      34.353 -23.981 -13.916  0.00  0.00    -0.003 C 
ATOM      3  C   UNL     1      33.072 -23.653 -14.442  0.00  0.00    +0.011 C 
ATOM      4  C   UNL     1      33.230 -23.463 -15.816  0.00  0.00    +0.048 C 
ATOM      5  C   UNL     1      35.247 -23.984 -14.962  0.00  0.00    +0.058 C 
ATOM      6  C   UNL     1      31.790 -23.499 -13.878  0.00  0.00    +0.001 C 
ATOM      7  C   UNL     1      32.165 -23.126 -16.660  0.00  0.00    +0.015 C 
ATOM      8  C   UNL     1      30.716 -23.162 -14.710  0.00  0.00    +0.000 C 
ATOM      9  C   UNL     1      30.902 -22.979 -16.078  0.00  0.00    +0.001 C 
ATOM     10  H   UNL     1      34.960 -23.603 -17.001  0.00  0.00    +0.152 HD
ENDROOT
BRANCH   2  11
ATOM     11  C   UNL     1      34.676 -24.267 -12.503  0.00  0.00    +0.068 C 
BRANCH  11  12
ATOM     12  C   UNL     1      36.182 -24.486 -12.251  0.00  0.00    +0.214 C 
BRANCH  12  13
ATOM     13  O   UNL     1      36.393 -25.855 -11.931  0.00  0.00    -0.374 OA
ATOM     14  H   UNL     1      37.288 -25.969 -11.573  0.00  0.00    +0.211 HD
ENDBRANCH  12  13
BRANCH  12  16
ATOM     15  O   UNL     1      37.459 -22.722 -11.159  0.00  0.00    -0.248 OA
ATOM     16  C   UNL     1      36.683 -23.664 -11.084  0.00  0.00    +0.341 C 
BRANCH  16  17
ATOM     17  O   UNL     1      36.177 -24.128  -9.913  0.00  0.00    -0.479 OA
ATOM     18  H   UNL     1      35.734 -23.543  -9.331  0.00  0.00    +0.295 HD
ENDBRANCH  16  17
ENDBRANCH  12  16
ENDBRANCH  11  12
ENDBRANCH   2  11
TORSDOF 5
ENDMDL
MODEL 8
REMARK VINA RESULT:      -7.4      3.120      5.442
REMARK  Name = 676157
REMARK  5 active torsions:
REMARK  status: ('A' for Active; 'I' for Inactive)
REMARK    1  A    between atoms: C_2  and  C_11
REMARK    2  A    between atoms: C_11  and  C_12
REMARK    3  A    between atoms: C_12  and  O_13
REMARK    4  A    between atoms: C_12  and  C_16
REMARK    5  A    between atoms: C_16  and  O_17
REMARK                            x       y       z     vdW  Elec       q    Type
REMARK                         _______ _______ _______ _____ _____    ______ ____
ROOT
ATOM      1  N   UNL     1      34.899 -16.178 -21.817  0.00  0.00    -0.312 N 
ATOM      2  C   UNL     1      34.953 -18.358 -21.407  0.00  0.00    -0.003 C 
ATOM      3  C   UNL     1      34.781 -18.173 -22.808  0.00  0.00    +0.011 C 
ATOM      4  C   UNL     1      34.751 -16.797 -23.038  0.00  0.00    +0.048 C 
ATOM      5  C   UNL     1      35.022 -17.113 -20.825  0.00  0.00    +0.058 C 
ATOM      6  C   UNL     1      34.648 -19.048 -23.904  0.00  0.00    +0.001 C 
ATOM      7  C   UNL     1      34.594 -16.247 -24.317  0.00  0.00    +0.015 C 
ATOM      8  C   UNL     1      34.491 -18.513 -25.188  0.00  0.00    +0.000 C 
ATOM      9  C   UNL     1      34.464 -17.135 -25.389  0.00  0.00    +0.001 C 
ATOM     10  H   UNL     1      34.915 -15.203 -21.678  0.00  0.00    +0.152 HD
ENDROOT
BRANCH   2  11
ATOM     11  C   UNL     1      35.041 -19.650 -20.695  0.00  0.00    +0.068 C 
BRANCH  11  12
ATOM     12  C   UNL     1      33.713 -20.434 -20.682  0.00  0.00    +0.214 C 
BRANCH  12  13
ATOM     13  O   UNL     1      32.647 -19.516 -20.472  0.00  0.00    -0.374 OA
ATOM     14  H   UNL     1      31.913 -19.970 -20.029  0.00  0.00    +0.211 HD
ENDBRANCH  12  13
BRANCH  12  16
ATOM     15  O   UNL     1      32.654 -21.915 -19.064  0.00  0.00    -0.248 OA
ATOM     16  C   UNL     1      33.668 -21.447 -19.560  0.00  0.00    +0.341 C 
BRANCH  16  17
ATOM     17  O   UNL     1      34.922 -21.760 -19.142  0.00  0.00    -0.479 OA
ATOM     18  H   UNL     1      35.599 -21.917 -19.771  0.00  0.00    +0.295 HD
ENDBRANCH  16  17
ENDBRANCH  12  16
ENDBRANCH  11  12
ENDBRANCH   2  11
TORSDOF 5
ENDMDL
MODEL 9
REMARK VINA RESULT:      -7.4      3.363      4.864
REMARK  Name = 676157
REMARK  5 active torsions:
REMARK  status: ('A' for Active; 'I' for Inactive)
REMARK    1  A    between atoms: C_2  and  C_11
REMARK    2  A    between atoms: C_11  and  C_12
REMARK    3  A    between atoms: C_12  and  O_13
REMARK    4  A    between atoms: C_12  and  C_16
REMARK    5  A    between atoms: C_16  and  O_17
REMARK                            x       y       z     vdW  Elec       q    Type
REMARK                         _______ _______ _______ _____ _____    ______ ____
ROOT
ATOM      1  N   UNL     1      34.935 -17.532 -20.935  0.00  0.00    -0.312 N 
ATOM      2  C   UNL     1      34.593 -15.694 -22.130  0.00  0.00    -0.003 C 
ATOM      3  C   UNL     1      34.632 -16.803 -23.022  0.00  0.00    +0.011 C 
ATOM      4  C   UNL     1      34.848 -17.944 -22.246  0.00  0.00    +0.048 C 
ATOM      5  C   UNL     1      34.782 -16.174 -20.855  0.00  0.00    +0.058 C 
ATOM      6  C   UNL     1      34.505 -16.945 -24.418  0.00  0.00    +0.001 C 
ATOM      7  C   UNL     1      34.942 -19.227 -22.799  0.00  0.00    +0.015 C 
ATOM      8  C   UNL     1      34.596 -18.222 -24.984  0.00  0.00    +0.000 C 
ATOM      9  C   UNL     1      34.812 -19.343 -24.186  0.00  0.00    +0.001 C 
ATOM     10  H   UNL     1      35.085 -18.129 -20.166  0.00  0.00    +0.152 HD
ENDROOT
BRANCH   2  11
ATOM     11  C   UNL     1      34.388 -14.277 -22.498  0.00  0.00    +0.068 C 
BRANCH  11  12
ATOM     12  C   UNL     1      32.925 -13.942 -22.854  0.00  0.00    +0.214 C 
BRANCH  12  13
ATOM     13  O   UNL     1      32.920 -13.096 -23.996  0.00  0.00    -0.374 OA
ATOM     14  H   UNL     1      33.184 -12.199 -23.735  0.00  0.00    +0.211 HD
ENDBRANCH  12  13
BRANCH  12  16
ATOM     15  O   UNL     1      32.422 -13.370 -20.539  0.00  0.00    -0.248 OA
ATOM     16  C   UNL     1      32.229 -13.201 -21.734  0.00  0.00    +0.341 C 
BRANCH  16  17
ATOM     17  O   UNL     1      31.320 -12.322 -22.230  0.00  0.00    -0.479 OA
ATOM     18  H   UNL     1      31.595 -11.468 -22.502  0.00  0.00    +0.295 HD
ENDBRANCH  16  17
ENDBRANCH  12  16
ENDBRANCH  11  12
ENDBRANCH   2  11
TORSDOF 5
ENDMDL
