MODEL 1
REMARK VINA RESULT:      -6.5      0.000      0.000
REMARK  Name = 999
REMARK  3 active torsions:
REMARK  status: ('A' for Active; 'I' for Inactive)
REMARK    1  A    between atoms: C_1  and  C_7
REMARK    2  A    between atoms: C_7  and  C_9
REMARK    3  A    between atoms: C_9  and  O_10
REMARK                            x       y       z     vdW  Elec       q    Type
REMARK                         _______ _______ _______ _____ _____    ______ ____
ROOT
ATOM      1  C   UNL     1      34.384 -19.965 -20.755  0.00  0.00    -0.011 C 
ATOM      2  C   UNL     1      35.653 -20.460 -20.457  0.00  0.00    -0.004 C 
ATOM      3  C   UNL     1      33.255 -20.544 -20.174  0.00  0.00    -0.004 C 
ATOM      4  C   UNL     1      35.794 -21.534 -19.579  0.00  0.00    -0.000 C 
ATOM      5  C   UNL     1      33.396 -21.618 -19.295  0.00  0.00    -0.000 C 
ATOM      6  C   UNL     1      34.666 -22.113 -18.998  0.00  0.00    -0.000 C 
ENDROOT
BRANCH   1   7
ATOM      7  C   UNL     1      34.233 -18.816 -21.695  0.00  0.00    +0.136 C 
BRANCH   7   9
ATOM      8  O   UNL     1      35.369 -17.017 -20.511  0.00  0.00    -0.250 OA
ATOM      9  C   UNL     1      35.275 -17.734 -21.498  0.00  0.00    +0.318 C 
BRANCH   9  10
ATOM     10  O   UNL     1      36.116 -17.641 -22.562  0.00  0.00    -0.480 OA
ATOM     11  H   UNL     1      37.012 -17.904 -22.476  0.00  0.00    +0.295 HD
ENDBRANCH   9  10
ENDBRANCH   7   9
ENDBRANCH   1   7
TORSDOF 3
ENDMDL
MODEL 2
REMARK VINA RESULT:      -6.5      0.048      1.529
REMARK  Name = 999
REMARK  3 active torsions:
REMARK  status: ('A' for Active; 'I' for Inactive)
REMARK    1  A    between atoms: C_1  and  C_7
REMARK    2  A    between atoms: C_7  and  C_9
REMARK    3  A    between atoms: C_9  and  O_10
REMARK                            x       y       z     vdW  Elec       q    Type
REMARK                         _______ _______ _______ _____ _____    ______ ____
ROOT
ATOM      1  C   UNL     1      34.383 -19.927 -20.766  0.00  0.00    -0.011 C 
ATOM      2  C   UNL     1      33.261 -20.520 -20.186  0.00  0.00    -0.004 C 
ATOM      3  C   UNL     1      35.658 -20.416 -20.477  0.00  0.00    -0.004 C 
ATOM      4  C   UNL     1      33.414 -21.599 -19.317  0.00  0.00    -0.000 C 
ATOM      5  C   UNL     1      35.810 -21.497 -19.608  0.00  0.00    -0.000 C 
ATOM      6  C   UNL     1      34.688 -22.088 -19.027  0.00  0.00    -0.000 C 
ENDROOT
BRANCH   1   7
ATOM      7  C   UNL     1      34.220 -18.772 -21.695  0.00  0.00    +0.136 C 
BRANCH   7   9
ATOM      8  O   UNL     1      35.348 -16.975 -20.500  0.00  0.00    -0.250 OA
ATOM      9  C   UNL     1      35.255 -17.683 -21.493  0.00  0.00    +0.318 C 
BRANCH   9  10
ATOM     10  O   UNL     1      36.090 -17.574 -22.560  0.00  0.00    -0.480 OA
ATOM     11  H   UNL     1      36.933 -17.983 -22.539  0.00  0.00    +0.295 HD
ENDBRANCH   9  10
ENDBRANCH   7   9
ENDBRANCH   1   7
TORSDOF 3
ENDMDL
MODEL 3
REMARK VINA RESULT:      -6.5      2.784      4.164
REMARK  Name = 999
REMARK  3 active torsions:
REMARK  status: ('A' for Active; 'I' for Inactive)
REMARK    1  A    between atoms: C_1  and  C_7
REMARK    2  A    between atoms: C_7  and  C_9
REMARK    3  A    between atoms: C_9  and  O_10
REMARK                            x       y       z     vdW  Elec       q    Type
REMARK                         _______ _______ _______ _____ _____    ______ ____
ROOT
ATOM      1  C   UNL     1      35.389 -20.965 -19.855  0.00  0.00    -0.011 C 
ATOM      2  C   UNL     1      34.137 -21.435 -19.458  0.00  0.00    -0.004 C 
ATOM      3  C   UNL     1      35.482 -19.890 -20.739  0.00  0.00    -0.004 C 
ATOM      4  C   UNL     1      32.979 -20.831 -19.945  0.00  0.00    -0.000 C 
ATOM      5  C   UNL     1      34.323 -19.285 -21.226  0.00  0.00    -0.000 C 
ATOM      6  C   UNL     1      33.072 -19.756 -20.829  0.00  0.00    -0.000 C 
ENDROOT
BRANCH   1   7
ATOM      7  C   UNL     1      36.628 -21.612 -19.334  0.00  0.00    +0.136 C 
BRANCH   7   9
ATOM      8  O   UNL     1      36.305 -22.582 -17.124  0.00  0.00    -0.250 OA
ATOM      9  C   UNL     1      36.696 -21.656 -17.821  0.00  0.00    +0.318 C 
BRANCH   9  10
ATOM     10  O   UNL     1      37.252 -20.527 -17.306  0.00  0.00    -0.480 OA
ATOM     11  H   UNL     1      36.845 -19.696 -17.452  0.00  0.00    +0.295 HD
ENDBRANCH   9  10
ENDBRANCH   7   9
ENDBRANCH   1   7
TORSDOF 3
ENDMDL
MODEL 4
REMARK VINA RESULT:      -6.2      3.206      4.480
REMARK  Name = 999
REMARK  3 active torsions:
REMARK  status: ('A' for Active; 'I' for Inactive)
REMARK    1  A    between atoms: C_1  and  C_7
REMARK    2  A    between atoms: C_7  and  C_9
REMARK    3  A    between atoms: C_9  and  O_10
REMARK                            x       y       z     vdW  Elec       q    Type
REMARK                         _______ _______ _______ _____ _____    ______ ____
ROOT
ATOM      1  C   UNL     1      34.322 -20.732 -20.017  0.00  0.00    -0.011 C 
ATOM      2  C   UNL     1      33.884 -19.669 -20.806  0.00  0.00    -0.004 C 
ATOM      3  C   UNL     1      35.687 -20.925 -19.802  0.00  0.00    -0.004 C 
ATOM      4  C   UNL     1      34.810 -18.799 -21.381  0.00  0.00    -0.000 C 
ATOM      5  C   UNL     1      36.613 -20.054 -20.376  0.00  0.00    -0.000 C 
ATOM      6  C   UNL     1      36.175 -18.992 -21.166  0.00  0.00    -0.000 C 
ENDROOT
BRANCH   1   7
ATOM      7  C   UNL     1      33.331 -21.663 -19.403  0.00  0.00    +0.136 C 
BRANCH   7   9
ATOM      8  O   UNL     1      34.402 -22.946 -17.631  0.00  0.00    -0.250 OA
ATOM      9  C   UNL     1      33.963 -22.887 -18.771  0.00  0.00    +0.318 C 
BRANCH   9  10
ATOM     10  O   UNL     1      33.992 -23.941 -19.629  0.00  0.00    -0.480 OA
ATOM     11  H   UNL     1      34.765 -24.465 -19.703  0.00  0.00    +0.295 HD
ENDBRANCH   9  10
ENDBRANCH   7   9
ENDBRANCH   1   7
TORSDOF 3
ENDMDL
MODEL 5
REMARK VINA RESULT:      -6.0      2.462      4.465
REMARK  Name = 999
REMARK  3 active torsions:
REMARK  status: ('A' for Active; 'I' for Inactive)
REMARK    1  A    between atoms: C_1  and  C_7
REMARK    2  A    between atoms: C_7  and  C_9
REMARK    3  A    between atoms: C_9  and  O_10
REMARK                            x       y       z     vdW  Elec       q    Type
REMARK                         _______ _______ _______ _____ _____    ______ ____
ROOT
ATOM      1  C   UNL     1      34.772 -19.079 -21.572  0.00  0.00    -0.011 C 
ATOM      2  C   UNL     1      34.908 -17.756 -21.150  0.00  0.00    -0.004 C 
ATOM      3  C   UNL     1      34.771 -19.380 -22.934  0.00  0.00    -0.004 C 
ATOM      4  C   UNL     1      35.043 -16.735 -22.090  0.00  0.00    -0.000 C 
ATOM      5  C   UNL     1      34.906 -18.359 -23.874  0.00  0.00    -0.000 C 
ATOM      6  C   UNL     1      35.042 -17.036 -23.452  0.00  0.00    -0.000 C 
ENDROOT
BRANCH   1   7
ATOM      7  C   UNL     1      34.627 -20.171 -20.566  0.00  0.00    +0.136 C 
BRANCH   7   9
ATOM      8  O   UNL     1      32.229 -19.789 -20.384  0.00  0.00    -0.250 OA
ATOM      9  C   UNL     1      33.186 -20.544 -20.282  0.00  0.00    +0.318 C 
BRANCH   9  10
ATOM     10  O   UNL     1      33.066 -21.841 -19.892  0.00  0.00    -0.480 OA
ATOM     11  H   UNL     1      33.761 -22.254 -19.418  0.00  0.00    +0.295 HD
ENDBRANCH   9  10
ENDBRANCH   7   9
ENDBRANCH   1   7
TORSDOF 3
ENDMDL
MODEL 6
REMARK VINA RESULT:      -5.9      6.796      8.040
REMARK  Name = 999
REMARK  3 active torsions:
REMARK  status: ('A' for Active; 'I' for Inactive)
REMARK    1  A    between atoms: C_1  and  C_7
REMARK    2  A    between atoms: C_7  and  C_9
REMARK    3  A    between atoms: C_9  and  O_10
REMARK                            x       y       z     vdW  Elec       q    Type
REMARK                         _______ _______ _______ _____ _____    ______ ____
ROOT
ATOM      1  C   UNL     1      29.957 -22.904 -15.443  0.00  0.00    -0.011 C 
ATOM      2  C   UNL     1      30.711 -22.819 -16.613  0.00  0.00    -0.004 C 
ATOM      3  C   UNL     1      30.573 -23.256 -14.241  0.00  0.00    -0.004 C 
ATOM      4  C   UNL     1      32.080 -23.085 -16.582  0.00  0.00    -0.000 C 
ATOM      5  C   UNL     1      31.942 -23.521 -14.209  0.00  0.00    -0.000 C 
ATOM      6  C   UNL     1      32.695 -23.437 -15.380  0.00  0.00    -0.000 C 
ENDROOT
BRANCH   1   7
ATOM      7  C   UNL     1      28.494 -22.620 -15.477  0.00  0.00    +0.136 C 
BRANCH   7   9
ATOM      8  O   UNL     1      27.772 -23.855 -17.448  0.00  0.00    -0.250 OA
ATOM      9  C   UNL     1      27.876 -22.793 -16.850  0.00  0.00    +0.318 C 
BRANCH   9  10
ATOM     10  O   UNL     1      27.439 -21.612 -17.361  0.00  0.00    -0.480 OA
ATOM     11  H   UNL     1      26.957 -21.017 -16.820  0.00  0.00    +0.295 HD
ENDBRANCH   9  10
ENDBRANCH   7   9
ENDBRANCH   1   7
TORSDOF 3
ENDMDL
MODEL 7
REMARK VINA RESULT:      -5.9      6.784      8.054
REMARK  Name = 999
REMARK  3 active torsions:
REMARK  status: ('A' for Active; 'I' for Inactive)
REMARK    1  A    between atoms: C_1  and  C_7
REMARK    2  A    between atoms: C_7  and  C_9
REMARK    3  A    between atoms: C_9  and  O_10
REMARK                            x       y       z     vdW  Elec       q    Type
REMARK                         _______ _______ _______ _____ _____    ______ ____
ROOT
ATOM      1  C   UNL     1      29.979 -22.886 -15.448  0.00  0.00    -0.011 C 
ATOM      2  C   UNL     1      30.601 -23.226 -14.247  0.00  0.00    -0.004 C 
ATOM      3  C   UNL     1      30.726 -22.820 -16.625  0.00  0.00    -0.004 C 
ATOM      4  C   UNL     1      31.968 -23.500 -14.222  0.00  0.00    -0.000 C 
ATOM      5  C   UNL     1      32.093 -23.094 -16.600  0.00  0.00    -0.000 C 
ATOM      6  C   UNL     1      32.714 -23.434 -15.399  0.00  0.00    -0.000 C 
ENDROOT
BRANCH   1   7
ATOM      7  C   UNL     1      28.517 -22.593 -15.475  0.00  0.00    +0.136 C 
BRANCH   7   9
ATOM      8  O   UNL     1      27.770 -23.868 -17.410  0.00  0.00    -0.250 OA
ATOM      9  C   UNL     1      27.885 -22.793 -16.838  0.00  0.00    +0.318 C 
BRANCH   9  10
ATOM     10  O   UNL     1      27.449 -21.621 -17.371  0.00  0.00    -0.480 OA
ATOM     11  H   UNL     1      27.957 -20.840 -17.265  0.00  0.00    +0.295 HD
ENDBRANCH   9  10
ENDBRANCH   7   9
ENDBRANCH   1   7
TORSDOF 3
ENDMDL
MODEL 8
REMARK VINA RESULT:      -5.9     10.727     11.918
REMARK  Name = 999
REMARK  3 active torsions:
REMARK  status: ('A' for Active; 'I' for Inactive)
REMARK    1  A    between atoms: C_1  and  C_7
REMARK    2  A    between atoms: C_7  and  C_9
REMARK    3  A    between atoms: C_9  and  O_10
REMARK                            x       y       z     vdW  Elec       q    Type
REMARK                         _______ _______ _______ _____ _____    ______ ____
ROOT
ATOM      1  C   UNL     1      32.971  -8.367 -22.447  0.00  0.00    -0.011 C 
ATOM      2  C   UNL     1      34.005  -7.523 -22.854  0.00  0.00    -0.004 C 
ATOM      3  C   UNL     1      32.864  -9.649 -22.987  0.00  0.00    -0.004 C 
ATOM      4  C   UNL     1      34.931  -7.961 -23.801  0.00  0.00    -0.000 C 
ATOM      5  C   UNL     1      33.790 -10.087 -23.933  0.00  0.00    -0.000 C 
ATOM      6  C   UNL     1      34.823  -9.243 -24.340  0.00  0.00    -0.000 C 
ENDROOT
BRANCH   1   7
ATOM      7  C   UNL     1      31.981  -7.898 -21.435  0.00  0.00    +0.136 C 
BRANCH   7   9
ATOM      8  O   UNL     1      32.125  -9.219 -19.394  0.00  0.00    -0.250 OA
ATOM      9  C   UNL     1      32.391  -8.194 -20.006  0.00  0.00    +0.318 C 
BRANCH   9  10
ATOM     10  O   UNL     1      33.104  -7.173 -19.462  0.00  0.00    -0.480 OA
ATOM     11  H   UNL     1      33.653  -6.642 -20.005  0.00  0.00    +0.295 HD
ENDBRANCH   9  10
ENDBRANCH   7   9
ENDBRANCH   1   7
TORSDOF 3
ENDMDL
MODEL 9
REMARK VINA RESULT:      -5.8      2.275      4.313
REMARK  Name = 999
REMARK  3 active torsions:
REMARK  status: ('A' for Active; 'I' for Inactive)
REMARK    1  A    between atoms: C_1  and  C_7
REMARK    2  A    between atoms: C_7  and  C_9
REMARK    3  A    between atoms: C_9  and  O_10
REMARK                            x       y       z     vdW  Elec       q    Type
REMARK                         _______ _______ _______ _____ _____    ______ ____
ROOT
ATOM      1  C   UNL     1      34.597 -18.938 -21.656  0.00  0.00    -0.011 C 
ATOM      2  C   UNL     1      34.814 -19.266 -22.994  0.00  0.00    -0.004 C 
ATOM      3  C   UNL     1      34.612 -17.602 -21.255  0.00  0.00    -0.004 C 
ATOM      4  C   UNL     1      35.047 -18.259 -23.931  0.00  0.00    -0.000 C 
ATOM      5  C   UNL     1      34.844 -16.594 -22.191  0.00  0.00    -0.000 C 
ATOM      6  C   UNL     1      35.062 -16.923 -23.529  0.00  0.00    -0.000 C 
ENDROOT
BRANCH   1   7
ATOM      7  C   UNL     1      34.349 -20.015 -20.655  0.00  0.00    +0.136 C 
BRANCH   7   9
ATOM      8  O   UNL     1      36.652 -20.016 -19.865  0.00  0.00    -0.250 OA
ATOM      9  C   UNL     1      35.618 -20.627 -20.099  0.00  0.00    +0.318 C 
BRANCH   9  10
ATOM     10  O   UNL     1      35.484 -21.962 -19.882  0.00  0.00    -0.480 OA
ATOM     11  H   UNL     1      36.199 -22.541 -20.062  0.00  0.00    +0.295 HD
ENDBRANCH   9  10
ENDBRANCH   7   9
ENDBRANCH   1   7
TORSDOF 3
ENDMDL
