MODEL 1
REMARK VINA RESULT:     -10.1      0.000      0.000
REMARK  Name = 656969
REMARK  5 active torsions:
REMARK  status: ('A' for Active; 'I' for Inactive)
REMARK    1  A    between atoms: N_1  and  C_8
REMARK    2  A    between atoms: C_4  and  C_18
REMARK    3  A    between atoms: C_11  and  N_16
REMARK    4  A    between atoms: C_18  and  O_19
REMARK    5  A    between atoms: O_19  and  C_20
REMARK                            x       y       z     vdW  Elec       q    Type
REMARK                         _______ _______ _______ _____ _____    ______ ____
ROOT
ATOM      1  N   UNL     1      35.077 -18.152 -21.847  0.00  0.00    -0.234 N 
ATOM      2  N   UNL     1      34.956 -16.922 -21.303  0.00  0.00    -0.170 NA
ATOM      3  C   UNL     1      34.881 -18.159 -23.204  0.00  0.00    +0.068 A 
ATOM      4  C   UNL     1      34.617 -16.859 -23.561  0.00  0.00    +0.104 A 
ATOM      5  C   UNL     1      34.677 -16.142 -22.351  0.00  0.00    +0.087 A 
ATOM      6  C   UNL     1      34.962 -19.389 -24.018  0.00  0.00    +0.052 C 
ATOM      7  C   UNL     1      34.473 -14.697 -22.144  0.00  0.00    +0.054 C 
ENDROOT
BRANCH   1   8
ATOM      8  C   UNL     1      35.370 -19.240 -21.047  0.00  0.00    +0.084 C 
ATOM      9  C   UNL     1      34.347 -20.078 -20.603  0.00  0.00    +0.043 C 
ATOM     10  C   UNL     1      36.692 -19.500 -20.682  0.00  0.00    +0.019 C 
ATOM     11  C   UNL     1      34.644 -21.175 -19.794  0.00  0.00    +0.144 C 
ATOM     12  C   UNL     1      36.990 -20.597 -19.872  0.00  0.00    +0.003 C 
ATOM     13  C   UNL     1      35.965 -21.435 -19.429  0.00  0.00    +0.024 C 
BRANCH  11  16
ATOM     14  O   UNL     1      33.779 -23.271 -19.373  0.00  0.00    -0.126 OA
ATOM     15  O   UNL     1      32.535 -21.517 -18.926  0.00  0.00    -0.126 OA
ATOM     16  N   UNL     1      33.603 -22.029 -19.343  0.00  0.00    +0.058 N 
ENDBRANCH  11  16
ENDBRANCH   1   8
BRANCH   4  18
ATOM     17  O   UNL     1      34.908 -16.816 -25.911  0.00  0.00    -0.245 OA
ATOM     18  C   UNL     1      34.346 -16.387 -24.886  0.00  0.00    +0.344 C 
BRANCH  18  19
ATOM     19  O   UNL     1      33.391 -15.391 -24.950  0.00  0.00    -0.445 OA
BRANCH  19  20
ATOM     20  C   UNL     1      32.880 -15.057 -26.246  0.00  0.00    +0.209 C 
ATOM     21  C   UNL     1      33.205 -13.609 -26.547  0.00  0.00    +0.051 C 
ENDBRANCH  19  20
ENDBRANCH  18  19
ENDBRANCH   4  18
TORSDOF 5
ENDMDL
MODEL 2
REMARK VINA RESULT:     -10.0      1.957      7.190
REMARK  Name = 656969
REMARK  5 active torsions:
REMARK  status: ('A' for Active; 'I' for Inactive)
REMARK    1  A    between atoms: N_1  and  C_8
REMARK    2  A    between atoms: C_4  and  C_18
REMARK    3  A    between atoms: C_11  and  N_16
REMARK    4  A    between atoms: C_18  and  O_19
REMARK    5  A    between atoms: O_19  and  C_20
REMARK                            x       y       z     vdW  Elec       q    Type
REMARK                         _______ _______ _______ _____ _____    ______ ____
ROOT
ATOM      1  N   UNL     1      34.931 -19.497 -20.736  0.00  0.00    -0.234 N 
ATOM      2  N   UNL     1      36.099 -19.855 -20.161  0.00  0.00    -0.170 NA
ATOM      3  C   UNL     1      33.909 -20.368 -20.461  0.00  0.00    +0.068 A 
ATOM      4  C   UNL     1      34.444 -21.349 -19.662  0.00  0.00    +0.104 A 
ATOM      5  C   UNL     1      35.794 -20.981 -19.510  0.00  0.00    +0.087 A 
ATOM      6  C   UNL     1      32.539 -20.185 -20.982  0.00  0.00    +0.052 C 
ATOM      7  C   UNL     1      36.842 -21.681 -18.744  0.00  0.00    +0.054 C 
ENDROOT
BRANCH   1   8
ATOM      8  C   UNL     1      34.859 -18.353 -21.508  0.00  0.00    +0.084 C 
ATOM      9  C   UNL     1      34.763 -18.451 -22.897  0.00  0.00    +0.043 C 
ATOM     10  C   UNL     1      34.884 -17.098 -20.899  0.00  0.00    +0.019 C 
ATOM     11  C   UNL     1      34.691 -17.296 -23.675  0.00  0.00    +0.144 C 
ATOM     12  C   UNL     1      34.814 -15.942 -21.677  0.00  0.00    +0.003 C 
ATOM     13  C   UNL     1      34.717 -16.041 -23.066  0.00  0.00    +0.024 C 
BRANCH  11  16
ATOM     14  O   UNL     1      34.143 -18.452 -25.593  0.00  0.00    -0.126 OA
ATOM     15  O   UNL     1      34.956 -16.423 -25.793  0.00  0.00    -0.126 OA
ATOM     16  N   UNL     1      34.592 -17.396 -25.088  0.00  0.00    +0.058 N 
ENDBRANCH  11  16
ENDBRANCH   1   8
BRANCH   4  18
ATOM     17  O   UNL     1      33.955 -23.657 -19.462  0.00  0.00    -0.245 OA
ATOM     18  C   UNL     1      33.742 -22.477 -19.127  0.00  0.00    +0.344 C 
BRANCH  18  19
ATOM     19  O   UNL     1      32.782 -22.156 -18.188  0.00  0.00    -0.445 OA
BRANCH  19  20
ATOM     20  C   UNL     1      32.576 -23.086 -17.118  0.00  0.00    +0.209 C 
ATOM     21  C   UNL     1      31.191 -22.877 -16.542  0.00  0.00    +0.051 C 
ENDBRANCH  19  20
ENDBRANCH  18  19
ENDBRANCH   4  18
TORSDOF 5
ENDMDL
MODEL 3
REMARK VINA RESULT:      -9.8      2.313      7.269
REMARK  Name = 656969
REMARK  5 active torsions:
REMARK  status: ('A' for Active; 'I' for Inactive)
REMARK    1  A    between atoms: N_1  and  C_8
REMARK    2  A    between atoms: C_4  and  C_18
REMARK    3  A    between atoms: C_11  and  N_16
REMARK    4  A    between atoms: C_18  and  O_19
REMARK    5  A    between atoms: O_19  and  C_20
REMARK                            x       y       z     vdW  Elec       q    Type
REMARK                         _______ _______ _______ _____ _____    ______ ____
ROOT
ATOM      1  N   UNL     1      34.991 -19.798 -20.672  0.00  0.00    -0.234 N 
ATOM      2  N   UNL     1      36.120 -20.119 -20.006  0.00  0.00    -0.170 NA
ATOM      3  C   UNL     1      33.936 -20.620 -20.366  0.00  0.00    +0.068 A 
ATOM      4  C   UNL     1      34.409 -21.527 -19.449  0.00  0.00    +0.104 A 
ATOM      5  C   UNL     1      35.759 -21.170 -19.265  0.00  0.00    +0.087 A 
ATOM      6  C   UNL     1      32.598 -20.464 -20.971  0.00  0.00    +0.052 C 
ATOM      7  C   UNL     1      36.751 -21.811 -18.382  0.00  0.00    +0.054 C 
ENDROOT
BRANCH   1   8
ATOM      8  C   UNL     1      34.982 -18.735 -21.555  0.00  0.00    +0.084 C 
ATOM      9  C   UNL     1      34.835 -17.432 -21.079  0.00  0.00    +0.043 C 
ATOM     10  C   UNL     1      35.119 -18.965 -22.924  0.00  0.00    +0.019 C 
ATOM     11  C   UNL     1      34.825 -16.359 -21.971  0.00  0.00    +0.144 C 
ATOM     12  C   UNL     1      35.109 -17.893 -23.817  0.00  0.00    +0.003 C 
ATOM     13  C   UNL     1      34.962 -16.590 -23.340  0.00  0.00    +0.024 C 
BRANCH  11  16
ATOM     14  O   UNL     1      34.360 -14.124 -22.290  0.00  0.00    -0.126 OA
ATOM     15  O   UNL     1      34.865 -14.807 -20.266  0.00  0.00    -0.126 OA
ATOM     16  N   UNL     1      34.677 -15.033 -21.486  0.00  0.00    +0.058 N 
ENDBRANCH  11  16
ENDBRANCH   1   8
BRANCH   4  18
ATOM     17  O   UNL     1      33.863 -23.795 -19.045  0.00  0.00    -0.245 OA
ATOM     18  C   UNL     1      33.656 -22.584 -18.844  0.00  0.00    +0.344 C 
BRANCH  18  19
ATOM     19  O   UNL     1      32.653 -22.155 -17.997  0.00  0.00    -0.445 OA
BRANCH  19  20
ATOM     20  C   UNL     1      32.282 -23.030 -16.925  0.00  0.00    +0.209 C 
ATOM     21  C   UNL     1      30.834 -22.778 -16.561  0.00  0.00    +0.051 C 
ENDBRANCH  19  20
ENDBRANCH  18  19
ENDBRANCH   4  18
TORSDOF 5
ENDMDL
MODEL 4
REMARK VINA RESULT:      -9.7      1.715      2.826
REMARK  Name = 656969
REMARK  5 active torsions:
REMARK  status: ('A' for Active; 'I' for Inactive)
REMARK    1  A    between atoms: N_1  and  C_8
REMARK    2  A    between atoms: C_4  and  C_18
REMARK    3  A    between atoms: C_11  and  N_16
REMARK    4  A    between atoms: C_18  and  O_19
REMARK    5  A    between atoms: O_19  and  C_20
REMARK                            x       y       z     vdW  Elec       q    Type
REMARK                         _______ _______ _______ _____ _____    ______ ____
ROOT
ATOM      1  N   UNL     1      34.642 -17.425 -22.352  0.00  0.00    -0.234 N 
ATOM      2  N   UNL     1      34.558 -17.554 -23.693  0.00  0.00    -0.170 NA
ATOM      3  C   UNL     1      34.302 -16.172 -21.912  0.00  0.00    +0.068 A 
ATOM      4  C   UNL     1      33.980 -15.446 -23.032  0.00  0.00    +0.104 A 
ATOM      5  C   UNL     1      34.155 -16.346 -24.099  0.00  0.00    +0.087 A 
ATOM      6  C   UNL     1      34.318 -15.794 -20.484  0.00  0.00    +0.052 C 
ATOM      7  C   UNL     1      33.948 -16.097 -25.537  0.00  0.00    +0.054 C 
ENDROOT
BRANCH   1   8
ATOM      8  C   UNL     1      35.038 -18.497 -21.574  0.00  0.00    +0.084 C 
ATOM      9  C   UNL     1      34.084 -19.367 -21.044  0.00  0.00    +0.043 C 
ATOM     10  C   UNL     1      36.393 -18.708 -21.317  0.00  0.00    +0.019 C 
ATOM     11  C   UNL     1      34.485 -20.447 -20.258  0.00  0.00    +0.144 C 
ATOM     12  C   UNL     1      36.794 -19.788 -20.531  0.00  0.00    +0.003 C 
ATOM     13  C   UNL     1      35.840 -20.658 -20.001  0.00  0.00    +0.024 C 
BRANCH  11  16
ATOM     14  O   UNL     1      33.780 -22.558 -19.653  0.00  0.00    -0.126 OA
ATOM     15  O   UNL     1      32.419 -20.866 -19.325  0.00  0.00    -0.126 OA
ATOM     16  N   UNL     1      33.515 -21.333 -19.720  0.00  0.00    +0.058 N 
ENDBRANCH  11  16
ENDBRANCH   1   8
BRANCH   4  18
ATOM     17  O   UNL     1      34.247 -13.144 -23.521  0.00  0.00    -0.245 OA
ATOM     18  C   UNL     1      33.563 -14.075 -23.057  0.00  0.00    +0.344 C 
BRANCH  18  19
ATOM     19  O   UNL     1      32.314 -13.850 -22.512  0.00  0.00    -0.445 OA
BRANCH  19  20
ATOM     20  C   UNL     1      32.014 -12.514 -22.092  0.00  0.00    +0.209 C 
ATOM     21  C   UNL     1      31.948 -12.475 -20.580  0.00  0.00    +0.051 C 
ENDBRANCH  19  20
ENDBRANCH  18  19
ENDBRANCH   4  18
TORSDOF 5
ENDMDL
MODEL 5
REMARK VINA RESULT:      -9.0      8.190      9.889
REMARK  Name = 656969
REMARK  5 active torsions:
REMARK  status: ('A' for Active; 'I' for Inactive)
REMARK    1  A    between atoms: N_1  and  C_8
REMARK    2  A    between atoms: C_4  and  C_18
REMARK    3  A    between atoms: C_11  and  N_16
REMARK    4  A    between atoms: C_18  and  O_19
REMARK    5  A    between atoms: O_19  and  C_20
REMARK                            x       y       z     vdW  Elec       q    Type
REMARK                         _______ _______ _______ _____ _____    ______ ____
ROOT
ATOM      1  N   UNL     1      33.587 -23.838 -14.897  0.00  0.00    -0.234 N 
ATOM      2  N   UNL     1      32.827 -24.005 -13.794  0.00  0.00    -0.170 NA
ATOM      3  C   UNL     1      32.860 -23.459 -15.996  0.00  0.00    +0.068 A 
ATOM      4  C   UNL     1      31.553 -23.375 -15.583  0.00  0.00    +0.104 A 
ATOM      5  C   UNL     1      31.592 -23.721 -14.219  0.00  0.00    +0.087 A 
ATOM      6  C   UNL     1      33.475 -23.217 -17.318  0.00  0.00    +0.052 C 
ATOM      7  C   UNL     1      30.465 -23.795 -13.272  0.00  0.00    +0.054 C 
ENDROOT
BRANCH   1   8
ATOM      8  C   UNL     1      34.952 -24.049 -14.840  0.00  0.00    +0.084 C 
ATOM      9  C   UNL     1      35.478 -25.310 -15.123  0.00  0.00    +0.043 C 
ATOM     10  C   UNL     1      35.804 -23.000 -14.495  0.00  0.00    +0.019 C 
ATOM     11  C   UNL     1      36.855 -25.522 -15.063  0.00  0.00    +0.144 C 
ATOM     12  C   UNL     1      37.182 -23.211 -14.434  0.00  0.00    +0.003 C 
ATOM     13  C   UNL     1      37.707 -24.473 -14.718  0.00  0.00    +0.024 C 
BRANCH  11  16
ATOM     14  O   UNL     1      38.373 -27.217 -14.690  0.00  0.00    -0.126 OA
ATOM     15  O   UNL     1      36.865 -27.490 -16.263  0.00  0.00    -0.126 OA
ATOM     16  N   UNL     1      37.390 -26.804 -15.353  0.00  0.00    +0.058 N 
ENDBRANCH  11  16
ENDBRANCH   1   8
BRANCH   4  18
ATOM     17  O   UNL     1      30.411 -22.028 -17.161  0.00  0.00    -0.245 OA
ATOM     18  C   UNL     1      30.432 -23.011 -16.398  0.00  0.00    +0.344 C 
BRANCH  18  19
ATOM     19  O   UNL     1      29.343 -23.851 -16.273  0.00  0.00    -0.445 OA
BRANCH  19  20
ATOM     20  C   UNL     1      28.102 -23.400 -16.826  0.00  0.00    +0.209 C 
ATOM     21  C   UNL     1      27.439 -22.456 -15.845  0.00  0.00    +0.051 C 
ENDBRANCH  19  20
ENDBRANCH  18  19
ENDBRANCH   4  18
TORSDOF 5
ENDMDL
MODEL 6
REMARK VINA RESULT:      -9.0      3.257      7.695
REMARK  Name = 656969
REMARK  5 active torsions:
REMARK  status: ('A' for Active; 'I' for Inactive)
REMARK    1  A    between atoms: N_1  and  C_8
REMARK    2  A    between atoms: C_4  and  C_18
REMARK    3  A    between atoms: C_11  and  N_16
REMARK    4  A    between atoms: C_18  and  O_19
REMARK    5  A    between atoms: O_19  and  C_20
REMARK                            x       y       z     vdW  Elec       q    Type
REMARK                         _______ _______ _______ _____ _____    ______ ____
ROOT
ATOM      1  N   UNL     1      33.938 -15.428 -23.105  0.00  0.00    -0.234 N 
ATOM      2  N   UNL     1      33.905 -16.017 -24.319  0.00  0.00    -0.170 NA
ATOM      3  C   UNL     1      34.523 -16.212 -22.144  0.00  0.00    +0.068 A 
ATOM      4  C   UNL     1      34.890 -17.378 -22.770  0.00  0.00    +0.104 A 
ATOM      5  C   UNL     1      34.486 -17.202 -24.107  0.00  0.00    +0.087 A 
ATOM      6  C   UNL     1      34.672 -15.779 -20.739  0.00  0.00    +0.052 C 
ATOM      7  C   UNL     1      34.634 -18.147 -25.229  0.00  0.00    +0.054 C 
ENDROOT
BRANCH   1   8
ATOM      8  C   UNL     1      33.414 -14.160 -22.933  0.00  0.00    +0.084 C 
ATOM      9  C   UNL     1      33.892 -13.096 -23.699  0.00  0.00    +0.043 C 
ATOM     10  C   UNL     1      32.408 -13.944 -21.991  0.00  0.00    +0.019 C 
ATOM     11  C   UNL     1      33.363 -11.817 -23.524  0.00  0.00    +0.144 C 
ATOM     12  C   UNL     1      31.880 -12.665 -21.814  0.00  0.00    +0.003 C 
ATOM     13  C   UNL     1      32.357 -11.601 -22.581  0.00  0.00    +0.024 C 
BRANCH  11  16
ATOM     14  O   UNL     1      34.603 -10.976 -25.276  0.00  0.00    -0.126 OA
ATOM     15  O   UNL     1      33.506  -9.566 -24.000  0.00  0.00    -0.126 OA
ATOM     16  N   UNL     1      33.848 -10.735 -24.304  0.00  0.00    +0.058 N 
ENDBRANCH  11  16
ENDBRANCH   1   8
BRANCH   4  18
ATOM     17  O   UNL     1      36.730 -18.504 -21.793  0.00  0.00    -0.245 OA
ATOM     18  C   UNL     1      35.539 -18.497 -22.155  0.00  0.00    +0.344 C 
BRANCH  18  19
ATOM     19  O   UNL     1      34.728 -19.603 -21.989  0.00  0.00    -0.445 OA
BRANCH  19  20
ATOM     20  C   UNL     1      34.366 -19.953 -20.648  0.00  0.00    +0.209 C 
ATOM     21  C   UNL     1      32.858 -20.064 -20.557  0.00  0.00    +0.051 C 
ENDBRANCH  19  20
ENDBRANCH  18  19
ENDBRANCH   4  18
TORSDOF 5
ENDMDL
MODEL 7
REMARK VINA RESULT:      -9.0      4.630      7.236
REMARK  Name = 656969
REMARK  5 active torsions:
REMARK  status: ('A' for Active; 'I' for Inactive)
REMARK    1  A    between atoms: N_1  and  C_8
REMARK    2  A    between atoms: C_4  and  C_18
REMARK    3  A    between atoms: C_11  and  N_16
REMARK    4  A    between atoms: C_18  and  O_19
REMARK    5  A    between atoms: O_19  and  C_20
REMARK                            x       y       z     vdW  Elec       q    Type
REMARK                         _______ _______ _______ _____ _____    ______ ____
ROOT
ATOM      1  N   UNL     1      32.832 -12.725 -22.513  0.00  0.00    -0.234 N 
ATOM      2  N   UNL     1      31.943 -12.665 -21.499  0.00  0.00    -0.170 NA
ATOM      3  C   UNL     1      33.012 -11.519 -23.140  0.00  0.00    +0.068 A 
ATOM      4  C   UNL     1      32.191 -10.625 -22.496  0.00  0.00    +0.104 A 
ATOM      5  C   UNL     1      31.558 -11.386 -21.496  0.00  0.00    +0.087 A 
ATOM      6  C   UNL     1      33.936 -11.339 -24.278  0.00  0.00    +0.052 C 
ATOM      7  C   UNL     1      30.568 -10.929 -20.503  0.00  0.00    +0.054 C 
ENDROOT
BRANCH   1   8
ATOM      8  C   UNL     1      33.455 -13.920 -22.822  0.00  0.00    +0.084 C 
ATOM      9  C   UNL     1      33.295 -14.485 -24.087  0.00  0.00    +0.043 C 
ATOM     10  C   UNL     1      34.242 -14.563 -21.866  0.00  0.00    +0.019 C 
ATOM     11  C   UNL     1      33.922 -15.692 -24.397  0.00  0.00    +0.144 C 
ATOM     12  C   UNL     1      34.869 -15.770 -22.175  0.00  0.00    +0.003 C 
ATOM     13  C   UNL     1      34.709 -16.334 -23.441  0.00  0.00    +0.024 C 
BRANCH  11  16
ATOM     14  O   UNL     1      33.352 -15.545 -26.627  0.00  0.00    -0.126 OA
ATOM     15  O   UNL     1      34.032 -17.482 -25.847  0.00  0.00    -0.126 OA
ATOM     16  N   UNL     1      33.760 -16.267 -25.685  0.00  0.00    +0.058 N 
ENDBRANCH  11  16
ENDBRANCH   1   8
BRANCH   4  18
ATOM     17  O   UNL     1      31.204  -8.783 -23.610  0.00  0.00    -0.245 OA
ATOM     18  C   UNL     1      32.046  -9.235 -22.812  0.00  0.00    +0.344 C 
BRANCH  18  19
ATOM     19  O   UNL     1      32.934  -8.407 -22.154  0.00  0.00    -0.445 OA
BRANCH  19  20
ATOM     20  C   UNL     1      33.421  -7.267 -22.871  0.00  0.00    +0.209 C 
ATOM     21  C   UNL     1      34.727  -7.630 -23.545  0.00  0.00    +0.051 C 
ENDBRANCH  19  20
ENDBRANCH  18  19
ENDBRANCH   4  18
TORSDOF 5
ENDMDL
MODEL 8
REMARK VINA RESULT:      -9.0      7.221     10.217
REMARK  Name = 656969
REMARK  5 active torsions:
REMARK  status: ('A' for Active; 'I' for Inactive)
REMARK    1  A    between atoms: N_1  and  C_8
REMARK    2  A    between atoms: C_4  and  C_18
REMARK    3  A    between atoms: C_11  and  N_16
REMARK    4  A    between atoms: C_18  and  O_19
REMARK    5  A    between atoms: O_19  and  C_20
REMARK                            x       y       z     vdW  Elec       q    Type
REMARK                         _______ _______ _______ _____ _____    ______ ____
ROOT
ATOM      1  N   UNL     1      34.805 -23.972 -15.520  0.00  0.00    -0.234 N 
ATOM      2  N   UNL     1      35.050 -23.448 -16.740  0.00  0.00    -0.170 NA
ATOM      3  C   UNL     1      33.469 -24.020 -15.216  0.00  0.00    +0.068 A 
ATOM      4  C   UNL     1      32.809 -23.495 -16.300  0.00  0.00    +0.104 A 
ATOM      5  C   UNL     1      33.831 -23.160 -17.208  0.00  0.00    +0.087 A 
ATOM      6  C   UNL     1      32.958 -24.553 -13.937  0.00  0.00    +0.052 C 
ATOM      7  C   UNL     1      33.692 -22.558 -18.546  0.00  0.00    +0.054 C 
ENDROOT
BRANCH   1   8
ATOM      8  C   UNL     1      35.852 -24.395 -14.723  0.00  0.00    +0.084 C 
ATOM      9  C   UNL     1      36.342 -23.565 -13.714  0.00  0.00    +0.043 C 
ATOM     10  C   UNL     1      36.421 -25.652 -14.929  0.00  0.00    +0.019 C 
ATOM     11  C   UNL     1      37.399 -23.992 -12.910  0.00  0.00    +0.144 C 
ATOM     12  C   UNL     1      37.479 -26.079 -14.126  0.00  0.00    +0.003 C 
ATOM     13  C   UNL     1      37.968 -25.249 -13.116  0.00  0.00    +0.024 C 
BRANCH  11  16
ATOM     14  O   UNL     1      39.124 -23.161 -11.626  0.00  0.00    -0.126 OA
ATOM     15  O   UNL     1      37.093 -22.411 -11.260  0.00  0.00    -0.126 OA
ATOM     16  N   UNL     1      37.896 -23.148 -11.883  0.00  0.00    +0.058 N 
ENDBRANCH  11  16
ENDBRANCH   1   8
BRANCH   4  18
ATOM     17  O   UNL     1      30.835 -22.332 -16.899  0.00  0.00    -0.245 OA
ATOM     18  C   UNL     1      31.390 -23.343 -16.431  0.00  0.00    +0.344 C 
BRANCH  18  19
ATOM     19  O   UNL     1      30.659 -24.426 -15.985  0.00  0.00    -0.445 OA
BRANCH  19  20
ATOM     20  C   UNL     1      29.423 -24.150 -15.315  0.00  0.00    +0.209 C 
ATOM     21  C   UNL     1      28.944 -25.411 -14.625  0.00  0.00    +0.051 C 
ENDBRANCH  19  20
ENDBRANCH  18  19
ENDBRANCH   4  18
TORSDOF 5
ENDMDL
MODEL 9
REMARK VINA RESULT:      -9.0      1.481      2.010
REMARK  Name = 656969
REMARK  5 active torsions:
REMARK  status: ('A' for Active; 'I' for Inactive)
REMARK    1  A    between atoms: N_1  and  C_8
REMARK    2  A    between atoms: C_4  and  C_18
REMARK    3  A    between atoms: C_11  and  N_16
REMARK    4  A    between atoms: C_18  and  O_19
REMARK    5  A    between atoms: O_19  and  C_20
REMARK                            x       y       z     vdW  Elec       q    Type
REMARK                         _______ _______ _______ _____ _____    ______ ____
ROOT
ATOM      1  N   UNL     1      34.260 -18.058 -21.886  0.00  0.00    -0.234 N 
ATOM      2  N   UNL     1      34.245 -16.830 -21.325  0.00  0.00    -0.170 NA
ATOM      3  C   UNL     1      34.353 -18.022 -23.254  0.00  0.00    +0.068 A 
ATOM      4  C   UNL     1      34.400 -16.693 -23.600  0.00  0.00    +0.104 A 
ATOM      5  C   UNL     1      34.330 -16.006 -22.374  0.00  0.00    +0.087 A 
ATOM      6  C   UNL     1      34.386 -19.241 -24.086  0.00  0.00    +0.052 C 
ATOM      7  C   UNL     1      34.343 -14.549 -22.151  0.00  0.00    +0.054 C 
ENDROOT
BRANCH   1   8
ATOM      8  C   UNL     1      34.186 -19.186 -21.091  0.00  0.00    +0.084 C 
ATOM      9  C   UNL     1      35.353 -19.806 -20.646  0.00  0.00    +0.043 C 
ATOM     10  C   UNL     1      32.941 -19.707 -20.735  0.00  0.00    +0.019 C 
ATOM     11  C   UNL     1      35.277 -20.946 -19.845  0.00  0.00    +0.144 C 
ATOM     12  C   UNL     1      32.864 -20.847 -19.935  0.00  0.00    +0.003 C 
ATOM     13  C   UNL     1      34.033 -21.466 -19.489  0.00  0.00    +0.024 C 
BRANCH  11  16
ATOM     14  O   UNL     1      36.480 -22.097 -18.249  0.00  0.00    -0.126 OA
ATOM     15  O   UNL     1      37.469 -21.595 -20.144  0.00  0.00    -0.126 OA
ATOM     16  N   UNL     1      36.466 -21.576 -19.390  0.00  0.00    +0.058 N 
ENDBRANCH  11  16
ENDBRANCH   1   8
BRANCH   4  18
ATOM     17  O   UNL     1      35.184 -16.684 -25.835  0.00  0.00    -0.245 OA
ATOM     18  C   UNL     1      34.497 -16.173 -24.931  0.00  0.00    +0.344 C 
BRANCH  18  19
ATOM     19  O   UNL     1      33.757 -15.027 -25.149  0.00  0.00    -0.445 OA
BRANCH  19  20
ATOM     20  C   UNL     1      32.993 -14.962 -26.359  0.00  0.00    +0.209 C 
ATOM     21  C   UNL     1      33.184 -13.599 -26.990  0.00  0.00    +0.051 C 
ENDBRANCH  19  20
ENDBRANCH  18  19
ENDBRANCH   4  18
TORSDOF 5
ENDMDL
