MODEL 1
REMARK VINA RESULT:      -9.4      0.000      0.000
REMARK  Name = 448970
REMARK  8 active torsions:
REMARK  status: ('A' for Active; 'I' for Inactive)
REMARK    1  A    between atoms: N_1  and  C_13
REMARK    2  A    between atoms: C_5  and  C_17
REMARK    3  A    between atoms: C_13  and  C_14
REMARK    4  A    between atoms: C_14  and  C_15
REMARK    5  A    between atoms: C_17  and  C_19
REMARK    6  A    between atoms: C_22  and  O_25
REMARK    7  A    between atoms: C_23  and  O_27
REMARK    8  A    between atoms: C_24  and  O_29
REMARK                            x       y       z     vdW  Elec       q    Type
REMARK                         _______ _______ _______ _____ _____    ______ ____
ROOT
ATOM      1  N   UNL     1      32.157 -10.861 -22.444  0.00  0.00    -0.249 N 
ATOM      2  N   UNL     1      33.771 -11.805 -23.632  0.00  0.00    -0.385 NA
ATOM      3  N   UNL     1      32.572  -8.520 -22.927  0.00  0.00    -0.227 NA
ATOM      4  N   UNL     1      34.481  -8.263 -24.425  0.00  0.00    -0.227 NA
ATOM      5  C   UNL     1      32.754 -12.024 -22.825  0.00  0.00    +0.169 C 
ATOM      6  C   UNL     1      32.822  -9.834 -23.030  0.00  0.00    +0.167 C 
ATOM      7  C   UNL     1      33.826 -10.441 -23.768  0.00  0.00    +0.195 C 
ATOM      8  C   UNL     1      34.674  -9.602 -24.484  0.00  0.00    +0.155 C 
ATOM      9  C   UNL     1      33.456  -7.812 -23.661  0.00  0.00    +0.253 C 
ATOM     10  N   UNL     1      35.720 -10.132 -25.260  0.00  0.00    -0.341 N 
ATOM     11  H   UNL     1      36.314  -9.528 -25.763  0.00  0.00    +0.144 HD
ATOM     12  H   UNL     1      35.859 -11.106 -25.301  0.00  0.00    +0.144 HD
ENDROOT
BRANCH   1  13
ATOM     13  C   UNL     1      31.004 -10.734 -21.558  0.00  0.00    +0.099 C 
BRANCH  13  14
ATOM     14  C   UNL     1      31.255 -11.376 -20.194  0.00  0.00    +0.022 C 
BRANCH  14  15
ATOM     15  C   UNL     1      31.233 -10.331 -19.080  0.00  0.00    +0.002 C 
ATOM     16  C   UNL     1      31.993  -9.076 -19.477  0.00  0.00    +0.000 C 
ENDBRANCH  14  15
ENDBRANCH  13  14
ENDBRANCH   1  13
BRANCH   5  17
ATOM     17  C   UNL     1      32.283 -13.347 -22.367  0.00  0.00    +0.102 C 
BRANCH  17  19
ATOM     18 CL   UNL     1      33.745 -15.177 -20.395  0.00  0.00    -0.079 Cl
ATOM     19  C   UNL     1      33.071 -14.516 -22.942  0.00  0.00    +0.003 C 
ATOM     20  C   UNL     1      33.755 -15.383 -22.113  0.00  0.00    +0.091 C 
ATOM     21  C   UNL     1      33.068 -14.665 -24.316  0.00  0.00    +0.037 C 
ATOM     22  C   UNL     1      34.465 -16.442 -22.680  0.00  0.00    +0.186 C 
ATOM     23  C   UNL     1      33.778 -15.724 -24.882  0.00  0.00    +0.175 C 
ATOM     24  C   UNL     1      34.476 -16.612 -24.064  0.00  0.00    +0.207 C 
BRANCH  22  25
ATOM     25  O   UNL     1      35.153 -17.321 -21.895  0.00  0.00    -0.467 OA
ATOM     26  C   UNL     1      34.403 -18.366 -21.284  0.00  0.00    +0.253 C 
ENDBRANCH  22  25
BRANCH  23  27
ATOM     27  O   UNL     1      33.782 -15.879 -26.236  0.00  0.00    -0.468 OA
ATOM     28  C   UNL     1      33.089 -14.895 -27.002  0.00  0.00    +0.253 C 
ENDBRANCH  23  27
BRANCH  24  29
ATOM     29  O   UNL     1      35.169 -17.647 -24.620  0.00  0.00    -0.465 OA
ATOM     30  C   UNL     1      34.446 -18.850 -24.870  0.00  0.00    +0.253 C 
ENDBRANCH  24  29
ENDBRANCH  17  19
ENDBRANCH   5  17
TORSDOF 8
ENDMDL
MODEL 2
REMARK VINA RESULT:      -8.9      1.446      2.656
REMARK  Name = 448970
REMARK  8 active torsions:
REMARK  status: ('A' for Active; 'I' for Inactive)
REMARK    1  A    between atoms: N_1  and  C_13
REMARK    2  A    between atoms: C_5  and  C_17
REMARK    3  A    between atoms: C_13  and  C_14
REMARK    4  A    between atoms: C_14  and  C_15
REMARK    5  A    between atoms: C_17  and  C_19
REMARK    6  A    between atoms: C_22  and  O_25
REMARK    7  A    between atoms: C_23  and  O_27
REMARK    8  A    between atoms: C_24  and  O_29
REMARK                            x       y       z     vdW  Elec       q    Type
REMARK                         _______ _______ _______ _____ _____    ______ ____
ROOT
ATOM      1  N   UNL     1      32.391 -11.251 -22.911  0.00  0.00    -0.249 N 
ATOM      2  N   UNL     1      33.866 -11.960 -24.405  0.00  0.00    -0.385 NA
ATOM      3  N   UNL     1      33.068  -8.931 -22.697  0.00  0.00    -0.227 NA
ATOM      4  N   UNL     1      34.970  -8.439 -24.145  0.00  0.00    -0.227 NA
ATOM      5  C   UNL     1      32.843 -12.301 -23.650  0.00  0.00    +0.169 C 
ATOM      6  C   UNL     1      33.162 -10.172 -23.198  0.00  0.00    +0.167 C 
ATOM      7  C   UNL     1      34.076 -10.632 -24.132  0.00  0.00    +0.195 C 
ATOM      8  C   UNL     1      35.005  -9.712 -24.608  0.00  0.00    +0.155 C 
ATOM      9  C   UNL     1      34.017  -8.133 -23.231  0.00  0.00    +0.253 C 
ATOM     10  N   UNL     1      35.970 -10.091 -25.558  0.00  0.00    -0.341 N 
ATOM     11  H   UNL     1      36.622  -9.431 -25.888  0.00  0.00    +0.144 HD
ATOM     12  H   UNL     1      35.993 -11.017 -25.893  0.00  0.00    +0.144 HD
ENDROOT
BRANCH   1  13
ATOM     13  C   UNL     1      31.276 -11.275 -21.970  0.00  0.00    +0.099 C 
BRANCH  13  14
ATOM     14  C   UNL     1      31.676 -11.865 -20.619  0.00  0.00    +0.022 C 
BRANCH  14  15
ATOM     15  C   UNL     1      31.214 -10.973 -19.469  0.00  0.00    +0.002 C 
ATOM     16  C   UNL     1      31.922  -9.628 -19.487  0.00  0.00    +0.000 C 
ENDBRANCH  14  15
ENDBRANCH  13  14
ENDBRANCH   1  13
BRANCH   5  17
ATOM     17  C   UNL     1      32.228 -13.644 -23.583  0.00  0.00    +0.102 C 
BRANCH  17  19
ATOM     18 CL   UNL     1      33.016 -15.317 -26.023  0.00  0.00    -0.079 Cl
ATOM     19  C   UNL     1      33.229 -14.771 -23.371  0.00  0.00    +0.003 C 
ATOM     20  C   UNL     1      33.631 -15.567 -24.425  0.00  0.00    +0.091 C 
ATOM     21  C   UNL     1      33.709 -14.957 -22.088  0.00  0.00    +0.037 C 
ATOM     22  C   UNL     1      34.551 -16.589 -24.189  0.00  0.00    +0.186 C 
ATOM     23  C   UNL     1      34.629 -15.979 -21.853  0.00  0.00    +0.175 C 
ATOM     24  C   UNL     1      35.049 -16.795 -22.902  0.00  0.00    +0.207 C 
BRANCH  22  25
ATOM     25  O   UNL     1      34.974 -17.397 -25.204  0.00  0.00    -0.467 OA
ATOM     26  C   UNL     1      34.264 -18.617 -25.396  0.00  0.00    +0.253 C 
ENDBRANCH  22  25
BRANCH  23  27
ATOM     27  O   UNL     1      35.107 -16.170 -20.591  0.00  0.00    -0.468 OA
ATOM     28  C   UNL     1      34.648 -15.273 -19.581  0.00  0.00    +0.253 C 
ENDBRANCH  23  27
BRANCH  24  29
ATOM     29  O   UNL     1      35.948 -17.794 -22.670  0.00  0.00    -0.465 OA
ATOM     30  C   UNL     1      35.449 -18.985 -22.064  0.00  0.00    +0.253 C 
ENDBRANCH  24  29
ENDBRANCH  17  19
ENDBRANCH   5  17
TORSDOF 8
ENDMDL
MODEL 3
REMARK VINA RESULT:      -8.7      3.634      7.059
REMARK  Name = 448970
REMARK  8 active torsions:
REMARK  status: ('A' for Active; 'I' for Inactive)
REMARK    1  A    between atoms: N_1  and  C_13
REMARK    2  A    between atoms: C_5  and  C_17
REMARK    3  A    between atoms: C_13  and  C_14
REMARK    4  A    between atoms: C_14  and  C_15
REMARK    5  A    between atoms: C_17  and  C_19
REMARK    6  A    between atoms: C_22  and  O_25
REMARK    7  A    between atoms: C_23  and  O_27
REMARK    8  A    between atoms: C_24  and  O_29
REMARK                            x       y       z     vdW  Elec       q    Type
REMARK                         _______ _______ _______ _____ _____    ______ ____
ROOT
ATOM      1  N   UNL     1      33.729 -14.354 -22.640  0.00  0.00    -0.249 N 
ATOM      2  N   UNL     1      32.288 -13.689 -24.186  0.00  0.00    -0.385 NA
ATOM      3  N   UNL     1      34.950 -16.045 -23.880  0.00  0.00    -0.227 NA
ATOM      4  N   UNL     1      34.093 -16.248 -26.155  0.00  0.00    -0.227 NA
ATOM      5  C   UNL     1      32.694 -13.524 -22.945  0.00  0.00    +0.169 C 
ATOM      6  C   UNL     1      34.008 -15.101 -23.738  0.00  0.00    +0.167 C 
ATOM      7  C   UNL     1      33.099 -14.672 -24.693  0.00  0.00    +0.195 C 
ATOM      8  C   UNL     1      33.165 -15.285 -25.941  0.00  0.00    +0.155 C 
ATOM      9  C   UNL     1      34.916 -16.564 -25.126  0.00  0.00    +0.253 C 
ATOM     10  N   UNL     1      32.282 -14.913 -26.970  0.00  0.00    -0.341 N 
ATOM     11  H   UNL     1      32.338 -15.353 -27.850  0.00  0.00    +0.144 HD
ATOM     12  H   UNL     1      31.608 -14.212 -26.812  0.00  0.00    +0.144 HD
ENDROOT
BRANCH   1  13
ATOM     13  C   UNL     1      34.420 -14.435 -21.357  0.00  0.00    +0.099 C 
BRANCH  13  14
ATOM     14  C   UNL     1      33.962 -15.637 -20.533  0.00  0.00    +0.022 C 
BRANCH  14  15
ATOM     15  C   UNL     1      34.925 -16.812 -20.689  0.00  0.00    +0.002 C 
ATOM     16  C   UNL     1      34.212 -18.054 -21.201  0.00  0.00    +0.000 C 
ENDBRANCH  14  15
ENDBRANCH  13  14
ENDBRANCH   1  13
BRANCH   5  17
ATOM     17  C   UNL     1      32.129 -12.566 -21.971  0.00  0.00    +0.102 C 
BRANCH  17  19
ATOM     18 CL   UNL     1      30.898 -10.427 -20.159  0.00  0.00    -0.079 Cl
ATOM     19  C   UNL     1      32.457 -11.111 -22.275  0.00  0.00    +0.003 C 
ATOM     20  C   UNL     1      31.938 -10.092 -21.501  0.00  0.00    +0.091 C 
ATOM     21  C   UNL     1      33.290 -10.863 -23.350  0.00  0.00    +0.037 C 
ATOM     22  C   UNL     1      32.265  -8.772 -21.813  0.00  0.00    +0.186 C 
ATOM     23  C   UNL     1      33.615  -9.542 -23.661  0.00  0.00    +0.175 C 
ATOM     24  C   UNL     1      33.103  -8.497 -22.893  0.00  0.00    +0.207 C 
BRANCH  22  25
ATOM     25  O   UNL     1      31.773  -7.737 -21.072  0.00  0.00    -0.467 OA
ATOM     26  C   UNL     1      32.572  -7.285 -19.983  0.00  0.00    +0.253 C 
ENDBRANCH  22  25
BRANCH  23  27
ATOM     27  O   UNL     1      34.435  -9.287 -24.720  0.00  0.00    -0.468 OA
ATOM     28  C   UNL     1      35.160 -10.391 -25.258  0.00  0.00    +0.253 C 
ENDBRANCH  23  27
BRANCH  24  29
ATOM     29  O   UNL     1      33.422  -7.207 -23.199  0.00  0.00    -0.465 OA
ATOM     30  C   UNL     1      32.554  -6.522 -24.100  0.00  0.00    +0.253 C 
ENDBRANCH  24  29
ENDBRANCH  17  19
ENDBRANCH   5  17
TORSDOF 8
ENDMDL
MODEL 4
REMARK VINA RESULT:      -8.5      2.005      4.339
REMARK  Name = 448970
REMARK  8 active torsions:
REMARK  status: ('A' for Active; 'I' for Inactive)
REMARK    1  A    between atoms: N_1  and  C_13
REMARK    2  A    between atoms: C_5  and  C_17
REMARK    3  A    between atoms: C_13  and  C_14
REMARK    4  A    between atoms: C_14  and  C_15
REMARK    5  A    between atoms: C_17  and  C_19
REMARK    6  A    between atoms: C_22  and  O_25
REMARK    7  A    between atoms: C_23  and  O_27
REMARK    8  A    between atoms: C_24  and  O_29
REMARK                            x       y       z     vdW  Elec       q    Type
REMARK                         _______ _______ _______ _____ _____    ______ ____
ROOT
ATOM      1  N   UNL     1      32.414 -10.396 -22.848  0.00  0.00    -0.249 N 
ATOM      2  N   UNL     1      31.616 -11.778 -21.310  0.00  0.00    -0.385 NA
ATOM      3  N   UNL     1      32.697  -8.385 -21.521  0.00  0.00    -0.227 NA
ATOM      4  N   UNL     1      32.014  -8.760 -19.209  0.00  0.00    -0.227 NA
ATOM      5  C   UNL     1      31.964 -11.652 -22.573  0.00  0.00    +0.169 C 
ATOM      6  C   UNL     1      32.353  -9.668 -21.704  0.00  0.00    +0.167 C 
ATOM      7  C   UNL     1      31.853 -10.546 -20.756  0.00  0.00    +0.195 C 
ATOM      8  C   UNL     1      31.687 -10.050 -19.466  0.00  0.00    +0.155 C 
ATOM      9  C   UNL     1      32.492  -8.019 -20.237  0.00  0.00    +0.253 C 
ATOM     10  N   UNL     1      31.186 -10.870 -18.440  0.00  0.00    -0.341 N 
ATOM     11  H   UNL     1      31.072 -10.508 -17.531  0.00  0.00    +0.144 HD
ATOM     12  H   UNL     1      30.949 -11.806 -18.630  0.00  0.00    +0.144 HD
ENDROOT
BRANCH   1  13
ATOM     13  C   UNL     1      32.880  -9.911 -24.142  0.00  0.00    +0.099 C 
BRANCH  13  14
ATOM     14  C   UNL     1      34.393 -10.055 -24.299  0.00  0.00    +0.022 C 
BRANCH  14  15
ATOM     15  C   UNL     1      34.741 -10.989 -25.457  0.00  0.00    +0.002 C 
ATOM     16  C   UNL     1      35.764 -10.362 -26.391  0.00  0.00    +0.000 C 
ENDBRANCH  14  15
ENDBRANCH  13  14
ENDBRANCH   1  13
BRANCH   5  17
ATOM     17  C   UNL     1      31.895 -12.713 -23.600  0.00  0.00    +0.102 C 
BRANCH  17  19
ATOM     18 CL   UNL     1      32.615 -14.370 -26.072  0.00  0.00    -0.079 Cl
ATOM     19  C   UNL     1      32.949 -13.798 -23.438  0.00  0.00    +0.003 C 
ATOM     20  C   UNL     1      33.325 -14.585 -24.508  0.00  0.00    +0.091 C 
ATOM     21  C   UNL     1      33.505 -13.956 -22.182  0.00  0.00    +0.037 C 
ATOM     22  C   UNL     1      34.296 -15.568 -24.318  0.00  0.00    +0.186 C 
ATOM     23  C   UNL     1      34.476 -14.940 -21.993  0.00  0.00    +0.175 C 
ATOM     24  C   UNL     1      34.871 -15.746 -23.060  0.00  0.00    +0.207 C 
BRANCH  22  25
ATOM     25  O   UNL     1      34.695 -16.366 -25.351  0.00  0.00    -0.467 OA
ATOM     26  C   UNL     1      34.038 -17.622 -25.488  0.00  0.00    +0.253 C 
ENDBRANCH  22  25
BRANCH  23  27
ATOM     27  O   UNL     1      35.030 -15.103 -20.758  0.00  0.00    -0.468 OA
ATOM     28  C   UNL     1      34.205 -15.687 -19.750  0.00  0.00    +0.253 C 
ENDBRANCH  23  27
BRANCH  24  29
ATOM     29  O   UNL     1      35.820 -16.707 -22.872  0.00  0.00    -0.465 OA
ATOM     30  C   UNL     1      35.387 -17.942 -22.307  0.00  0.00    +0.253 C 
ENDBRANCH  24  29
ENDBRANCH  17  19
ENDBRANCH   5  17
TORSDOF 8
ENDMDL
MODEL 5
REMARK VINA RESULT:      -8.3      3.631      7.215
REMARK  Name = 448970
REMARK  8 active torsions:
REMARK  status: ('A' for Active; 'I' for Inactive)
REMARK    1  A    between atoms: N_1  and  C_13
REMARK    2  A    between atoms: C_5  and  C_17
REMARK    3  A    between atoms: C_13  and  C_14
REMARK    4  A    between atoms: C_14  and  C_15
REMARK    5  A    between atoms: C_17  and  C_19
REMARK    6  A    between atoms: C_22  and  O_25
REMARK    7  A    between atoms: C_23  and  O_27
REMARK    8  A    between atoms: C_24  and  O_29
REMARK                            x       y       z     vdW  Elec       q    Type
REMARK                         _______ _______ _______ _____ _____    ______ ____
ROOT
ATOM      1  N   UNL     1      33.246 -14.907 -24.180  0.00  0.00    -0.249 N 
ATOM      2  N   UNL     1      33.332 -14.350 -22.038  0.00  0.00    -0.385 NA
ATOM      3  N   UNL     1      34.656 -16.881 -24.175  0.00  0.00    -0.227 NA
ATOM      4  N   UNL     1      35.496 -17.349 -21.932  0.00  0.00    -0.227 NA
ATOM      5  C   UNL     1      32.842 -14.033 -23.217  0.00  0.00    +0.169 C 
ATOM      6  C   UNL     1      34.042 -15.838 -23.597  0.00  0.00    +0.167 C 
ATOM      7  C   UNL     1      34.085 -15.475 -22.261  0.00  0.00    +0.195 C 
ATOM      8  C   UNL     1      34.847 -16.277 -21.416  0.00  0.00    +0.155 C 
ATOM      9  C   UNL     1      35.361 -17.580 -23.261  0.00  0.00    +0.253 C 
ATOM     10  N   UNL     1      34.947 -15.984 -20.045  0.00  0.00    -0.341 N 
ATOM     11  H   UNL     1      35.489 -16.559 -19.457  0.00  0.00    +0.144 HD
ATOM     12  H   UNL     1      34.475 -15.205 -19.672  0.00  0.00    +0.144 HD
ENDROOT
BRANCH   1  13
ATOM     13  C   UNL     1      32.891 -14.855 -25.595  0.00  0.00    +0.099 C 
BRANCH  13  14
ATOM     14  C   UNL     1      34.050 -14.365 -26.461  0.00  0.00    +0.022 C 
BRANCH  14  15
ATOM     15  C   UNL     1      33.603 -13.249 -27.403  0.00  0.00    +0.002 C 
ATOM     16  C   UNL     1      32.095 -13.058 -27.364  0.00  0.00    +0.000 C 
ENDBRANCH  14  15
ENDBRANCH  13  14
ENDBRANCH   1  13
BRANCH   5  17
ATOM     17  C   UNL     1      31.958 -12.884 -23.506  0.00  0.00    +0.102 C 
BRANCH  17  19
ATOM     18 CL   UNL     1      30.699 -10.717 -21.747  0.00  0.00    -0.079 Cl
ATOM     19  C   UNL     1      32.659 -11.535 -23.440  0.00  0.00    +0.003 C 
ATOM     20  C   UNL     1      32.150 -10.510 -22.668  0.00  0.00    +0.091 C 
ATOM     21  C   UNL     1      33.816 -11.387 -24.182  0.00  0.00    +0.037 C 
ATOM     22  C   UNL     1      32.824  -9.289 -22.634  0.00  0.00    +0.186 C 
ATOM     23  C   UNL     1      34.489 -10.165 -24.148  0.00  0.00    +0.175 C 
ATOM     24  C   UNL     1      33.993  -9.116 -23.374  0.00  0.00    +0.207 C 
BRANCH  22  25
ATOM     25  O   UNL     1      32.352  -8.251 -21.882  0.00  0.00    -0.467 OA
ATOM     26  C   UNL     1      32.684  -8.255 -20.497  0.00  0.00    +0.253 C 
ENDBRANCH  22  25
BRANCH  23  27
ATOM     27  O   UNL     1      35.631 -10.010 -24.876  0.00  0.00    -0.468 OA
ATOM     28  C   UNL     1      35.575 -10.379 -26.253  0.00  0.00    +0.253 C 
ENDBRANCH  23  27
BRANCH  24  29
ATOM     29  O   UNL     1      34.652  -7.923 -23.342  0.00  0.00    -0.465 OA
ATOM     30  C   UNL     1      34.344  -6.986 -24.372  0.00  0.00    +0.253 C 
ENDBRANCH  24  29
ENDBRANCH  17  19
ENDBRANCH   5  17
TORSDOF 8
ENDMDL
MODEL 6
REMARK VINA RESULT:      -8.1      5.218      8.859
REMARK  Name = 448970
REMARK  8 active torsions:
REMARK  status: ('A' for Active; 'I' for Inactive)
REMARK    1  A    between atoms: N_1  and  C_13
REMARK    2  A    between atoms: C_5  and  C_17
REMARK    3  A    between atoms: C_13  and  C_14
REMARK    4  A    between atoms: C_14  and  C_15
REMARK    5  A    between atoms: C_17  and  C_19
REMARK    6  A    between atoms: C_22  and  O_25
REMARK    7  A    between atoms: C_23  and  O_27
REMARK    8  A    between atoms: C_24  and  O_29
REMARK                            x       y       z     vdW  Elec       q    Type
REMARK                         _______ _______ _______ _____ _____    ______ ____
ROOT
ATOM      1  N   UNL     1      32.547  -9.414 -22.541  0.00  0.00    -0.249 N 
ATOM      2  N   UNL     1      33.992  -8.683 -24.054  0.00  0.00    -0.385 NA
ATOM      3  N   UNL     1      32.595 -11.795 -23.007  0.00  0.00    -0.227 NA
ATOM      4  N   UNL     1      34.130 -12.296 -24.836  0.00  0.00    -0.227 NA
ATOM      5  C   UNL     1      33.182  -8.335 -23.077  0.00  0.00    +0.169 C 
ATOM      6  C   UNL     1      32.965 -10.521 -23.207  0.00  0.00    +0.167 C 
ATOM      7  C   UNL     1      33.865 -10.046 -24.146  0.00  0.00    +0.195 C 
ATOM      8  C   UNL     1      34.457 -10.989 -24.981  0.00  0.00    +0.155 C 
ATOM      9  C   UNL     1      33.232 -12.613 -23.872  0.00  0.00    +0.253 C 
ATOM     10  N   UNL     1      35.383 -10.598 -25.964  0.00  0.00    -0.341 N 
ATOM     11  H   UNL     1      35.796 -11.274 -26.549  0.00  0.00    +0.144 HD
ATOM     12  H   UNL     1      35.619  -9.648 -26.067  0.00  0.00    +0.144 HD
ENDROOT
BRANCH   1  13
ATOM     13  C   UNL     1      31.584  -9.392 -21.445  0.00  0.00    +0.099 C 
BRANCH  13  14
ATOM     14  C   UNL     1      32.261  -9.191 -20.091  0.00  0.00    +0.022 C 
BRANCH  14  15
ATOM     15  C   UNL     1      31.767 -10.213 -19.069  0.00  0.00    +0.002 C 
ATOM     16  C   UNL     1      31.558 -11.579 -19.703  0.00  0.00    +0.000 C 
ENDBRANCH  14  15
ENDBRANCH  13  14
ENDBRANCH   1  13
BRANCH   5  17
ATOM     17  C   UNL     1      32.959  -6.958 -22.588  0.00  0.00    +0.102 C 
BRANCH  17  19
ATOM     18 CL   UNL     1      30.697  -4.989 -21.969  0.00  0.00    -0.079 Cl
ATOM     19  C   UNL     1      32.565  -5.972 -23.678  0.00  0.00    +0.003 C 
ATOM     20  C   UNL     1      31.555  -5.055 -23.471  0.00  0.00    +0.091 C 
ATOM     21  C   UNL     1      33.261  -6.038 -24.871  0.00  0.00    +0.037 C 
ATOM     22  C   UNL     1      31.225  -4.167 -24.496  0.00  0.00    +0.186 C 
ATOM     23  C   UNL     1      32.931  -5.151 -25.895  0.00  0.00    +0.175 C 
ATOM     24  C   UNL     1      31.914  -4.216 -25.708  0.00  0.00    +0.207 C 
BRANCH  22  25
ATOM     25  O   UNL     1      30.233  -3.245 -24.330  0.00  0.00    -0.467 OA
ATOM     26  C   UNL     1      30.583  -2.030 -23.675  0.00  0.00    +0.253 C 
ENDBRANCH  22  25
BRANCH  23  27
ATOM     27  O   UNL     1      33.610  -5.209 -27.075  0.00  0.00    -0.468 OA
ATOM     28  C   UNL     1      34.995  -4.867 -27.043  0.00  0.00    +0.253 C 
ENDBRANCH  23  27
BRANCH  24  29
ATOM     29  O   UNL     1      31.593  -3.349 -26.711  0.00  0.00    -0.465 OA
ATOM     30  C   UNL     1      32.376  -2.163 -26.816  0.00  0.00    +0.253 C 
ENDBRANCH  24  29
ENDBRANCH  17  19
ENDBRANCH   5  17
TORSDOF 8
ENDMDL
MODEL 7
REMARK VINA RESULT:      -8.1      2.263      4.654
REMARK  Name = 448970
REMARK  8 active torsions:
REMARK  status: ('A' for Active; 'I' for Inactive)
REMARK    1  A    between atoms: N_1  and  C_13
REMARK    2  A    between atoms: C_5  and  C_17
REMARK    3  A    between atoms: C_13  and  C_14
REMARK    4  A    between atoms: C_14  and  C_15
REMARK    5  A    between atoms: C_17  and  C_19
REMARK    6  A    between atoms: C_22  and  O_25
REMARK    7  A    between atoms: C_23  and  O_27
REMARK    8  A    between atoms: C_24  and  O_29
REMARK                            x       y       z     vdW  Elec       q    Type
REMARK                         _______ _______ _______ _____ _____    ______ ____
ROOT
ATOM      1  N   UNL     1      33.495  -8.929 -23.055  0.00  0.00    -0.249 N 
ATOM      2  N   UNL     1      32.287 -10.646 -22.346  0.00  0.00    -0.385 NA
ATOM      3  N   UNL     1      33.182  -7.384 -21.211  0.00  0.00    -0.227 NA
ATOM      4  N   UNL     1      31.752  -8.357 -19.490  0.00  0.00    -0.227 NA
ATOM      5  C   UNL     1      33.049 -10.188 -23.317  0.00  0.00    +0.169 C 
ATOM      6  C   UNL     1      32.996  -8.547 -21.852  0.00  0.00    +0.167 C 
ATOM      7  C   UNL     1      32.245  -9.630 -21.425  0.00  0.00    +0.195 C 
ATOM      8  C   UNL     1      31.608  -9.506 -20.194  0.00  0.00    +0.155 C 
ATOM      9  C   UNL     1      32.518  -7.382 -20.035  0.00  0.00    +0.253 C 
ATOM     10  N   UNL     1      30.825 -10.555 -19.681  0.00  0.00    -0.341 N 
ATOM     11  H   UNL     1      30.380 -10.456 -18.808  0.00  0.00    +0.144 HD
ATOM     12  H   UNL     1      30.723 -11.389 -20.194  0.00  0.00    +0.144 HD
ENDROOT
BRANCH   1  13
ATOM     13  C   UNL     1      34.359  -8.124 -23.913  0.00  0.00    +0.099 C 
BRANCH  13  14
ATOM     14  C   UNL     1      33.627  -6.913 -24.489  0.00  0.00    +0.022 C 
BRANCH  14  15
ATOM     15  C   UNL     1      34.473  -6.210 -25.549  0.00  0.00    +0.002 C 
ATOM     16  C   UNL     1      33.663  -5.172 -26.310  0.00  0.00    +0.000 C 
ENDBRANCH  14  15
ENDBRANCH  13  14
ENDBRANCH   1  13
BRANCH   5  17
ATOM     17  C   UNL     1      33.403 -10.916 -24.554  0.00  0.00    +0.102 C 
BRANCH  17  19
ATOM     18 CL   UNL     1      33.350 -12.684 -27.053  0.00  0.00    -0.079 Cl
ATOM     19  C   UNL     1      33.574 -12.416 -24.360  0.00  0.00    +0.003 C 
ATOM     20  C   UNL     1      33.560 -13.275 -25.440  0.00  0.00    +0.091 C 
ATOM     21  C   UNL     1      33.740 -12.870 -23.065  0.00  0.00    +0.037 C 
ATOM     22  C   UNL     1      33.721 -14.644 -25.219  0.00  0.00    +0.186 C 
ATOM     23  C   UNL     1      33.900 -14.239 -22.845  0.00  0.00    +0.175 C 
ATOM     24  C   UNL     1      33.890 -15.125 -23.921  0.00  0.00    +0.207 C 
BRANCH  22  25
ATOM     25  O   UNL     1      33.714 -15.525 -26.261  0.00  0.00    -0.467 OA
ATOM     26  C   UNL     1      32.455 -16.079 -26.630  0.00  0.00    +0.253 C 
ENDBRANCH  22  25
BRANCH  23  27
ATOM     27  O   UNL     1      34.064 -14.696 -21.572  0.00  0.00    -0.468 OA
ATOM     28  C   UNL     1      32.982 -14.490 -20.665  0.00  0.00    +0.253 C 
ENDBRANCH  23  27
BRANCH  24  29
ATOM     29  O   UNL     1      34.047 -16.462 -23.704  0.00  0.00    -0.465 OA
ATOM     30  C   UNL     1      35.382 -16.945 -23.579  0.00  0.00    +0.253 C 
ENDBRANCH  24  29
ENDBRANCH  17  19
ENDBRANCH   5  17
TORSDOF 8
ENDMDL
MODEL 8
REMARK VINA RESULT:      -8.0      3.815      7.642
REMARK  Name = 448970
REMARK  8 active torsions:
REMARK  status: ('A' for Active; 'I' for Inactive)
REMARK    1  A    between atoms: N_1  and  C_13
REMARK    2  A    between atoms: C_5  and  C_17
REMARK    3  A    between atoms: C_13  and  C_14
REMARK    4  A    between atoms: C_14  and  C_15
REMARK    5  A    between atoms: C_17  and  C_19
REMARK    6  A    between atoms: C_22  and  O_25
REMARK    7  A    between atoms: C_23  and  O_27
REMARK    8  A    between atoms: C_24  and  O_29
REMARK                            x       y       z     vdW  Elec       q    Type
REMARK                         _______ _______ _______ _____ _____    ______ ____
ROOT
ATOM      1  N   UNL     1      34.195 -15.013 -24.383  0.00  0.00    -0.249 N 
ATOM      2  N   UNL     1      34.221 -13.891 -22.473  0.00  0.00    -0.385 NA
ATOM      3  N   UNL     1      34.519 -17.274 -23.565  0.00  0.00    -0.227 NA
ATOM      4  N   UNL     1      34.719 -17.303 -21.133  0.00  0.00    -0.227 NA
ATOM      5  C   UNL     1      34.107 -13.796 -23.780  0.00  0.00    +0.169 C 
ATOM      6  C   UNL     1      34.380 -15.949 -23.417  0.00  0.00    +0.167 C 
ATOM      7  C   UNL     1      34.393 -15.230 -22.232  0.00  0.00    +0.195 C 
ATOM      8  C   UNL     1      34.571 -15.958 -21.059  0.00  0.00    +0.155 C 
ATOM      9  C   UNL     1      34.684 -17.869 -22.364  0.00  0.00    +0.253 C 
ATOM     10  N   UNL     1      34.597 -15.312 -19.811  0.00  0.00    -0.341 N 
ATOM     11  H   UNL     1      34.723 -15.837 -18.987  0.00  0.00    +0.144 HD
ATOM     12  H   UNL     1      34.489 -14.335 -19.759  0.00  0.00    +0.144 HD
ENDROOT
BRANCH   1  13
ATOM     13  C   UNL     1      34.110 -15.275 -25.816  0.00  0.00    +0.099 C 
BRANCH  13  14
ATOM     14  C   UNL     1      32.669 -15.237 -26.322  0.00  0.00    +0.022 C 
BRANCH  14  15
ATOM     15  C   UNL     1      32.396 -13.960 -27.114  0.00  0.00    +0.002 C 
ATOM     16  C   UNL     1      33.687 -13.300 -27.571  0.00  0.00    +0.000 C 
ENDBRANCH  14  15
ENDBRANCH  13  14
ENDBRANCH   1  13
BRANCH   5  17
ATOM     17  C   UNL     1      33.903 -12.545 -24.542  0.00  0.00    +0.102 C 
BRANCH  17  19
ATOM     18 CL   UNL     1      35.196  -9.797 -24.934  0.00  0.00    -0.079 Cl
ATOM     19  C   UNL     1      33.374 -11.391 -23.703  0.00  0.00    +0.003 C 
ATOM     20  C   UNL     1      33.908 -10.124 -23.825  0.00  0.00    +0.091 C 
ATOM     21  C   UNL     1      32.346 -11.670 -22.822  0.00  0.00    +0.037 C 
ATOM     22  C   UNL     1      33.394  -9.093 -23.038  0.00  0.00    +0.186 C 
ATOM     23  C   UNL     1      31.832 -10.638 -22.036  0.00  0.00    +0.175 C 
ATOM     24  C   UNL     1      32.356  -9.351 -22.143  0.00  0.00    +0.207 C 
BRANCH  22  25
ATOM     25  O   UNL     1      33.894  -7.827 -23.131  0.00  0.00    -0.467 OA
ATOM     26  C   UNL     1      33.232  -6.934 -24.022  0.00  0.00    +0.253 C 
ENDBRANCH  22  25
BRANCH  23  27
ATOM     27  O   UNL     1      30.818 -10.904 -21.164  0.00  0.00    -0.468 OA
ATOM     28  C   UNL     1      31.185 -11.345 -19.858  0.00  0.00    +0.253 C 
ENDBRANCH  23  27
BRANCH  24  29
ATOM     29  O   UNL     1      31.852  -8.344 -21.373  0.00  0.00    -0.465 OA
ATOM     30  C   UNL     1      32.586  -7.999 -20.200  0.00  0.00    +0.253 C 
ENDBRANCH  24  29
ENDBRANCH  17  19
ENDBRANCH   5  17
TORSDOF 8
ENDMDL
MODEL 9
REMARK VINA RESULT:      -8.0     10.660     13.911
REMARK  Name = 448970
REMARK  8 active torsions:
REMARK  status: ('A' for Active; 'I' for Inactive)
REMARK    1  A    between atoms: N_1  and  C_13
REMARK    2  A    between atoms: C_5  and  C_17
REMARK    3  A    between atoms: C_13  and  C_14
REMARK    4  A    between atoms: C_14  and  C_15
REMARK    5  A    between atoms: C_17  and  C_19
REMARK    6  A    between atoms: C_22  and  O_25
REMARK    7  A    between atoms: C_23  and  O_27
REMARK    8  A    between atoms: C_24  and  O_29
REMARK                            x       y       z     vdW  Elec       q    Type
REMARK                         _______ _______ _______ _____ _____    ______ ____
ROOT
ATOM      1  N   UNL     1      32.884 -23.195 -16.841  0.00  0.00    -0.249 N 
ATOM      2  N   UNL     1      35.091 -23.066 -16.688  0.00  0.00    -0.385 NA
ATOM      3  N   UNL     1      32.517 -21.962 -18.899  0.00  0.00    -0.227 NA
ATOM      4  N   UNL     1      34.629 -21.172 -19.832  0.00  0.00    -0.227 NA
ATOM      5  C   UNL     1      33.993 -23.523 -16.124  0.00  0.00    +0.169 C 
ATOM      6  C   UNL     1      33.281 -22.484 -17.928  0.00  0.00    +0.167 C 
ATOM      7  C   UNL     1      34.660 -22.414 -17.816  0.00  0.00    +0.195 C 
ATOM      8  C   UNL     1      35.337 -21.726 -18.819  0.00  0.00    +0.155 C 
ATOM      9  C   UNL     1      33.282 -21.322 -19.809  0.00  0.00    +0.253 C 
ATOM     10  N   UNL     1      36.737 -21.605 -18.787  0.00  0.00    -0.341 N 
ATOM     11  H   UNL     1      37.206 -21.117 -19.502  0.00  0.00    +0.144 HD
ATOM     12  H   UNL     1      37.250 -22.009 -18.049  0.00  0.00    +0.144 HD
ENDROOT
BRANCH   1  13
ATOM     13  C   UNL     1      31.506 -23.540 -16.507  0.00  0.00    +0.099 C 
BRANCH  13  14
ATOM     14  C   UNL     1      31.001 -22.769 -15.288  0.00  0.00    +0.022 C 
BRANCH  14  15
ATOM     15  C   UNL     1      30.356 -23.707 -14.270  0.00  0.00    +0.002 C 
ATOM     16  C   UNL     1      30.233 -25.122 -14.814  0.00  0.00    +0.000 C 
ENDBRANCH  14  15
ENDBRANCH  13  14
ENDBRANCH   1  13
BRANCH   5  17
ATOM     17  C   UNL     1      33.926 -24.303 -14.870  0.00  0.00    +0.102 C 
BRANCH  17  19
ATOM     18 CL   UNL     1      35.030 -23.355 -12.176  0.00  0.00    -0.079 Cl
ATOM     19  C   UNL     1      35.267 -24.866 -14.420  0.00  0.00    +0.003 C 
ATOM     20  C   UNL     1      35.827 -24.484 -13.218  0.00  0.00    +0.091 C 
ATOM     21  C   UNL     1      35.889 -25.766 -15.265  0.00  0.00    +0.037 C 
ATOM     22  C   UNL     1      37.058 -25.024 -12.842  0.00  0.00    +0.186 C 
ATOM     23  C   UNL     1      37.120 -26.305 -14.889  0.00  0.00    +0.175 C 
ATOM     24  C   UNL     1      37.704 -25.934 -13.679  0.00  0.00    +0.207 C 
BRANCH  22  25
ATOM     25  O   UNL     1      37.644 -24.673 -11.661  0.00  0.00    -0.467 OA
ATOM     26  C   UNL     1      38.381 -23.454 -11.643  0.00  0.00    +0.253 C 
ENDBRANCH  22  25
BRANCH  23  27
ATOM     27  O   UNL     1      37.741 -27.193 -15.716  0.00  0.00    -0.468 OA
ATOM     28  C   UNL     1      36.934 -27.834 -16.702  0.00  0.00    +0.253 C 
ENDBRANCH  23  27
BRANCH  24  29
ATOM     29  O   UNL     1      38.907 -26.462 -13.313  0.00  0.00    -0.465 OA
ATOM     30  C   UNL     1      40.074 -25.851 -13.858  0.00  0.00    +0.253 C 
ENDBRANCH  24  29
ENDBRANCH  17  19
ENDBRANCH   5  17
TORSDOF 8
ENDMDL
