MODEL 1
REMARK VINA RESULT:     -12.0      0.000      0.000
REMARK  Name = 24875320
REMARK  6 active torsions:
REMARK  status: ('A' for Active; 'I' for Inactive)
REMARK    1  A    between atoms: C_1  and  N_22
REMARK    2  A    between atoms: C_3  and  C_10
REMARK    3  A    between atoms: N_9  and  C_12
REMARK    4  A    between atoms: C_14  and  C_21
REMARK    5  A    between atoms: N_22  and  C_25
REMARK    6  A    between atoms: C_28  and  C_32
REMARK                            x       y       z     vdW  Elec       q    Type
REMARK                         _______ _______ _______ _____ _____    ______ ____
ROOT
ATOM      1  C   UNL     1      34.341 -22.681 -17.728  0.00  0.00    +0.044 C 
ATOM      2  C   UNL     1      35.676 -22.523 -17.356  0.00  0.00    -0.008 C 
ATOM      3  C   UNL     1      34.658 -21.102 -19.530  0.00  0.00    +0.055 C 
ATOM      4  C   UNL     1      33.832 -21.970 -18.815  0.00  0.00    +0.019 C 
ATOM      5  C   UNL     1      36.502 -21.656 -18.070  0.00  0.00    -0.003 C 
ATOM      6  C   UNL     1      35.993 -20.945 -19.157  0.00  0.00    +0.004 C 
ATOM      7  C   UNL     1      36.249 -23.273 -16.196  0.00  0.00    +0.032 C 
ENDROOT
BRANCH   3  10
ATOM      8  O   UNL     1      32.925 -20.481 -20.952  0.00  0.00    -0.270 OA
ATOM      9  N   UNL     1      35.048 -19.569 -21.361  0.00  0.00    -0.280 N 
ATOM     10  C   UNL     1      34.127 -20.361 -20.662  0.00  0.00    +0.250 C 
ATOM     11  H   UNL     1      35.969 -19.573 -21.011  0.00  0.00    +0.155 HD
BRANCH   9  12
ATOM     12  C   UNL     1      34.829 -18.763 -22.506  0.00  0.00    +0.050 C 
ATOM     13  C   UNL     1      34.498 -17.416 -22.359  0.00  0.00    +0.019 C 
ATOM     14  C   UNL     1      34.282 -16.624 -23.486  0.00  0.00    +0.073 C 
ATOM     15  C   UNL     1      34.944 -19.318 -23.781  0.00  0.00    +0.015 C 
ATOM     16  C   UNL     1      34.397 -17.179 -24.761  0.00  0.00    +0.004 C 
ATOM     17  C   UNL     1      34.728 -18.526 -24.908  0.00  0.00    +0.001 C 
BRANCH  14  21
ATOM     18  F   UNL     1      32.764 -14.976 -22.648  0.00  0.00    -0.166 F 
ATOM     19  F   UNL     1      34.870 -14.460 -22.656  0.00  0.00    -0.166 F 
ATOM     20  F   UNL     1      33.768 -14.550 -24.529  0.00  0.00    -0.166 F 
ATOM     21  C   UNL     1      33.928 -15.184 -23.330  0.00  0.00    +0.419 C 
ENDBRANCH  14  21
ENDBRANCH   9  12
ENDBRANCH   3  10
BRANCH   1  22
ATOM     22  N   UNL     1      33.491 -23.556 -17.016  0.00  0.00    -0.312 N 
ATOM     23  H   UNL     1      33.682 -24.509 -17.174  0.00  0.00    +0.152 HD
BRANCH  22  25
ATOM     24  N   UNL     1      31.641 -23.155 -13.846  0.00  0.00    -0.241 NA
ATOM     25  C   UNL     1      32.425 -23.332 -16.126  0.00  0.00    +0.068 C 
ATOM     26  C   UNL     1      31.142 -23.073 -16.595  0.00  0.00    +0.022 C 
ATOM     27  C   UNL     1      32.620 -23.362 -14.755  0.00  0.00    +0.113 C 
ATOM     28  C   UNL     1      30.108 -22.855 -15.691  0.00  0.00    +0.073 C 
ATOM     29  C   UNL     1      30.406 -22.907 -14.339  0.00  0.00    +0.103 C 
BRANCH  28  32
ATOM     30  O   UNL     1      27.956 -21.925 -15.459  0.00  0.00    -0.270 OA
ATOM     31  N   UNL     1      28.386 -23.066 -17.401  0.00  0.00    -0.325 N 
ATOM     32  C   UNL     1      28.757 -22.582 -16.149  0.00  0.00    +0.244 C 
ATOM     33  H   UNL     1      27.478 -22.900 -17.744  0.00  0.00    +0.145 HD
ATOM     34  H   UNL     1      29.032 -23.573 -17.945  0.00  0.00    +0.145 HD
ENDBRANCH  28  32
ENDBRANCH  22  25
ENDBRANCH   1  22
TORSDOF 6
ENDMDL
MODEL 2
REMARK VINA RESULT:     -11.9      4.499      8.225
REMARK  Name = 24875320
REMARK  6 active torsions:
REMARK  status: ('A' for Active; 'I' for Inactive)
REMARK    1  A    between atoms: C_1  and  N_22
REMARK    2  A    between atoms: C_3  and  C_10
REMARK    3  A    between atoms: N_9  and  C_12
REMARK    4  A    between atoms: C_14  and  C_21
REMARK    5  A    between atoms: N_22  and  C_25
REMARK    6  A    between atoms: C_28  and  C_32
REMARK                            x       y       z     vdW  Elec       q    Type
REMARK                         _______ _______ _______ _____ _____    ______ ____
ROOT
ATOM      1  C   UNL     1      35.021 -16.608 -23.617  0.00  0.00    +0.044 C 
ATOM      2  C   UNL     1      34.356 -17.081 -24.748  0.00  0.00    -0.008 C 
ATOM      3  C   UNL     1      33.920 -14.471 -23.865  0.00  0.00    +0.055 C 
ATOM      4  C   UNL     1      34.804 -15.303 -23.176  0.00  0.00    +0.019 C 
ATOM      5  C   UNL     1      33.473 -16.251 -25.437  0.00  0.00    -0.003 C 
ATOM      6  C   UNL     1      33.255 -14.945 -24.996  0.00  0.00    +0.004 C 
ATOM      7  C   UNL     1      34.569 -18.476 -25.242  0.00  0.00    +0.032 C 
ENDROOT
BRANCH   3  10
ATOM      8  O   UNL     1      33.110 -12.928 -22.325  0.00  0.00    -0.270 OA
ATOM      9  N   UNL     1      34.149 -12.094 -24.257  0.00  0.00    -0.280 N 
ATOM     10  C   UNL     1      33.694 -13.111 -23.406  0.00  0.00    +0.250 C 
ATOM     11  H   UNL     1      34.595 -12.394 -25.082  0.00  0.00    +0.155 HD
BRANCH   9  12
ATOM     12  C   UNL     1      34.048 -10.691 -24.087  0.00  0.00    +0.050 C 
ATOM     13  C   UNL     1      32.936 -10.142 -23.448  0.00  0.00    +0.019 C 
ATOM     14  C   UNL     1      32.837  -8.761 -23.281  0.00  0.00    +0.073 C 
ATOM     15  C   UNL     1      35.062  -9.857 -24.560  0.00  0.00    +0.015 C 
ATOM     16  C   UNL     1      33.852  -7.928 -23.754  0.00  0.00    +0.004 C 
ATOM     17  C   UNL     1      34.964  -8.476 -24.393  0.00  0.00    +0.001 C 
BRANCH  14  21
ATOM     18  F   UNL     1      31.811  -6.867 -22.243  0.00  0.00    -0.166 F 
ATOM     19  F   UNL     1      30.515  -8.199 -23.360  0.00  0.00    -0.166 F 
ATOM     20  F   UNL     1      31.330  -8.831 -21.445  0.00  0.00    -0.166 F 
ATOM     21  C   UNL     1      31.649  -8.175 -22.599  0.00  0.00    +0.419 C 
ENDBRANCH  14  21
ENDBRANCH   9  12
ENDBRANCH   3  10
BRANCH   1  22
ATOM     22  N   UNL     1      35.918 -17.436 -22.907  0.00  0.00    -0.312 N 
ATOM     23  H   UNL     1      36.864 -17.284 -23.137  0.00  0.00    +0.152 HD
BRANCH  22  25
ATOM     24  N   UNL     1      36.683 -19.947 -20.310  0.00  0.00    -0.241 NA
ATOM     25  C   UNL     1      35.725 -18.435 -21.934  0.00  0.00    +0.068 C 
ATOM     26  C   UNL     1      34.451 -18.897 -21.625  0.00  0.00    +0.022 C 
ATOM     27  C   UNL     1      36.799 -18.987 -21.254  0.00  0.00    +0.113 C 
ATOM     28  C   UNL     1      34.292 -19.884 -20.658  0.00  0.00    +0.073 C 
ATOM     29  C   UNL     1      35.429 -20.372 -20.036  0.00  0.00    +0.103 C 
BRANCH  28  32
ATOM     30  O   UNL     1      31.952 -19.696 -20.465  0.00  0.00    -0.270 OA
ATOM     31  N   UNL     1      32.886 -21.689 -19.820  0.00  0.00    -0.325 N 
ATOM     32  C   UNL     1      32.975 -20.389 -20.313  0.00  0.00    +0.244 C 
ATOM     33  H   UNL     1      32.009 -22.064 -19.576  0.00  0.00    +0.145 HD
ATOM     34  H   UNL     1      33.700 -22.233 -19.717  0.00  0.00    +0.145 HD
ENDBRANCH  28  32
ENDBRANCH  22  25
ENDBRANCH   1  22
TORSDOF 6
ENDMDL
MODEL 3
REMARK VINA RESULT:     -11.9      5.303     10.737
REMARK  Name = 24875320
REMARK  6 active torsions:
REMARK  status: ('A' for Active; 'I' for Inactive)
REMARK    1  A    between atoms: C_1  and  N_22
REMARK    2  A    between atoms: C_3  and  C_10
REMARK    3  A    between atoms: N_9  and  C_12
REMARK    4  A    between atoms: C_14  and  C_21
REMARK    5  A    between atoms: N_22  and  C_25
REMARK    6  A    between atoms: C_28  and  C_32
REMARK                            x       y       z     vdW  Elec       q    Type
REMARK                         _______ _______ _______ _____ _____    ______ ____
ROOT
ATOM      1  C   UNL     1      33.020 -14.619 -23.432  0.00  0.00    +0.044 C 
ATOM      2  C   UNL     1      33.388 -14.947 -24.736  0.00  0.00    -0.008 C 
ATOM      3  C   UNL     1      34.352 -16.454 -22.596  0.00  0.00    +0.055 C 
ATOM      4  C   UNL     1      33.503 -15.373 -22.362  0.00  0.00    +0.019 C 
ATOM      5  C   UNL     1      34.237 -16.028 -24.972  0.00  0.00    -0.003 C 
ATOM      6  C   UNL     1      34.719 -16.782 -23.901  0.00  0.00    +0.004 C 
ATOM      7  C   UNL     1      32.887 -14.157 -25.902  0.00  0.00    +0.032 C 
ENDROOT
BRANCH   3  10
ATOM      8  O   UNL     1      35.233 -16.655 -20.453  0.00  0.00    -0.270 OA
ATOM      9  N   UNL     1      34.887 -18.627 -21.676  0.00  0.00    -0.280 N 
ATOM     10  C   UNL     1      34.854 -17.240 -21.480  0.00  0.00    +0.250 C 
ATOM     11  H   UNL     1      34.551 -18.946 -22.545  0.00  0.00    +0.155 HD
BRANCH   9  12
ATOM     12  C   UNL     1      35.341 -19.632 -20.786  0.00  0.00    +0.050 C 
ATOM     13  C   UNL     1      34.430 -20.514 -20.204  0.00  0.00    +0.019 C 
ATOM     14  C   UNL     1      34.878 -21.503 -19.329  0.00  0.00    +0.073 C 
ATOM     15  C   UNL     1      36.700 -19.740 -20.492  0.00  0.00    +0.015 C 
ATOM     16  C   UNL     1      36.238 -21.610 -19.035  0.00  0.00    +0.004 C 
ATOM     17  C   UNL     1      37.148 -20.729 -19.617  0.00  0.00    +0.001 C 
BRANCH  14  21
ATOM     18  F   UNL     1      33.789 -23.632 -19.372  0.00  0.00    -0.166 F 
ATOM     19  F   UNL     1      34.219 -22.786 -17.422  0.00  0.00    -0.166 F 
ATOM     20  F   UNL     1      32.640 -21.933 -18.650  0.00  0.00    -0.166 F 
ATOM     21  C   UNL     1      33.905 -22.445 -18.707  0.00  0.00    +0.419 C 
ENDBRANCH  14  21
ENDBRANCH   9  12
ENDBRANCH   3  10
BRANCH   1  22
ATOM     22  N   UNL     1      32.162 -13.527 -23.175  0.00  0.00    -0.312 N 
ATOM     23  H   UNL     1      31.216 -13.782 -23.076  0.00  0.00    +0.152 HD
BRANCH  22  25
ATOM     24  N   UNL     1      31.754 -10.035 -22.046  0.00  0.00    -0.241 NA
ATOM     25  C   UNL     1      32.394 -12.146 -23.034  0.00  0.00    +0.068 C 
ATOM     26  C   UNL     1      33.442 -11.523 -23.703  0.00  0.00    +0.022 C 
ATOM     27  C   UNL     1      31.586 -11.365 -22.225  0.00  0.00    +0.113 C 
ATOM     28  C   UNL     1      33.648 -10.157 -23.543  0.00  0.00    +0.073 C 
ATOM     29  C   UNL     1      32.783  -9.464 -22.712  0.00  0.00    +0.103 C 
BRANCH  28  32
ATOM     30  O   UNL     1      35.024  -8.295 -23.973  0.00  0.00    -0.270 OA
ATOM     31  N   UNL     1      35.456 -10.199 -25.175  0.00  0.00    -0.325 N 
ATOM     32  C   UNL     1      34.733  -9.478 -24.228  0.00  0.00    +0.244 C 
ATOM     33  H   UNL     1      36.199  -9.771 -25.658  0.00  0.00    +0.145 HD
ATOM     34  H   UNL     1      35.226 -11.139 -25.359  0.00  0.00    +0.145 HD
ENDBRANCH  28  32
ENDBRANCH  22  25
ENDBRANCH   1  22
TORSDOF 6
ENDMDL
MODEL 4
REMARK VINA RESULT:     -11.8      3.984      7.403
REMARK  Name = 24875320
REMARK  6 active torsions:
REMARK  status: ('A' for Active; 'I' for Inactive)
REMARK    1  A    between atoms: C_1  and  N_22
REMARK    2  A    between atoms: C_3  and  C_10
REMARK    3  A    between atoms: N_9  and  C_12
REMARK    4  A    between atoms: C_14  and  C_21
REMARK    5  A    between atoms: N_22  and  C_25
REMARK    6  A    between atoms: C_28  and  C_32
REMARK                            x       y       z     vdW  Elec       q    Type
REMARK                         _______ _______ _______ _____ _____    ______ ____
ROOT
ATOM      1  C   UNL     1      34.946 -17.804 -22.967  0.00  0.00    +0.044 C 
ATOM      2  C   UNL     1      34.683 -18.059 -24.313  0.00  0.00    -0.008 C 
ATOM      3  C   UNL     1      34.311 -15.494 -23.282  0.00  0.00    +0.055 C 
ATOM      4  C   UNL     1      34.760 -16.521 -22.452  0.00  0.00    +0.019 C 
ATOM      5  C   UNL     1      34.234 -17.033 -25.144  0.00  0.00    -0.003 C 
ATOM      6  C   UNL     1      34.049 -15.750 -24.628  0.00  0.00    +0.004 C 
ATOM      7  C   UNL     1      34.872 -19.424 -24.892  0.00  0.00    +0.032 C 
ENDROOT
BRANCH   3  10
ATOM      8  O   UNL     1      34.517 -13.904 -21.597  0.00  0.00    -0.270 OA
ATOM      9  N   UNL     1      33.462 -13.248 -23.587  0.00  0.00    -0.280 N 
ATOM     10  C   UNL     1      34.118 -14.157 -22.745  0.00  0.00    +0.250 C 
ATOM     11  H   UNL     1      33.205 -13.593 -24.473  0.00  0.00    +0.155 HD
BRANCH   9  12
ATOM     12  C   UNL     1      33.117 -11.898 -23.330  0.00  0.00    +0.050 C 
ATOM     13  C   UNL     1      33.893 -10.866 -23.858  0.00  0.00    +0.019 C 
ATOM     14  C   UNL     1      33.554  -9.538 -23.605  0.00  0.00    +0.073 C 
ATOM     15  C   UNL     1      32.002 -11.601 -22.547  0.00  0.00    +0.015 C 
ATOM     16  C   UNL     1      32.438  -9.240 -22.821  0.00  0.00    +0.004 C 
ATOM     17  C   UNL     1      31.662 -10.272 -22.293  0.00  0.00    +0.001 C 
BRANCH  14  21
ATOM     18  F   UNL     1      35.083  -8.791 -25.286  0.00  0.00    -0.166 F 
ATOM     19  F   UNL     1      33.655  -7.339 -24.539  0.00  0.00    -0.166 F 
ATOM     20  F   UNL     1      35.315  -7.973 -23.285  0.00  0.00    -0.166 F 
ATOM     21  C   UNL     1      34.383  -8.435 -24.169  0.00  0.00    +0.419 C 
ENDBRANCH  14  21
ENDBRANCH   9  12
ENDBRANCH   3  10
BRANCH   1  22
ATOM     22  N   UNL     1      35.400 -18.832 -22.112  0.00  0.00    -0.312 N 
ATOM     23  H   UNL     1      36.372 -18.984 -22.157  0.00  0.00    +0.152 HD
BRANCH  22  25
ATOM     24  N   UNL     1      32.655 -20.577 -20.365  0.00  0.00    -0.241 NA
ATOM     25  C   UNL     1      34.736 -19.682 -21.208  0.00  0.00    +0.068 C 
ATOM     26  C   UNL     1      35.446 -20.447 -20.290  0.00  0.00    +0.022 C 
ATOM     27  C   UNL     1      33.354 -19.781 -21.205  0.00  0.00    +0.113 C 
ATOM     28  C   UNL     1      34.762 -21.279 -19.410  0.00  0.00    +0.073 C 
ATOM     29  C   UNL     1      33.379 -21.307 -19.486  0.00  0.00    +0.103 C 
BRANCH  28  32
ATOM     30  O   UNL     1      34.918 -23.029 -17.842  0.00  0.00    -0.270 OA
ATOM     31  N   UNL     1      36.817 -21.799 -18.209  0.00  0.00    -0.325 N 
ATOM     32  C   UNL     1      35.475 -22.091 -18.440  0.00  0.00    +0.244 C 
ATOM     33  H   UNL     1      37.332 -22.329 -17.558  0.00  0.00    +0.145 HD
ATOM     34  H   UNL     1      37.252 -21.063 -18.698  0.00  0.00    +0.145 HD
ENDBRANCH  28  32
ENDBRANCH  22  25
ENDBRANCH   1  22
TORSDOF 6
ENDMDL
MODEL 5
REMARK VINA RESULT:     -11.7      5.480     10.835
REMARK  Name = 24875320
REMARK  6 active torsions:
REMARK  status: ('A' for Active; 'I' for Inactive)
REMARK    1  A    between atoms: C_1  and  N_22
REMARK    2  A    between atoms: C_3  and  C_10
REMARK    3  A    between atoms: N_9  and  C_12
REMARK    4  A    between atoms: C_14  and  C_21
REMARK    5  A    between atoms: N_22  and  C_25
REMARK    6  A    between atoms: C_28  and  C_32
REMARK                            x       y       z     vdW  Elec       q    Type
REMARK                         _______ _______ _______ _____ _____    ______ ____
ROOT
ATOM      1  C   UNL     1      33.201 -14.325 -23.891  0.00  0.00    +0.044 C 
ATOM      2  C   UNL     1      33.353 -14.840 -25.178  0.00  0.00    -0.008 C 
ATOM      3  C   UNL     1      34.327 -16.262 -22.984  0.00  0.00    +0.055 C 
ATOM      4  C   UNL     1      33.687 -15.036 -22.794  0.00  0.00    +0.019 C 
ATOM      5  C   UNL     1      33.992 -16.065 -25.369  0.00  0.00    -0.003 C 
ATOM      6  C   UNL     1      34.479 -16.776 -24.272  0.00  0.00    +0.004 C 
ATOM      7  C   UNL     1      32.843 -14.100 -26.372  0.00  0.00    +0.032 C 
ENDROOT
BRANCH   3  10
ATOM      8  O   UNL     1      35.144 -16.384 -20.809  0.00  0.00    -0.270 OA
ATOM      9  N   UNL     1      34.949 -18.389 -22.012  0.00  0.00    -0.280 N 
ATOM     10  C   UNL     1      34.833 -17.003 -21.840  0.00  0.00    +0.250 C 
ATOM     11  H   UNL     1      34.662 -18.737 -22.887  0.00  0.00    +0.155 HD
BRANCH   9  12
ATOM     12  C   UNL     1      35.428 -19.355 -21.093  0.00  0.00    +0.050 C 
ATOM     13  C   UNL     1      34.544 -20.265 -20.512  0.00  0.00    +0.019 C 
ATOM     14  C   UNL     1      35.016 -21.215 -19.607  0.00  0.00    +0.073 C 
ATOM     15  C   UNL     1      36.784 -19.396 -20.768  0.00  0.00    +0.015 C 
ATOM     16  C   UNL     1      36.373 -21.256 -19.282  0.00  0.00    +0.004 C 
ATOM     17  C   UNL     1      37.256 -20.346 -19.863  0.00  0.00    +0.001 C 
BRANCH  14  21
ATOM     18  F   UNL     1      33.955 -23.357 -19.680  0.00  0.00    -0.166 F 
ATOM     19  F   UNL     1      34.425 -22.558 -17.719  0.00  0.00    -0.166 F 
ATOM     20  F   UNL     1      32.803 -21.694 -18.882  0.00  0.00    -0.166 F 
ATOM     21  C   UNL     1      34.072 -22.187 -18.986  0.00  0.00    +0.419 C 
ENDBRANCH  14  21
ENDBRANCH   9  12
ENDBRANCH   3  10
BRANCH   1  22
ATOM     22  N   UNL     1      32.558 -13.086 -23.680  0.00  0.00    -0.312 N 
ATOM     23  H   UNL     1      31.588 -13.164 -23.526  0.00  0.00    +0.152 HD
BRANCH  22  25
ATOM     24  N   UNL     1      34.626 -10.117 -24.419  0.00  0.00    -0.241 NA
ATOM     25  C   UNL     1      33.031 -11.761 -23.645  0.00  0.00    +0.068 C 
ATOM     26  C   UNL     1      32.417 -10.801 -22.848  0.00  0.00    +0.022 C 
ATOM     27  C   UNL     1      34.122 -11.372 -24.405  0.00  0.00    +0.113 C 
ATOM     28  C   UNL     1      32.906  -9.499 -22.836  0.00  0.00    +0.073 C 
ATOM     29  C   UNL     1      34.003  -9.211 -23.631  0.00  0.00    +0.103 C 
BRANCH  28  32
ATOM     30  O   UNL     1      31.607  -7.561 -22.515  0.00  0.00    -0.270 OA
ATOM     31  N   UNL     1      32.463  -8.555 -20.634  0.00  0.00    -0.325 N 
ATOM     32  C   UNL     1      32.288  -8.475 -22.014  0.00  0.00    +0.244 C 
ATOM     33  H   UNL     1      32.058  -7.877 -20.046  0.00  0.00    +0.145 HD
ATOM     34  H   UNL     1      32.992  -9.290 -20.247  0.00  0.00    +0.145 HD
ENDBRANCH  28  32
ENDBRANCH  22  25
ENDBRANCH   1  22
TORSDOF 6
ENDMDL
MODEL 6
REMARK VINA RESULT:     -11.6      3.442      5.490
REMARK  Name = 24875320
REMARK  6 active torsions:
REMARK  status: ('A' for Active; 'I' for Inactive)
REMARK    1  A    between atoms: C_1  and  N_22
REMARK    2  A    between atoms: C_3  and  C_10
REMARK    3  A    between atoms: N_9  and  C_12
REMARK    4  A    between atoms: C_14  and  C_21
REMARK    5  A    between atoms: N_22  and  C_25
REMARK    6  A    between atoms: C_28  and  C_32
REMARK                            x       y       z     vdW  Elec       q    Type
REMARK                         _______ _______ _______ _____ _____    ______ ____
ROOT
ATOM      1  C   UNL     1      35.863 -22.537 -16.453  0.00  0.00    +0.044 C 
ATOM      2  C   UNL     1      34.684 -23.282 -16.436  0.00  0.00    -0.008 C 
ATOM      3  C   UNL     1      35.337 -21.757 -18.679  0.00  0.00    +0.055 C 
ATOM      4  C   UNL     1      36.189 -21.775 -17.575  0.00  0.00    +0.019 C 
ATOM      5  C   UNL     1      33.832 -23.265 -17.540  0.00  0.00    -0.003 C 
ATOM      6  C   UNL     1      34.158 -22.503 -18.662  0.00  0.00    +0.004 C 
ATOM      7  C   UNL     1      34.309 -24.107 -15.248  0.00  0.00    +0.032 C 
ENDROOT
BRANCH   3  10
ATOM      8  O   UNL     1      36.797 -21.104 -20.368  0.00  0.00    -0.270 OA
ATOM      9  N   UNL     1      34.694 -20.066 -20.287  0.00  0.00    -0.280 N 
ATOM     10  C   UNL     1      35.678 -20.963 -19.848  0.00  0.00    +0.250 C 
ATOM     11  H   UNL     1      33.854 -20.068 -19.774  0.00  0.00    +0.155 HD
BRANCH   9  12
ATOM     12  C   UNL     1      34.750 -19.157 -21.372  0.00  0.00    +0.050 C 
ATOM     13  C   UNL     1      34.545 -17.795 -21.154  0.00  0.00    +0.019 C 
ATOM     14  C   UNL     1      34.600 -16.900 -22.222  0.00  0.00    +0.073 C 
ATOM     15  C   UNL     1      35.011 -19.625 -22.660  0.00  0.00    +0.015 C 
ATOM     16  C   UNL     1      34.861 -17.369 -23.511  0.00  0.00    +0.004 C 
ATOM     17  C   UNL     1      35.067 -18.730 -23.729  0.00  0.00    +0.001 C 
BRANCH  14  21
ATOM     18  F   UNL     1      34.916 -14.989 -20.819  0.00  0.00    -0.166 F 
ATOM     19  F   UNL     1      34.918 -14.648 -22.960  0.00  0.00    -0.166 F 
ATOM     20  F   UNL     1      33.056 -15.115 -21.938  0.00  0.00    -0.166 F 
ATOM     21  C   UNL     1      34.380 -15.444 -21.989  0.00  0.00    +0.419 C 
ENDBRANCH  14  21
ENDBRANCH   9  12
ENDBRANCH   3  10
BRANCH   1  22
ATOM     22  N   UNL     1      36.737 -22.542 -15.344  0.00  0.00    -0.312 N 
ATOM     23  H   UNL     1      36.964 -21.642 -15.014  0.00  0.00    +0.152 HD
BRANCH  22  25
ATOM     24  N   UNL     1      37.396 -24.964 -12.636  0.00  0.00    -0.241 NA
ATOM     25  C   UNL     1      37.348 -23.582 -14.618  0.00  0.00    +0.068 C 
ATOM     26  C   UNL     1      38.462 -24.246 -15.118  0.00  0.00    +0.022 C 
ATOM     27  C   UNL     1      36.858 -23.975 -13.383  0.00  0.00    +0.113 C 
ATOM     28  C   UNL     1      39.044 -25.271 -14.379  0.00  0.00    +0.073 C 
ATOM     29  C   UNL     1      38.479 -25.588 -13.154  0.00  0.00    +0.103 C 
BRANCH  28  32
ATOM     30  O   UNL     1      40.538 -25.938 -16.072  0.00  0.00    -0.270 OA
ATOM     31  N   UNL     1      40.962 -26.712 -13.956  0.00  0.00    -0.325 N 
ATOM     32  C   UNL     1      40.208 -25.984 -14.873  0.00  0.00    +0.244 C 
ATOM     33  H   UNL     1      41.758 -27.208 -14.255  0.00  0.00    +0.145 HD
ATOM     34  H   UNL     1      40.699 -26.730 -13.007  0.00  0.00    +0.145 HD
ENDBRANCH  28  32
ENDBRANCH  22  25
ENDBRANCH   1  22
TORSDOF 6
ENDMDL
MODEL 7
REMARK VINA RESULT:     -11.6      4.078      7.495
REMARK  Name = 24875320
REMARK  6 active torsions:
REMARK  status: ('A' for Active; 'I' for Inactive)
REMARK    1  A    between atoms: C_1  and  N_22
REMARK    2  A    between atoms: C_3  and  C_10
REMARK    3  A    between atoms: N_9  and  C_12
REMARK    4  A    between atoms: C_14  and  C_21
REMARK    5  A    between atoms: N_22  and  C_25
REMARK    6  A    between atoms: C_28  and  C_32
REMARK                            x       y       z     vdW  Elec       q    Type
REMARK                         _______ _______ _______ _____ _____    ______ ____
ROOT
ATOM      1  C   UNL     1      34.743 -17.479 -23.055  0.00  0.00    +0.044 C 
ATOM      2  C   UNL     1      34.560 -17.889 -24.376  0.00  0.00    -0.008 C 
ATOM      3  C   UNL     1      33.969 -15.264 -23.636  0.00  0.00    +0.055 C 
ATOM      4  C   UNL     1      34.448 -16.166 -22.686  0.00  0.00    +0.019 C 
ATOM      5  C   UNL     1      34.081 -16.988 -25.326  0.00  0.00    -0.003 C 
ATOM      6  C   UNL     1      33.786 -15.675 -24.957  0.00  0.00    +0.004 C 
ATOM      7  C   UNL     1      34.867 -19.288 -24.799  0.00  0.00    +0.032 C 
ENDROOT
BRANCH   3  10
ATOM      8  O   UNL     1      34.195 -12.961 -23.870  0.00  0.00    -0.270 OA
ATOM      9  N   UNL     1      32.783 -13.748 -22.169  0.00  0.00    -0.280 N 
ATOM     10  C   UNL     1      33.662 -13.897 -23.251  0.00  0.00    +0.250 C 
ATOM     11  H   UNL     1      32.439 -14.584 -21.779  0.00  0.00    +0.155 HD
BRANCH   9  12
ATOM     12  C   UNL     1      32.325 -12.553 -21.563  0.00  0.00    +0.050 C 
ATOM     13  C   UNL     1      32.244 -11.377 -22.310  0.00  0.00    +0.019 C 
ATOM     14  C   UNL     1      31.793 -10.200 -21.712  0.00  0.00    +0.073 C 
ATOM     15  C   UNL     1      31.955 -12.550 -20.218  0.00  0.00    +0.015 C 
ATOM     16  C   UNL     1      31.423 -10.199 -20.367  0.00  0.00    +0.004 C 
ATOM     17  C   UNL     1      31.504 -11.374 -19.620  0.00  0.00    +0.001 C 
BRANCH  14  21
ATOM     18  F   UNL     1      31.476  -7.830 -21.755  0.00  0.00    -0.166 F 
ATOM     19  F   UNL     1      32.841  -8.667 -23.218  0.00  0.00    -0.166 F 
ATOM     20  F   UNL     1      30.699  -8.976 -23.431  0.00  0.00    -0.166 F 
ATOM     21  C   UNL     1      31.706  -8.944 -22.510  0.00  0.00    +0.419 C 
ENDBRANCH  14  21
ENDBRANCH   9  12
ENDBRANCH   3  10
BRANCH   1  22
ATOM     22  N   UNL     1      35.227 -18.378 -22.080  0.00  0.00    -0.312 N 
ATOM     23  H   UNL     1      36.201 -18.332 -21.947  0.00  0.00    +0.152 HD
BRANCH  22  25
ATOM     24  N   UNL     1      32.533 -20.344 -20.493  0.00  0.00    -0.241 NA
ATOM     25  C   UNL     1      34.588 -19.328 -21.260  0.00  0.00    +0.068 C 
ATOM     26  C   UNL     1      35.322 -20.169 -20.432  0.00  0.00    +0.022 C 
ATOM     27  C   UNL     1      33.208 -19.454 -21.254  0.00  0.00    +0.113 C 
ATOM     28  C   UNL     1      34.664 -21.098 -19.634  0.00  0.00    +0.073 C 
ATOM     29  C   UNL     1      33.281 -21.145 -19.700  0.00  0.00    +0.103 C 
BRANCH  28  32
ATOM     30  O   UNL     1      34.866 -22.991 -18.247  0.00  0.00    -0.270 OA
ATOM     31  N   UNL     1      36.744 -21.703 -18.519  0.00  0.00    -0.325 N 
ATOM     32  C   UNL     1      35.402 -21.990 -18.758  0.00  0.00    +0.244 C 
ATOM     33  H   UNL     1      37.275 -22.286 -17.930  0.00  0.00    +0.145 HD
ATOM     34  H   UNL     1      37.161 -20.916 -18.939  0.00  0.00    +0.145 HD
ENDBRANCH  28  32
ENDBRANCH  22  25
ENDBRANCH   1  22
TORSDOF 6
ENDMDL
MODEL 8
REMARK VINA RESULT:     -11.4      4.620      9.346
REMARK  Name = 24875320
REMARK  6 active torsions:
REMARK  status: ('A' for Active; 'I' for Inactive)
REMARK    1  A    between atoms: C_1  and  N_22
REMARK    2  A    between atoms: C_3  and  C_10
REMARK    3  A    between atoms: N_9  and  C_12
REMARK    4  A    between atoms: C_14  and  C_21
REMARK    5  A    between atoms: N_22  and  C_25
REMARK    6  A    between atoms: C_28  and  C_32
REMARK                            x       y       z     vdW  Elec       q    Type
REMARK                         _______ _______ _______ _____ _____    ______ ____
ROOT
ATOM      1  C   UNL     1      34.981 -20.550 -20.579  0.00  0.00    +0.044 C 
ATOM      2  C   UNL     1      36.291 -20.318 -20.159  0.00  0.00    -0.008 C 
ATOM      3  C   UNL     1      34.687 -22.140 -18.783  0.00  0.00    +0.055 C 
ATOM      4  C   UNL     1      34.180 -21.461 -19.891  0.00  0.00    +0.019 C 
ATOM      5  C   UNL     1      36.799 -20.996 -19.051  0.00  0.00    -0.003 C 
ATOM      6  C   UNL     1      35.997 -21.907 -18.363  0.00  0.00    +0.004 C 
ATOM      7  C   UNL     1      37.172 -19.347 -20.876  0.00  0.00    +0.032 C 
ENDROOT
BRANCH   3  10
ATOM      8  O   UNL     1      33.499 -24.134 -18.639  0.00  0.00    -0.270 OA
ATOM      9  N   UNL     1      33.490 -22.725 -16.763  0.00  0.00    -0.280 N 
ATOM     10  C   UNL     1      33.852 -23.090 -18.067  0.00  0.00    +0.250 C 
ATOM     11  H   UNL     1      33.848 -21.865 -16.444  0.00  0.00    +0.155 HD
BRANCH   9  12
ATOM     12  C   UNL     1      32.674 -23.430 -15.844  0.00  0.00    +0.050 C 
ATOM     13  C   UNL     1      31.301 -23.537 -16.068  0.00  0.00    +0.019 C 
ATOM     14  C   UNL     1      30.498 -24.232 -15.163  0.00  0.00    +0.073 C 
ATOM     15  C   UNL     1      33.244 -24.018 -14.714  0.00  0.00    +0.015 C 
ATOM     16  C   UNL     1      31.069 -24.819 -14.033  0.00  0.00    +0.004 C 
ATOM     17  C   UNL     1      32.441 -24.712 -13.810  0.00  0.00    +0.001 C 
BRANCH  14  21
ATOM     18  F   UNL     1      28.406 -25.223 -14.562  0.00  0.00    -0.166 F 
ATOM     19  F   UNL     1      28.359 -23.167 -15.250  0.00  0.00    -0.166 F 
ATOM     20  F   UNL     1      28.737 -24.775 -16.664  0.00  0.00    -0.166 F 
ATOM     21  C   UNL     1      29.032 -24.346 -15.402  0.00  0.00    +0.419 C 
ENDBRANCH  14  21
ENDBRANCH   9  12
ENDBRANCH   3  10
BRANCH   1  22
ATOM     22  N   UNL     1      34.451 -19.872 -21.698  0.00  0.00    -0.312 N 
ATOM     23  H   UNL     1      33.916 -20.446 -22.293  0.00  0.00    +0.152 HD
BRANCH  22  25
ATOM     24  N   UNL     1      34.955 -16.966 -23.919  0.00  0.00    -0.241 NA
ATOM     25  C   UNL     1      34.536 -18.534 -22.129  0.00  0.00    +0.068 C 
ATOM     26  C   UNL     1      34.298 -17.482 -21.252  0.00  0.00    +0.022 C 
ATOM     27  C   UNL     1      34.858 -18.226 -23.441  0.00  0.00    +0.113 C 
ATOM     28  C   UNL     1      34.388 -16.171 -21.708  0.00  0.00    +0.073 C 
ATOM     29  C   UNL     1      34.718 -15.968 -23.038  0.00  0.00    +0.103 C 
BRANCH  28  32
ATOM     30  O   UNL     1      35.072 -14.513 -20.180  0.00  0.00    -0.270 OA
ATOM     31  N   UNL     1      32.841 -14.577 -20.708  0.00  0.00    -0.325 N 
ATOM     32  C   UNL     1      34.147 -15.050 -20.817  0.00  0.00    +0.244 C 
ATOM     33  H   UNL     1      32.640 -13.818 -20.114  0.00  0.00    +0.145 HD
ATOM     34  H   UNL     1      32.119 -15.000 -21.226  0.00  0.00    +0.145 HD
ENDBRANCH  28  32
ENDBRANCH  22  25
ENDBRANCH   1  22
TORSDOF 6
ENDMDL
MODEL 9
REMARK VINA RESULT:     -11.3      1.862      2.409
REMARK  Name = 24875320
REMARK  6 active torsions:
REMARK  status: ('A' for Active; 'I' for Inactive)
REMARK    1  A    between atoms: C_1  and  N_22
REMARK    2  A    between atoms: C_3  and  C_10
REMARK    3  A    between atoms: N_9  and  C_12
REMARK    4  A    between atoms: C_14  and  C_21
REMARK    5  A    between atoms: N_22  and  C_25
REMARK    6  A    between atoms: C_28  and  C_32
REMARK                            x       y       z     vdW  Elec       q    Type
REMARK                         _______ _______ _______ _____ _____    ______ ____
ROOT
ATOM      1  C   UNL     1      34.500 -22.981 -17.190  0.00  0.00    +0.044 C 
ATOM      2  C   UNL     1      35.553 -23.015 -16.276  0.00  0.00    -0.008 C 
ATOM      3  C   UNL     1      35.818 -21.584 -18.656  0.00  0.00    +0.055 C 
ATOM      4  C   UNL     1      34.632 -22.266 -18.380  0.00  0.00    +0.019 C 
ATOM      5  C   UNL     1      36.738 -22.334 -16.552  0.00  0.00    -0.003 C 
ATOM      6  C   UNL     1      36.871 -21.618 -17.742  0.00  0.00    +0.004 C 
ATOM      7  C   UNL     1      35.439 -23.774 -14.994  0.00  0.00    +0.032 C 
ENDROOT
BRANCH   3  10
ATOM      8  O   UNL     1      36.853 -21.152 -20.694  0.00  0.00    -0.270 OA
ATOM      9  N   UNL     1      35.049 -19.784 -20.079  0.00  0.00    -0.280 N 
ATOM     10  C   UNL     1      35.955 -20.838 -19.896  0.00  0.00    +0.250 C 
ATOM     11  H   UNL     1      34.390 -19.655 -19.359  0.00  0.00    +0.155 HD
BRANCH   9  12
ATOM     12  C   UNL     1      34.958 -18.878 -21.165  0.00  0.00    +0.050 C 
ATOM     13  C   UNL     1      34.733 -19.356 -22.456  0.00  0.00    +0.019 C 
ATOM     14  C   UNL     1      34.643 -18.464 -23.525  0.00  0.00    +0.073 C 
ATOM     15  C   UNL     1      35.093 -17.508 -20.943  0.00  0.00    +0.015 C 
ATOM     16  C   UNL     1      34.779 -17.093 -23.302  0.00  0.00    +0.004 C 
ATOM     17  C   UNL     1      35.003 -16.616 -22.011  0.00  0.00    +0.001 C 
BRANCH  14  21
ATOM     18  F   UNL     1      34.901 -18.162 -25.883  0.00  0.00    -0.166 F 
ATOM     19  F   UNL     1      34.962 -20.199 -25.139  0.00  0.00    -0.166 F 
ATOM     20  F   UNL     1      33.076 -19.118 -25.188  0.00  0.00    -0.166 F 
ATOM     21  C   UNL     1      34.403 -18.974 -24.905  0.00  0.00    +0.419 C 
ENDBRANCH  14  21
ENDBRANCH   9  12
ENDBRANCH   3  10
BRANCH   1  22
ATOM     22  N   UNL     1      33.293 -23.666 -16.927  0.00  0.00    -0.312 N 
ATOM     23  H   UNL     1      33.200 -24.511 -17.425  0.00  0.00    +0.152 HD
BRANCH  22  25
ATOM     24  N   UNL     1      31.323 -23.083 -13.859  0.00  0.00    -0.241 NA
ATOM     25  C   UNL     1      32.196 -23.377 -16.093  0.00  0.00    +0.068 C 
ATOM     26  C   UNL     1      30.942 -23.106 -16.628  0.00  0.00    +0.022 C 
ATOM     27  C   UNL     1      32.333 -23.353 -14.715  0.00  0.00    +0.113 C 
ATOM     28  C   UNL     1      29.877 -22.822 -15.779  0.00  0.00    +0.073 C 
ATOM     29  C   UNL     1      30.117 -22.824 -14.414  0.00  0.00    +0.103 C 
BRANCH  28  32
ATOM     30  O   UNL     1      27.740 -21.837 -15.674  0.00  0.00    -0.270 OA
ATOM     31  N   UNL     1      28.228 -23.053 -17.557  0.00  0.00    -0.325 N 
ATOM     32  C   UNL     1      28.555 -22.535 -16.305  0.00  0.00    +0.244 C 
ATOM     33  H   UNL     1      27.340 -22.879 -17.945  0.00  0.00    +0.145 HD
ATOM     34  H   UNL     1      28.884 -23.593 -18.053  0.00  0.00    +0.145 HD
ENDBRANCH  28  32
ENDBRANCH  22  25
ENDBRANCH   1  22
TORSDOF 6
ENDMDL
