MODEL 1
REMARK VINA RESULT:     -10.5      0.000      0.000
REMARK  Name = 21066379
REMARK  6 active torsions:
REMARK  status: ('A' for Active; 'I' for Inactive)
REMARK    1  A    between atoms: C_4  and  N_16
REMARK    2  A    between atoms: C_6  and  C_25
REMARK    3  A    between atoms: C_7  and  C_10
REMARK    4  A    between atoms: N_16  and  C_18
REMARK    5  A    between atoms: C_18  and  C_20
REMARK    6  A    between atoms: C_25  and  O_26
REMARK                            x       y       z     vdW  Elec       q    Type
REMARK                         _______ _______ _______ _____ _____    ______ ____
ROOT
ATOM      1  N   UNL     1      35.392 -23.046 -15.807  0.00  0.00    -0.152 N 
ATOM      2  N   UNL     1      33.466 -23.727 -14.532  0.00  0.00    -0.389 NA
ATOM      3  N   UNL     1      36.735 -22.870 -15.646  0.00  0.00    -0.173 NA
ATOM      4  C   UNL     1      34.631 -22.833 -16.967  0.00  0.00    +0.126 C 
ATOM      5  C   UNL     1      34.801 -23.480 -14.619  0.00  0.00    +0.192 C 
ATOM      6  C   UNL     1      35.812 -23.578 -13.690  0.00  0.00    +0.141 C 
ATOM      7  C   UNL     1      32.760 -23.545 -15.611  0.00  0.00    +0.135 C 
ATOM      8  C   UNL     1      33.308 -23.067 -16.919  0.00  0.00    +0.064 C 
ATOM      9  C   UNL     1      36.969 -23.193 -14.376  0.00  0.00    +0.103 C 
ENDROOT
BRANCH   7  10
ATOM     10  C   UNL     1      31.298 -23.807 -15.562  0.00  0.00    +0.030 C 
ATOM     11  C   UNL     1      30.422 -23.012 -16.302  0.00  0.00    +0.003 C 
ATOM     12  C   UNL     1      30.801 -24.847 -14.777  0.00  0.00    +0.003 C 
ATOM     13  C   UNL     1      29.050 -23.258 -16.257  0.00  0.00    +0.000 C 
ATOM     14  C   UNL     1      29.428 -25.093 -14.732  0.00  0.00    +0.000 C 
ATOM     15  C   UNL     1      28.553 -24.298 -15.473  0.00  0.00    +0.000 C 
ENDBRANCH   7  10
BRANCH   4  16
ATOM     16  N   UNL     1      35.287 -22.392 -18.081  0.00  0.00    -0.316 N 
ATOM     17  H   UNL     1      36.238 -22.153 -17.998  0.00  0.00    +0.148 HD
BRANCH  16  18
ATOM     18  C   UNL     1      34.659 -22.261 -19.369  0.00  0.00    +0.117 C 
BRANCH  18  20
ATOM     19  N   UNL     1      36.721 -19.322 -20.562  0.00  0.00    -0.243 NA
ATOM     20  C   UNL     1      35.019 -20.944 -19.998  0.00  0.00    +0.017 C 
ATOM     21  C   UNL     1      34.048 -20.140 -20.583  0.00  0.00    +0.001 C 
ATOM     22  C   UNL     1      36.330 -20.493 -20.013  0.00  0.00    +0.096 C 
ATOM     23  C   UNL     1      34.412 -18.926 -21.157  0.00  0.00    +0.020 C 
ATOM     24  C   UNL     1      35.749 -18.566 -21.120  0.00  0.00    +0.099 C 
ENDBRANCH  18  20
ENDBRANCH  16  18
ENDBRANCH   4  16
BRANCH   6  25
ATOM     25  C   UNL     1      35.702 -23.998 -12.283  0.00  0.00    +0.152 C 
BRANCH  25  26
ATOM     26  O   UNL     1      34.619 -24.909 -12.064  0.00  0.00    -0.381 OA
ATOM     27  H   UNL     1      34.865 -25.543 -11.373  0.00  0.00    +0.210 HD
ENDBRANCH  25  26
ENDBRANCH   6  25
TORSDOF 6
ENDMDL
MODEL 2
REMARK VINA RESULT:     -10.4      2.593      6.830
REMARK  Name = 21066379
REMARK  6 active torsions:
REMARK  status: ('A' for Active; 'I' for Inactive)
REMARK    1  A    between atoms: C_4  and  N_16
REMARK    2  A    between atoms: C_6  and  C_25
REMARK    3  A    between atoms: C_7  and  C_10
REMARK    4  A    between atoms: N_16  and  C_18
REMARK    5  A    between atoms: C_18  and  C_20
REMARK    6  A    between atoms: C_25  and  O_26
REMARK                            x       y       z     vdW  Elec       q    Type
REMARK                         _______ _______ _______ _____ _____    ______ ____
ROOT
ATOM      1  N   UNL     1      32.001 -24.161 -15.242  0.00  0.00    -0.152 N 
ATOM      2  N   UNL     1      31.762 -22.853 -17.249  0.00  0.00    -0.389 NA
ATOM      3  N   UNL     1      31.225 -24.788 -14.311  0.00  0.00    -0.173 NA
ATOM      4  C   UNL     1      33.402 -24.094 -15.287  0.00  0.00    +0.126 C 
ATOM      5  C   UNL     1      31.212 -23.542 -16.212  0.00  0.00    +0.192 C 
ATOM      6  C   UNL     1      29.903 -23.792 -15.873  0.00  0.00    +0.141 C 
ATOM      7  C   UNL     1      33.061 -22.802 -17.301  0.00  0.00    +0.135 C 
ATOM      8  C   UNL     1      33.981 -23.423 -16.297  0.00  0.00    +0.064 C 
ATOM      9  C   UNL     1      29.974 -24.557 -14.703  0.00  0.00    +0.103 C 
ENDROOT
BRANCH   7  10
ATOM     10  C   UNL     1      33.705 -22.064 -18.420  0.00  0.00    +0.030 C 
ATOM     11  C   UNL     1      35.085 -22.147 -18.607  0.00  0.00    +0.003 C 
ATOM     12  C   UNL     1      32.929 -21.289 -19.282  0.00  0.00    +0.003 C 
ATOM     13  C   UNL     1      35.689 -21.454 -19.657  0.00  0.00    +0.000 C 
ATOM     14  C   UNL     1      33.533 -20.597 -20.332  0.00  0.00    +0.000 C 
ATOM     15  C   UNL     1      34.914 -20.680 -20.519  0.00  0.00    +0.000 C 
ENDBRANCH   7  10
BRANCH   4  16
ATOM     16  N   UNL     1      34.097 -24.715 -14.288  0.00  0.00    -0.316 N 
ATOM     17  H   UNL     1      34.036 -25.695 -14.217  0.00  0.00    +0.148 HD
BRANCH  16  18
ATOM     18  C   UNL     1      34.913 -24.011 -13.335  0.00  0.00    +0.117 C 
BRANCH  18  20
ATOM     19  N   UNL     1      38.492 -24.222 -14.543  0.00  0.00    -0.243 NA
ATOM     20  C   UNL     1      36.348 -24.445 -13.448  0.00  0.00    +0.017 C 
ATOM     21  C   UNL     1      36.868 -25.426 -12.612  0.00  0.00    +0.001 C 
ATOM     22  C   UNL     1      37.194 -23.879 -14.389  0.00  0.00    +0.096 C 
ATOM     23  C   UNL     1      38.199 -25.806 -12.740  0.00  0.00    +0.020 C 
ATOM     24  C   UNL     1      38.962 -25.180 -13.713  0.00  0.00    +0.099 C 
ENDBRANCH  18  20
ENDBRANCH  16  18
ENDBRANCH   4  16
BRANCH   6  25
ATOM     25  C   UNL     1      28.689 -23.353 -16.584  0.00  0.00    +0.152 C 
BRANCH  25  26
ATOM     26  O   UNL     1      28.768 -21.990 -17.014  0.00  0.00    -0.381 OA
ATOM     27  H   UNL     1      29.699 -21.737 -17.119  0.00  0.00    +0.210 HD
ENDBRANCH  25  26
ENDBRANCH   6  25
TORSDOF 6
ENDMDL
MODEL 3
REMARK VINA RESULT:     -10.4      2.225      6.239
REMARK  Name = 21066379
REMARK  6 active torsions:
REMARK  status: ('A' for Active; 'I' for Inactive)
REMARK    1  A    between atoms: C_4  and  N_16
REMARK    2  A    between atoms: C_6  and  C_25
REMARK    3  A    between atoms: C_7  and  C_10
REMARK    4  A    between atoms: N_16  and  C_18
REMARK    5  A    between atoms: C_18  and  C_20
REMARK    6  A    between atoms: C_25  and  O_26
REMARK                            x       y       z     vdW  Elec       q    Type
REMARK                         _______ _______ _______ _____ _____    ______ ____
ROOT
ATOM      1  N   UNL     1      35.245 -24.380 -13.851  0.00  0.00    -0.152 N 
ATOM      2  N   UNL     1      36.457 -23.641 -15.795  0.00  0.00    -0.389 NA
ATOM      3  N   UNL     1      35.465 -25.047 -12.682  0.00  0.00    -0.173 NA
ATOM      4  C   UNL     1      34.033 -23.852 -14.324  0.00  0.00    +0.126 C 
ATOM      5  C   UNL     1      36.424 -24.270 -14.590  0.00  0.00    +0.192 C 
ATOM      6  C   UNL     1      37.408 -24.889 -13.855  0.00  0.00    +0.141 C 
ATOM      7  C   UNL     1      35.338 -23.137 -16.230  0.00  0.00    +0.135 C 
ATOM      8  C   UNL     1      34.027 -23.223 -15.511  0.00  0.00    +0.064 C 
ATOM      9  C   UNL     1      36.762 -25.344 -12.700  0.00  0.00    +0.103 C 
ENDROOT
BRANCH   7  10
ATOM     10  C   UNL     1      35.328 -22.436 -17.541  0.00  0.00    +0.030 C 
ATOM     11  C   UNL     1      34.168 -22.422 -18.316  0.00  0.00    +0.003 C 
ATOM     12  C   UNL     1      36.479 -21.794 -17.997  0.00  0.00    +0.003 C 
ATOM     13  C   UNL     1      34.159 -21.765 -19.546  0.00  0.00    +0.000 C 
ATOM     14  C   UNL     1      36.470 -21.136 -19.227  0.00  0.00    +0.000 C 
ATOM     15  C   UNL     1      35.309 -21.122 -20.001  0.00  0.00    +0.000 C 
ENDBRANCH   7  10
BRANCH   4  16
ATOM     16  N   UNL     1      32.925 -24.019 -13.544  0.00  0.00    -0.316 N 
ATOM     17  H   UNL     1      32.805 -23.422 -12.770  0.00  0.00    +0.148 HD
BRANCH  16  18
ATOM     18  C   UNL     1      31.923 -25.020 -13.796  0.00  0.00    +0.117 C 
BRANCH  18  20
ATOM     19  N   UNL     1      28.848 -24.735 -15.982  0.00  0.00    -0.243 NA
ATOM     20  C   UNL     1      30.752 -24.422 -14.526  0.00  0.00    +0.017 C 
ATOM     21  C   UNL     1      30.474 -23.062 -14.442  0.00  0.00    +0.001 C 
ATOM     22  C   UNL     1      29.916 -25.209 -15.302  0.00  0.00    +0.096 C 
ATOM     23  C   UNL     1      29.384 -22.538 -15.128  0.00  0.00    +0.020 C 
ATOM     24  C   UNL     1      28.610 -23.408 -15.878  0.00  0.00    +0.099 C 
ENDBRANCH  18  20
ENDBRANCH  16  18
ENDBRANCH   4  16
BRANCH   6  25
ATOM     25  C   UNL     1      38.831 -25.040 -14.204  0.00  0.00    +0.152 C 
BRANCH  25  26
ATOM     26  O   UNL     1      39.178 -24.348 -15.409  0.00  0.00    -0.381 OA
ATOM     27  H   UNL     1      38.713 -24.752 -16.158  0.00  0.00    +0.210 HD
ENDBRANCH  25  26
ENDBRANCH   6  25
TORSDOF 6
ENDMDL
MODEL 4
REMARK VINA RESULT:     -10.3      1.617      4.622
REMARK  Name = 21066379
REMARK  6 active torsions:
REMARK  status: ('A' for Active; 'I' for Inactive)
REMARK    1  A    between atoms: C_4  and  N_16
REMARK    2  A    between atoms: C_6  and  C_25
REMARK    3  A    between atoms: C_7  and  C_10
REMARK    4  A    between atoms: N_16  and  C_18
REMARK    5  A    between atoms: C_18  and  C_20
REMARK    6  A    between atoms: C_25  and  O_26
REMARK                            x       y       z     vdW  Elec       q    Type
REMARK                         _______ _______ _______ _____ _____    ______ ____
ROOT
ATOM      1  N   UNL     1      32.318 -23.174 -16.391  0.00  0.00    -0.152 N 
ATOM      2  N   UNL     1      33.317 -24.045 -14.382  0.00  0.00    -0.389 NA
ATOM      3  N   UNL     1      31.095 -22.803 -16.867  0.00  0.00    -0.173 NA
ATOM      4  C   UNL     1      33.547 -23.148 -17.070  0.00  0.00    +0.126 C 
ATOM      5  C   UNL     1      32.225 -23.622 -15.073  0.00  0.00    +0.192 C 
ATOM      6  C   UNL     1      30.899 -23.526 -14.718  0.00  0.00    +0.141 C 
ATOM      7  C   UNL     1      34.460 -24.008 -15.004  0.00  0.00    +0.135 C 
ATOM      8  C   UNL     1      34.649 -23.558 -16.419  0.00  0.00    +0.064 C 
ATOM      9  C   UNL     1      30.258 -23.019 -15.854  0.00  0.00    +0.103 C 
ENDROOT
BRANCH   7  10
ATOM     10  C   UNL     1      35.682 -24.457 -14.284  0.00  0.00    +0.030 C 
ATOM     11  C   UNL     1      35.661 -24.599 -12.897  0.00  0.00    +0.003 C 
ATOM     12  C   UNL     1      36.848 -24.734 -14.996  0.00  0.00    +0.003 C 
ATOM     13  C   UNL     1      36.807 -25.020 -12.222  0.00  0.00    +0.000 C 
ATOM     14  C   UNL     1      37.994 -25.155 -14.321  0.00  0.00    +0.000 C 
ATOM     15  C   UNL     1      37.973 -25.298 -12.933  0.00  0.00    +0.000 C 
ENDBRANCH   7  10
BRANCH   4  16
ATOM     16  N   UNL     1      33.545 -22.710 -18.363  0.00  0.00    -0.316 N 
ATOM     17  H   UNL     1      32.679 -22.607 -18.820  0.00  0.00    +0.148 HD
BRANCH  16  18
ATOM     18  C   UNL     1      34.744 -22.392 -19.093  0.00  0.00    +0.117 C 
BRANCH  18  20
ATOM     19  N   UNL     1      35.600 -19.175 -20.890  0.00  0.00    -0.243 NA
ATOM     20  C   UNL     1      34.578 -21.097 -19.839  0.00  0.00    +0.017 C 
ATOM     21  C   UNL     1      33.316 -20.617 -20.170  0.00  0.00    +0.001 C 
ATOM     22  C   UNL     1      35.679 -20.345 -20.219  0.00  0.00    +0.096 C 
ATOM     23  C   UNL     1      33.195 -19.416 -20.860  0.00  0.00    +0.020 C 
ATOM     24  C   UNL     1      34.357 -18.739 -21.194  0.00  0.00    +0.099 C 
ENDBRANCH  18  20
ENDBRANCH  16  18
ENDBRANCH   4  16
BRANCH   6  25
ATOM     25  C   UNL     1      30.287 -23.876 -13.425  0.00  0.00    +0.152 C 
BRANCH  25  26
ATOM     26  O   UNL     1      30.841 -25.069 -12.860  0.00  0.00    -0.381 OA
ATOM     27  H   UNL     1      31.153 -24.886 -11.960  0.00  0.00    +0.210 HD
ENDBRANCH  25  26
ENDBRANCH   6  25
TORSDOF 6
ENDMDL
MODEL 5
REMARK VINA RESULT:     -10.3      6.106     10.855
REMARK  Name = 21066379
REMARK  6 active torsions:
REMARK  status: ('A' for Active; 'I' for Inactive)
REMARK    1  A    between atoms: C_4  and  N_16
REMARK    2  A    between atoms: C_6  and  C_25
REMARK    3  A    between atoms: C_7  and  C_10
REMARK    4  A    between atoms: N_16  and  C_18
REMARK    5  A    between atoms: C_18  and  C_20
REMARK    6  A    between atoms: C_25  and  O_26
REMARK                            x       y       z     vdW  Elec       q    Type
REMARK                         _______ _______ _______ _____ _____    ______ ____
ROOT
ATOM      1  N   UNL     1      34.355 -16.327 -23.058  0.00  0.00    -0.152 N 
ATOM      2  N   UNL     1      33.027 -14.345 -23.377  0.00  0.00    -0.389 NA
ATOM      3  N   UNL     1      34.939 -17.317 -23.793  0.00  0.00    -0.173 NA
ATOM      4  C   UNL     1      34.371 -16.172 -21.663  0.00  0.00    +0.126 C 
ATOM      5  C   UNL     1      33.686 -15.423 -23.883  0.00  0.00    +0.192 C 
ATOM      6  C   UNL     1      33.859 -15.865 -25.174  0.00  0.00    +0.141 C 
ATOM      7  C   UNL     1      33.053 -14.190 -22.085  0.00  0.00    +0.135 C 
ATOM      8  C   UNL     1      33.732 -15.118 -21.127  0.00  0.00    +0.064 C 
ATOM      9  C   UNL     1      34.632 -17.026 -25.056  0.00  0.00    +0.103 C 
ENDROOT
BRANCH   7  10
ATOM     10  C   UNL     1      32.349 -13.023 -21.489  0.00  0.00    +0.030 C 
ATOM     11  C   UNL     1      31.740 -12.080 -22.317  0.00  0.00    +0.003 C 
ATOM     12  C   UNL     1      32.299 -12.871 -20.104  0.00  0.00    +0.003 C 
ATOM     13  C   UNL     1      31.080 -10.985 -21.759  0.00  0.00    +0.000 C 
ATOM     14  C   UNL     1      31.640 -11.776 -19.546  0.00  0.00    +0.000 C 
ATOM     15  C   UNL     1      31.029 -10.834 -20.374  0.00  0.00    +0.000 C 
ENDBRANCH   7  10
BRANCH   4  16
ATOM     16  N   UNL     1      35.037 -17.112 -20.930  0.00  0.00    -0.316 N 
ATOM     17  H   UNL     1      35.213 -16.925 -19.979  0.00  0.00    +0.148 HD
BRANCH  16  18
ATOM     18  C   UNL     1      35.494 -18.363 -21.476  0.00  0.00    +0.117 C 
BRANCH  18  20
ATOM     19  N   UNL     1      32.739 -20.633 -20.223  0.00  0.00    -0.243 NA
ATOM     20  C   UNL     1      34.803 -19.516 -20.802  0.00  0.00    +0.017 C 
ATOM     21  C   UNL     1      35.531 -20.507 -20.153  0.00  0.00    +0.001 C 
ATOM     22  C   UNL     1      33.422 -19.624 -20.808  0.00  0.00    +0.096 C 
ATOM     23  C   UNL     1      34.864 -21.561 -19.538  0.00  0.00    +0.020 C 
ATOM     24  C   UNL     1      33.480 -21.577 -19.600  0.00  0.00    +0.099 C 
ENDBRANCH  18  20
ENDBRANCH  16  18
ENDBRANCH   4  16
BRANCH   6  25
ATOM     25  C   UNL     1      33.346 -15.252 -26.411  0.00  0.00    +0.152 C 
BRANCH  25  26
ATOM     26  O   UNL     1      32.219 -14.401 -26.176  0.00  0.00    -0.381 OA
ATOM     27  H   UNL     1      31.416 -14.940 -26.106  0.00  0.00    +0.210 HD
ENDBRANCH  25  26
ENDBRANCH   6  25
TORSDOF 6
ENDMDL
MODEL 6
REMARK VINA RESULT:     -10.0      2.454      7.034
REMARK  Name = 21066379
REMARK  6 active torsions:
REMARK  status: ('A' for Active; 'I' for Inactive)
REMARK    1  A    between atoms: C_4  and  N_16
REMARK    2  A    between atoms: C_6  and  C_25
REMARK    3  A    between atoms: C_7  and  C_10
REMARK    4  A    between atoms: N_16  and  C_18
REMARK    5  A    between atoms: C_18  and  C_20
REMARK    6  A    between atoms: C_25  and  O_26
REMARK                            x       y       z     vdW  Elec       q    Type
REMARK                         _______ _______ _______ _____ _____    ______ ____
ROOT
ATOM      1  N   UNL     1      32.337 -23.771 -15.893  0.00  0.00    -0.152 N 
ATOM      2  N   UNL     1      31.892 -22.302 -17.748  0.00  0.00    -0.389 NA
ATOM      3  N   UNL     1      31.664 -24.439 -14.912  0.00  0.00    -0.173 NA
ATOM      4  C   UNL     1      33.721 -23.752 -16.125  0.00  0.00    +0.126 C 
ATOM      5  C   UNL     1      31.454 -23.049 -16.698  0.00  0.00    +0.192 C 
ATOM      6  C   UNL     1      30.192 -23.276 -16.201  0.00  0.00    +0.141 C 
ATOM      7  C   UNL     1      33.173 -22.295 -17.975  0.00  0.00    +0.135 C 
ATOM      8  C   UNL     1      34.190 -23.026 -17.154  0.00  0.00    +0.064 C 
ATOM      9  C   UNL     1      30.384 -24.133 -15.111  0.00  0.00    +0.103 C 
ENDROOT
BRANCH   7  10
ATOM     10  C   UNL     1      33.695 -21.496 -19.115  0.00  0.00    +0.030 C 
ATOM     11  C   UNL     1      32.822 -20.720 -19.879  0.00  0.00    +0.003 C 
ATOM     12  C   UNL     1      35.055 -21.523 -19.422  0.00  0.00    +0.003 C 
ATOM     13  C   UNL     1      33.312 -19.970 -20.949  0.00  0.00    +0.000 C 
ATOM     14  C   UNL     1      35.544 -20.773 -20.492  0.00  0.00    +0.000 C 
ATOM     15  C   UNL     1      34.671 -19.997 -21.255  0.00  0.00    +0.000 C 
ENDBRANCH   7  10
BRANCH   4  16
ATOM     16  N   UNL     1      34.513 -24.474 -15.279  0.00  0.00    -0.316 N 
ATOM     17  H   UNL     1      34.149 -25.303 -14.892  0.00  0.00    +0.148 HD
BRANCH  16  18
ATOM     18  C   UNL     1      35.852 -24.086 -14.924  0.00  0.00    +0.117 C 
BRANCH  18  20
ATOM     19  N   UNL     1      35.231 -24.676 -11.239  0.00  0.00    -0.243 NA
ATOM     20  C   UNL     1      35.997 -24.000 -13.429  0.00  0.00    +0.017 C 
ATOM     21  C   UNL     1      36.981 -23.207 -12.850  0.00  0.00    +0.001 C 
ATOM     22  C   UNL     1      35.155 -24.709 -12.588  0.00  0.00    +0.096 C 
ATOM     23  C   UNL     1      37.090 -23.147 -11.464  0.00  0.00    +0.020 C 
ATOM     24  C   UNL     1      36.199 -23.893 -10.711  0.00  0.00    +0.099 C 
ENDBRANCH  18  20
ENDBRANCH  16  18
ENDBRANCH   4  16
BRANCH   6  25
ATOM     25  C   UNL     1      28.916 -22.739 -16.705  0.00  0.00    +0.152 C 
BRANCH  25  26
ATOM     26  O   UNL     1      28.238 -21.935 -15.735  0.00  0.00    -0.381 OA
ATOM     27  H   UNL     1      27.286 -22.116 -15.774  0.00  0.00    +0.210 HD
ENDBRANCH  25  26
ENDBRANCH   6  25
TORSDOF 6
ENDMDL
MODEL 7
REMARK VINA RESULT:      -9.9      6.769     11.580
REMARK  Name = 21066379
REMARK  6 active torsions:
REMARK  status: ('A' for Active; 'I' for Inactive)
REMARK    1  A    between atoms: C_4  and  N_16
REMARK    2  A    between atoms: C_6  and  C_25
REMARK    3  A    between atoms: C_7  and  C_10
REMARK    4  A    between atoms: N_16  and  C_18
REMARK    5  A    between atoms: C_18  and  C_20
REMARK    6  A    between atoms: C_25  and  O_26
REMARK                            x       y       z     vdW  Elec       q    Type
REMARK                         _______ _______ _______ _____ _____    ______ ____
ROOT
ATOM      1  N   UNL     1      33.773 -15.622 -23.753  0.00  0.00    -0.152 N 
ATOM      2  N   UNL     1      32.680 -13.478 -23.723  0.00  0.00    -0.389 NA
ATOM      3  N   UNL     1      34.197 -16.560 -24.648  0.00  0.00    -0.173 NA
ATOM      4  C   UNL     1      33.875 -15.663 -22.353  0.00  0.00    +0.126 C 
ATOM      5  C   UNL     1      33.179 -14.542 -24.407  0.00  0.00    +0.192 C 
ATOM      6  C   UNL     1      33.235 -14.819 -25.754  0.00  0.00    +0.141 C 
ATOM      7  C   UNL     1      32.786 -13.506 -22.426  0.00  0.00    +0.135 C 
ATOM      8  C   UNL     1      33.394 -14.628 -21.644  0.00  0.00    +0.064 C 
ATOM      9  C   UNL     1      33.867 -16.065 -25.839  0.00  0.00    +0.103 C 
ENDROOT
BRANCH   7  10
ATOM     10  C   UNL     1      32.258 -12.361 -21.639  0.00  0.00    +0.030 C 
ATOM     11  C   UNL     1      31.998 -12.513 -20.277  0.00  0.00    +0.003 C 
ATOM     12  C   UNL     1      32.023 -11.136 -22.261  0.00  0.00    +0.003 C 
ATOM     13  C   UNL     1      31.502 -11.438 -19.538  0.00  0.00    +0.000 C 
ATOM     14  C   UNL     1      31.527 -10.061 -21.522  0.00  0.00    +0.000 C 
ATOM     15  C   UNL     1      31.268 -10.213 -20.160  0.00  0.00    +0.000 C 
ENDBRANCH   7  10
BRANCH   4  16
ATOM     16  N   UNL     1      34.457 -16.765 -21.795  0.00  0.00    -0.316 N 
ATOM     17  H   UNL     1      35.416 -16.726 -21.576  0.00  0.00    +0.148 HD
BRANCH  16  18
ATOM     18  C   UNL     1      33.740 -17.980 -21.509  0.00  0.00    +0.117 C 
BRANCH  18  20
ATOM     19  N   UNL     1      36.914 -19.676 -20.340  0.00  0.00    -0.243 NA
ATOM     20  C   UNL     1      34.663 -19.009 -20.918  0.00  0.00    +0.017 C 
ATOM     21  C   UNL     1      34.171 -20.208 -20.416  0.00  0.00    +0.001 C 
ATOM     22  C   UNL     1      36.031 -18.793 -20.858  0.00  0.00    +0.096 C 
ATOM     23  C   UNL     1      35.049 -21.142 -19.876  0.00  0.00    +0.020 C 
ATOM     24  C   UNL     1      36.399 -20.831 -19.862  0.00  0.00    +0.099 C 
ENDBRANCH  18  20
ENDBRANCH  16  18
ENDBRANCH   4  16
BRANCH   6  25
ATOM     25  C   UNL     1      32.740 -13.987 -26.865  0.00  0.00    +0.152 C 
BRANCH  25  26
ATOM     26  O   UNL     1      33.796 -13.507 -27.704  0.00  0.00    -0.381 OA
ATOM     27  H   UNL     1      34.652 -13.760 -27.323  0.00  0.00    +0.210 HD
ENDBRANCH  25  26
ENDBRANCH   6  25
TORSDOF 6
ENDMDL
MODEL 8
REMARK VINA RESULT:      -9.5      2.500      5.702
REMARK  Name = 21066379
REMARK  6 active torsions:
REMARK  status: ('A' for Active; 'I' for Inactive)
REMARK    1  A    between atoms: C_4  and  N_16
REMARK    2  A    between atoms: C_6  and  C_25
REMARK    3  A    between atoms: C_7  and  C_10
REMARK    4  A    between atoms: N_16  and  C_18
REMARK    5  A    between atoms: C_18  and  C_20
REMARK    6  A    between atoms: C_25  and  O_26
REMARK                            x       y       z     vdW  Elec       q    Type
REMARK                         _______ _______ _______ _____ _____    ______ ____
ROOT
ATOM      1  N   UNL     1      35.092 -22.808 -15.947  0.00  0.00    -0.152 N 
ATOM      2  N   UNL     1      32.949 -23.062 -17.013  0.00  0.00    -0.389 NA
ATOM      3  N   UNL     1      36.369 -22.440 -16.255  0.00  0.00    -0.173 NA
ATOM      4  C   UNL     1      34.594 -23.216 -14.700  0.00  0.00    +0.126 C 
ATOM      5  C   UNL     1      34.270 -22.743 -17.073  0.00  0.00    +0.192 C 
ATOM      6  C   UNL     1      35.063 -22.320 -18.114  0.00  0.00    +0.141 C 
ATOM      7  C   UNL     1      32.481 -23.427 -15.855  0.00  0.00    +0.135 C 
ATOM      8  C   UNL     1      33.293 -23.539 -14.602  0.00  0.00    +0.064 C 
ATOM      9  C   UNL     1      36.334 -22.151 -17.554  0.00  0.00    +0.103 C 
ENDROOT
BRANCH   7  10
ATOM     10  C   UNL     1      31.041 -23.780 -15.743  0.00  0.00    +0.030 C 
ATOM     11  C   UNL     1      30.642 -24.821 -14.904  0.00  0.00    +0.003 C 
ATOM     12  C   UNL     1      30.090 -23.072 -16.477  0.00  0.00    +0.003 C 
ATOM     13  C   UNL     1      29.291 -25.153 -14.799  0.00  0.00    +0.000 C 
ATOM     14  C   UNL     1      28.739 -23.404 -16.372  0.00  0.00    +0.000 C 
ATOM     15  C   UNL     1      28.340 -24.444 -15.532  0.00  0.00    +0.000 C 
ENDBRANCH   7  10
BRANCH   4  16
ATOM     16  N   UNL     1      35.471 -23.267 -13.654  0.00  0.00    -0.316 N 
ATOM     17  H   UNL     1      35.883 -22.426 -13.350  0.00  0.00    +0.148 HD
BRANCH  16  18
ATOM     18  C   UNL     1      35.825 -24.485 -12.976  0.00  0.00    +0.117 C 
BRANCH  18  20
ATOM     19  N   UNL     1      38.187 -26.507 -15.132  0.00  0.00    -0.243 NA
ATOM     20  C   UNL     1      37.100 -25.050 -13.538  0.00  0.00    +0.017 C 
ATOM     21  C   UNL     1      38.337 -24.674 -13.027  0.00  0.00    +0.001 C 
ATOM     22  C   UNL     1      37.079 -25.962 -14.582  0.00  0.00    +0.096 C 
ATOM     23  C   UNL     1      39.499 -25.214 -13.567  0.00  0.00    +0.020 C 
ATOM     24  C   UNL     1      39.371 -26.119 -14.609  0.00  0.00    +0.099 C 
ENDBRANCH  18  20
ENDBRANCH  16  18
ENDBRANCH   4  16
BRANCH   6  25
ATOM     25  C   UNL     1      34.663 -22.092 -19.514  0.00  0.00    +0.152 C 
BRANCH  25  26
ATOM     26  O   UNL     1      33.245 -22.170 -19.699  0.00  0.00    -0.381 OA
ATOM     27  H   UNL     1      32.847 -22.644 -18.953  0.00  0.00    +0.210 HD
ENDBRANCH  25  26
ENDBRANCH   6  25
TORSDOF 6
ENDMDL
MODEL 9
REMARK VINA RESULT:      -9.4      7.246     11.133
REMARK  Name = 21066379
REMARK  6 active torsions:
REMARK  status: ('A' for Active; 'I' for Inactive)
REMARK    1  A    between atoms: C_4  and  N_16
REMARK    2  A    between atoms: C_6  and  C_25
REMARK    3  A    between atoms: C_7  and  C_10
REMARK    4  A    between atoms: N_16  and  C_18
REMARK    5  A    between atoms: C_18  and  C_20
REMARK    6  A    between atoms: C_25  and  O_26
REMARK                            x       y       z     vdW  Elec       q    Type
REMARK                         _______ _______ _______ _____ _____    ______ ____
ROOT
ATOM      1  N   UNL     1      33.180 -14.335 -22.712  0.00  0.00    -0.152 N 
ATOM      2  N   UNL     1      34.006 -16.556 -23.137  0.00  0.00    -0.389 NA
ATOM      3  N   UNL     1      32.787 -13.223 -23.398  0.00  0.00    -0.173 NA
ATOM      4  C   UNL     1      33.221 -14.515 -21.321  0.00  0.00    +0.126 C 
ATOM      5  C   UNL     1      33.574 -15.347 -23.588  0.00  0.00    +0.192 C 
ATOM      6  C   UNL     1      33.421 -14.847 -24.861  0.00  0.00    +0.141 C 
ATOM      7  C   UNL     1      34.030 -16.731 -21.848  0.00  0.00    +0.135 C 
ATOM      8  C   UNL     1      33.641 -15.697 -20.838  0.00  0.00    +0.064 C 
ATOM      9  C   UNL     1      32.937 -13.546 -24.681  0.00  0.00    +0.103 C 
ENDROOT
BRANCH   7  10
ATOM     10  C   UNL     1      34.491 -18.039 -21.311  0.00  0.00    +0.030 C 
ATOM     11  C   UNL     1      35.855 -18.296 -21.180  0.00  0.00    +0.003 C 
ATOM     12  C   UNL     1      33.559 -19.007 -20.940  0.00  0.00    +0.003 C 
ATOM     13  C   UNL     1      36.288 -19.524 -20.676  0.00  0.00    +0.000 C 
ATOM     14  C   UNL     1      33.991 -20.234 -20.436  0.00  0.00    +0.000 C 
ATOM     15  C   UNL     1      35.356 -20.492 -20.304  0.00  0.00    +0.000 C 
ENDBRANCH   7  10
BRANCH   4  16
ATOM     16  N   UNL     1      32.832 -13.466 -20.536  0.00  0.00    -0.316 N 
ATOM     17  H   UNL     1      33.447 -13.157 -19.833  0.00  0.00    +0.148 HD
BRANCH  16  18
ATOM     18  C   UNL     1      31.571 -12.790 -20.687  0.00  0.00    +0.117 C 
BRANCH  18  20
ATOM     19  N   UNL     1      32.048  -9.402 -19.072  0.00  0.00    -0.243 NA
ATOM     20  C   UNL     1      31.747 -11.305 -20.532  0.00  0.00    +0.017 C 
ATOM     21  C   UNL     1      31.776 -10.468 -21.642  0.00  0.00    +0.001 C 
ATOM     22  C   UNL     1      31.886 -10.728 -19.280  0.00  0.00    +0.096 C 
ATOM     23  C   UNL     1      31.940  -9.098 -21.468  0.00  0.00    +0.020 C 
ATOM     24  C   UNL     1      32.070  -8.620 -20.174  0.00  0.00    +0.099 C 
ENDBRANCH  18  20
ENDBRANCH  16  18
ENDBRANCH   4  16
BRANCH   6  25
ATOM     25  C   UNL     1      33.701 -15.531 -26.135  0.00  0.00    +0.152 C 
BRANCH  25  26
ATOM     26  O   UNL     1      34.575 -16.654 -25.975  0.00  0.00    -0.381 OA
ATOM     27  H   UNL     1      34.551 -16.953 -25.053  0.00  0.00    +0.210 HD
ENDBRANCH  25  26
ENDBRANCH   6  25
TORSDOF 6
ENDMDL
