MODEL 1
REMARK VINA RESULT:      -9.2      0.000      0.000
REMARK  Name = 445328
REMARK  8 active torsions:
REMARK  status: ('A' for Active; 'I' for Inactive)
REMARK    1  A    between atoms: C_2  and  O_7
REMARK    2  A    between atoms: C_3  and  O_9
REMARK    3  A    between atoms: C_4  and  O_11
REMARK    4  A    between atoms: C_5  and  C_23
REMARK    5  A    between atoms: C_6  and  O_13
REMARK    6  A    between atoms: O_13  and  C_14
REMARK    7  A    between atoms: C_17  and  N_22
REMARK    8  A    between atoms: C_23  and  O_24
REMARK                            x       y       z     vdW  Elec       q    Type
REMARK                         _______ _______ _______ _____ _____    ______ ____
ROOT
ATOM      1  O   UNL     1      36.539 -25.264 -14.584  0.00  0.00    -0.316 OA
ATOM      2  C   UNL     1      35.935 -24.404 -11.905  0.00  0.00    +0.173 C 
ATOM      3  C   UNL     1      37.163 -25.260 -12.221  0.00  0.00    +0.169 C 
ATOM      4  C   UNL     1      34.846 -24.635 -12.953  0.00  0.00    +0.210 C 
ATOM      5  C   UNL     1      37.617 -25.024 -13.668  0.00  0.00    +0.177 C 
ATOM      6  C   UNL     1      35.402 -24.424 -14.363  0.00  0.00    +0.318 C 
ENDROOT
BRANCH   2   7
ATOM      7  O   UNL     1      35.425 -24.739 -10.617  0.00  0.00    -0.379 OA
ATOM      8  H   UNL     1      34.570 -25.185 -10.713  0.00  0.00    +0.211 HD
ENDBRANCH   2   7
BRANCH   3   9
ATOM      9  O   UNL     1      36.838 -26.643 -12.058  0.00  0.00    -0.379 OA
ATOM     10  H   UNL     1      36.424 -26.975 -12.870  0.00  0.00    +0.211 HD
ENDBRANCH   3   9
BRANCH   4  11
ATOM     11  O   UNL     1      33.756 -23.744 -12.739  0.00  0.00    -0.377 OA
ATOM     12  H   UNL     1      33.577 -23.677 -11.788  0.00  0.00    +0.211 HD
ENDBRANCH   4  11
BRANCH   6  13
ATOM     13  O   UNL     1      35.712 -23.046 -14.569  0.00  0.00    -0.451 OA
BRANCH  13  14
ATOM     14  C   UNL     1      35.794 -22.624 -15.868  0.00  0.00    +0.143 C 
ATOM     15  C   UNL     1      34.780 -22.943 -16.765  0.00  0.00    +0.061 C 
ATOM     16  C   UNL     1      36.894 -21.880 -16.282  0.00  0.00    +0.037 C 
ATOM     17  C   UNL     1      34.865 -22.514 -18.089  0.00  0.00    +0.146 C 
ATOM     18  C   UNL     1      36.980 -21.450 -17.607  0.00  0.00    +0.005 C 
ATOM     19  C   UNL     1      35.966 -21.768 -18.510  0.00  0.00    +0.024 C 
BRANCH  17  22
ATOM     20  O   UNL     1      33.899 -23.919 -19.642  0.00  0.00    -0.126 OA
ATOM     21  O   UNL     1      32.880 -22.035 -19.160  0.00  0.00    -0.126 OA
ATOM     22  N   UNL     1      33.832 -22.838 -19.008  0.00  0.00    +0.058 N 
ENDBRANCH  17  22
ENDBRANCH  13  14
ENDBRANCH   6  13
BRANCH   5  23
ATOM     23  C   UNL     1      38.766 -25.942 -14.073  0.00  0.00    +0.169 C 
BRANCH  23  24
ATOM     24  O   UNL     1      38.224 -27.112 -14.659  0.00  0.00    -0.379 OA
ATOM     25  H   UNL     1      38.865 -27.486 -15.285  0.00  0.00    +0.211 HD
ENDBRANCH  23  24
ENDBRANCH   5  23
TORSDOF 8
ENDMDL
MODEL 2
REMARK VINA RESULT:      -9.0      1.392      2.045
REMARK  Name = 445328
REMARK  8 active torsions:
REMARK  status: ('A' for Active; 'I' for Inactive)
REMARK    1  A    between atoms: C_2  and  O_7
REMARK    2  A    between atoms: C_3  and  O_9
REMARK    3  A    between atoms: C_4  and  O_11
REMARK    4  A    between atoms: C_5  and  C_23
REMARK    5  A    between atoms: C_6  and  O_13
REMARK    6  A    between atoms: O_13  and  C_14
REMARK    7  A    between atoms: C_17  and  N_22
REMARK    8  A    between atoms: C_23  and  O_24
REMARK                            x       y       z     vdW  Elec       q    Type
REMARK                         _______ _______ _______ _____ _____    ______ ____
ROOT
ATOM      1  O   UNL     1      36.496 -25.414 -14.292  0.00  0.00    -0.316 OA
ATOM      2  C   UNL     1      36.810 -23.768 -11.952  0.00  0.00    +0.173 C 
ATOM      3  C   UNL     1      37.971 -24.579 -12.530  0.00  0.00    +0.169 C 
ATOM      4  C   UNL     1      35.476 -24.418 -12.320  0.00  0.00    +0.210 C 
ATOM      5  C   UNL     1      37.768 -24.800 -14.035  0.00  0.00    +0.177 C 
ATOM      6  C   UNL     1      35.383 -24.642 -13.831  0.00  0.00    +0.318 C 
ENDROOT
BRANCH   2   7
ATOM      7  O   UNL     1      36.923 -23.697 -10.533  0.00  0.00    -0.379 OA
ATOM      8  H   UNL     1      36.045 -23.792 -10.134  0.00  0.00    +0.211 HD
ENDBRANCH   2   7
BRANCH   3   9
ATOM      9  O   UNL     1      38.036 -25.851 -11.882  0.00  0.00    -0.379 OA
ATOM     10  H   UNL     1      37.147 -26.235 -11.833  0.00  0.00    +0.211 HD
ENDBRANCH   3   9
BRANCH   4  11
ATOM     11  O   UNL     1      34.392 -23.596 -11.899  0.00  0.00    -0.377 OA
ATOM     12  H   UNL     1      33.956 -24.004 -11.135  0.00  0.00    +0.211 HD
ENDBRANCH   4  11
BRANCH   6  13
ATOM     13  O   UNL     1      35.289 -23.389 -14.509  0.00  0.00    -0.451 OA
BRANCH  13  14
ATOM     14  C   UNL     1      34.266 -23.255 -15.408  0.00  0.00    +0.143 C 
ATOM     15  C   UNL     1      34.551 -22.992 -16.744  0.00  0.00    +0.061 C 
ATOM     16  C   UNL     1      32.950 -23.380 -14.978  0.00  0.00    +0.037 C 
ATOM     17  C   UNL     1      33.508 -22.853 -17.660  0.00  0.00    +0.146 C 
ATOM     18  C   UNL     1      31.906 -23.242 -15.894  0.00  0.00    +0.005 C 
ATOM     19  C   UNL     1      32.186 -22.978 -17.234  0.00  0.00    +0.024 C 
BRANCH  17  22
ATOM     20  O   UNL     1      34.948 -22.810 -19.461  0.00  0.00    -0.126 OA
ATOM     21  O   UNL     1      32.881 -22.131 -19.758  0.00  0.00    -0.126 OA
ATOM     22  N   UNL     1      33.793 -22.585 -19.026  0.00  0.00    +0.058 N 
ENDBRANCH  17  22
ENDBRANCH  13  14
ENDBRANCH   6  13
BRANCH   5  23
ATOM     23  C   UNL     1      38.837 -25.705 -14.639  0.00  0.00    +0.169 C 
BRANCH  23  24
ATOM     24  O   UNL     1      38.369 -27.041 -14.604  0.00  0.00    -0.379 OA
ATOM     25  H   UNL     1      38.702 -27.521 -15.379  0.00  0.00    +0.211 HD
ENDBRANCH  23  24
ENDBRANCH   5  23
TORSDOF 8
ENDMDL
MODEL 3
REMARK VINA RESULT:      -8.8      6.063     10.638
REMARK  Name = 445328
REMARK  8 active torsions:
REMARK  status: ('A' for Active; 'I' for Inactive)
REMARK    1  A    between atoms: C_2  and  O_7
REMARK    2  A    between atoms: C_3  and  O_9
REMARK    3  A    between atoms: C_4  and  O_11
REMARK    4  A    between atoms: C_5  and  C_23
REMARK    5  A    between atoms: C_6  and  O_13
REMARK    6  A    between atoms: O_13  and  C_14
REMARK    7  A    between atoms: C_17  and  N_22
REMARK    8  A    between atoms: C_23  and  O_24
REMARK                            x       y       z     vdW  Elec       q    Type
REMARK                         _______ _______ _______ _____ _____    ______ ____
ROOT
ATOM      1  O   UNL     1      35.086 -16.664 -23.434  0.00  0.00    -0.316 OA
ATOM      2  C   UNL     1      33.468 -15.096 -21.643  0.00  0.00    +0.173 C 
ATOM      3  C   UNL     1      33.436 -14.881 -23.157  0.00  0.00    +0.169 C 
ATOM      4  C   UNL     1      34.813 -15.688 -21.221  0.00  0.00    +0.210 C 
ATOM      5  C   UNL     1      33.812 -16.178 -23.886  0.00  0.00    +0.177 C 
ATOM      6  C   UNL     1      35.125 -16.948 -22.032  0.00  0.00    +0.318 C 
ENDROOT
BRANCH   2   7
ATOM      7  O   UNL     1      33.270 -13.855 -20.970  0.00  0.00    -0.379 OA
ATOM      8  H   UNL     1      33.511 -13.125 -21.560  0.00  0.00    +0.211 HD
ENDBRANCH   2   7
BRANCH   3   9
ATOM      9  O   UNL     1      34.371 -13.861 -23.516  0.00  0.00    -0.379 OA
ATOM     10  H   UNL     1      35.255 -14.108 -23.202  0.00  0.00    +0.211 HD
ENDBRANCH   3   9
BRANCH   4  11
ATOM     11  O   UNL     1      34.798 -16.012 -19.835  0.00  0.00    -0.377 OA
ATOM     12  H   UNL     1      34.875 -16.973 -19.727  0.00  0.00    +0.211 HD
ENDBRANCH   4  11
BRANCH   6  13
ATOM     13  O   UNL     1      34.226 -17.997 -21.677  0.00  0.00    -0.451 OA
BRANCH  13  14
ATOM     14  C   UNL     1      34.768 -19.080 -21.039  0.00  0.00    +0.143 C 
ATOM     15  C   UNL     1      33.935 -20.074 -20.535  0.00  0.00    +0.061 C 
ATOM     16  C   UNL     1      36.148 -19.176 -20.898  0.00  0.00    +0.037 C 
ATOM     17  C   UNL     1      34.488 -21.176 -19.884  0.00  0.00    +0.146 C 
ATOM     18  C   UNL     1      36.702 -20.279 -20.246  0.00  0.00    +0.005 C 
ATOM     19  C   UNL     1      35.872 -21.278 -19.739  0.00  0.00    +0.024 C 
BRANCH  17  22
ATOM     20  O   UNL     1      32.562 -21.867 -18.822  0.00  0.00    -0.126 OA
ATOM     21  O   UNL     1      33.999 -23.392 -19.474  0.00  0.00    -0.126 OA
ATOM     22  N   UNL     1      33.643 -22.194 -19.368  0.00  0.00    +0.058 N 
ENDBRANCH  17  22
ENDBRANCH  13  14
ENDBRANCH   6  13
BRANCH   5  23
ATOM     23  C   UNL     1      33.912 -15.988 -25.396  0.00  0.00    +0.169 C 
BRANCH  23  24
ATOM     24  O   UNL     1      34.985 -16.776 -25.880  0.00  0.00    -0.379 OA
ATOM     25  H   UNL     1      35.724 -16.198 -26.130  0.00  0.00    +0.211 HD
ENDBRANCH  23  24
ENDBRANCH   5  23
TORSDOF 8
ENDMDL
MODEL 4
REMARK VINA RESULT:      -8.7      1.983      3.362
REMARK  Name = 445328
REMARK  8 active torsions:
REMARK  status: ('A' for Active; 'I' for Inactive)
REMARK    1  A    between atoms: C_2  and  O_7
REMARK    2  A    between atoms: C_3  and  O_9
REMARK    3  A    between atoms: C_4  and  O_11
REMARK    4  A    between atoms: C_5  and  C_23
REMARK    5  A    between atoms: C_6  and  O_13
REMARK    6  A    between atoms: O_13  and  C_14
REMARK    7  A    between atoms: C_17  and  N_22
REMARK    8  A    between atoms: C_23  and  O_24
REMARK                            x       y       z     vdW  Elec       q    Type
REMARK                         _______ _______ _______ _____ _____    ______ ____
ROOT
ATOM      1  O   UNL     1      36.515 -23.160 -13.609  0.00  0.00    -0.316 OA
ATOM      2  C   UNL     1      37.113 -25.975 -13.559  0.00  0.00    +0.173 C 
ATOM      3  C   UNL     1      37.588 -25.029 -12.454  0.00  0.00    +0.169 C 
ATOM      4  C   UNL     1      36.914 -25.205 -14.865  0.00  0.00    +0.210 C 
ATOM      5  C   UNL     1      36.643 -23.825 -12.343  0.00  0.00    +0.177 C 
ATOM      6  C   UNL     1      35.999 -23.999 -14.647  0.00  0.00    +0.318 C 
ENDROOT
BRANCH   2   7
ATOM      7  O   UNL     1      38.073 -27.008 -13.764  0.00  0.00    -0.379 OA
ATOM      8  H   UNL     1      38.451 -27.271 -12.911  0.00  0.00    +0.211 HD
ENDBRANCH   2   7
BRANCH   3   9
ATOM      9  O   UNL     1      38.902 -24.558 -12.761  0.00  0.00    -0.379 OA
ATOM     10  H   UNL     1      38.880 -23.596 -12.887  0.00  0.00    +0.211 HD
ENDBRANCH   3   9
BRANCH   4  11
ATOM     11  O   UNL     1      36.346 -26.053 -15.858  0.00  0.00    -0.377 OA
ATOM     12  H   UNL     1      35.497 -26.398 -15.541  0.00  0.00    +0.211 HD
ENDBRANCH   4  11
BRANCH   6  13
ATOM     13  O   UNL     1      34.669 -24.434 -14.365  0.00  0.00    -0.451 OA
BRANCH  13  14
ATOM     14  C   UNL     1      33.676 -23.917 -15.152  0.00  0.00    +0.143 C 
ATOM     15  C   UNL     1      33.957 -23.539 -16.461  0.00  0.00    +0.061 C 
ATOM     16  C   UNL     1      32.393 -23.773 -14.635  0.00  0.00    +0.037 C 
ATOM     17  C   UNL     1      32.945 -23.010 -17.262  0.00  0.00    +0.146 C 
ATOM     18  C   UNL     1      31.379 -23.244 -15.436  0.00  0.00    +0.005 C 
ATOM     19  C   UNL     1      31.656 -22.863 -16.748  0.00  0.00    +0.024 C 
BRANCH  17  22
ATOM     20  O   UNL     1      33.916 -23.382 -19.319  0.00  0.00    -0.126 OA
ATOM     21  O   UNL     1      32.775 -21.531 -19.021  0.00  0.00    -0.126 OA
ATOM     22  N   UNL     1      33.226 -22.622 -18.598  0.00  0.00    +0.058 N 
ENDBRANCH  17  22
ENDBRANCH  13  14
ENDBRANCH   6  13
BRANCH   5  23
ATOM     23  C   UNL     1      37.137 -22.790 -11.337  0.00  0.00    +0.169 C 
BRANCH  23  24
ATOM     24  O   UNL     1      38.110 -21.976 -11.968  0.00  0.00    -0.379 OA
ATOM     25  H   UNL     1      38.669 -22.526 -12.540  0.00  0.00    +0.211 HD
ENDBRANCH  23  24
ENDBRANCH   5  23
TORSDOF 8
ENDMDL
MODEL 5
REMARK VINA RESULT:      -8.7      1.896      2.215
REMARK  Name = 445328
REMARK  8 active torsions:
REMARK  status: ('A' for Active; 'I' for Inactive)
REMARK    1  A    between atoms: C_2  and  O_7
REMARK    2  A    between atoms: C_3  and  O_9
REMARK    3  A    between atoms: C_4  and  O_11
REMARK    4  A    between atoms: C_5  and  C_23
REMARK    5  A    between atoms: C_6  and  O_13
REMARK    6  A    between atoms: O_13  and  C_14
REMARK    7  A    between atoms: C_17  and  N_22
REMARK    8  A    between atoms: C_23  and  O_24
REMARK                            x       y       z     vdW  Elec       q    Type
REMARK                         _______ _______ _______ _____ _____    ______ ____
ROOT
ATOM      1  O   UNL     1      36.525 -25.378 -14.304  0.00  0.00    -0.316 OA
ATOM      2  C   UNL     1      36.711 -23.846 -11.876  0.00  0.00    +0.173 C 
ATOM      3  C   UNL     1      37.888 -24.670 -12.403  0.00  0.00    +0.169 C 
ATOM      4  C   UNL     1      35.390 -24.434 -12.370  0.00  0.00    +0.210 C 
ATOM      5  C   UNL     1      37.792 -24.818 -13.927  0.00  0.00    +0.177 C 
ATOM      6  C   UNL     1      35.405 -24.589 -13.892  0.00  0.00    +0.318 C 
ENDROOT
BRANCH   2   7
ATOM      7  O   UNL     1      36.719 -23.840 -10.450  0.00  0.00    -0.379 OA
ATOM      8  H   UNL     1      37.199 -24.618 -10.127  0.00  0.00    +0.211 HD
ENDBRANCH   2   7
BRANCH   3   9
ATOM      9  O   UNL     1      37.865 -25.970 -11.810  0.00  0.00    -0.379 OA
ATOM     10  H   UNL     1      37.212 -25.987 -11.093  0.00  0.00    +0.211 HD
ENDBRANCH   3   9
BRANCH   4  11
ATOM     11  O   UNL     1      34.303 -23.595 -11.993  0.00  0.00    -0.377 OA
ATOM     12  H   UNL     1      34.101 -23.732 -11.054  0.00  0.00    +0.211 HD
ENDBRANCH   4  11
BRANCH   6  13
ATOM     13  O   UNL     1      35.400 -23.306 -14.518  0.00  0.00    -0.451 OA
BRANCH  13  14
ATOM     14  C   UNL     1      34.570 -23.153 -15.595  0.00  0.00    +0.143 C 
ATOM     15  C   UNL     1      33.200 -23.342 -15.445  0.00  0.00    +0.061 C 
ATOM     16  C   UNL     1      35.104 -22.811 -16.833  0.00  0.00    +0.037 C 
ATOM     17  C   UNL     1      32.354 -23.187 -16.543  0.00  0.00    +0.146 C 
ATOM     18  C   UNL     1      34.258 -22.656 -17.933  0.00  0.00    +0.005 C 
ATOM     19  C   UNL     1      32.884 -22.845 -17.787  0.00  0.00    +0.024 C 
BRANCH  17  22
ATOM     20  O   UNL     1      30.543 -24.363 -15.734  0.00  0.00    -0.126 OA
ATOM     21  O   UNL     1      30.170 -22.558 -16.927  0.00  0.00    -0.126 OA
ATOM     22  N   UNL     1      30.955 -23.378 -16.395  0.00  0.00    +0.058 N 
ENDBRANCH  17  22
ENDBRANCH  13  14
ENDBRANCH   6  13
BRANCH   5  23
ATOM     23  C   UNL     1      38.875 -25.732 -14.491  0.00  0.00    +0.169 C 
BRANCH  23  24
ATOM     24  O   UNL     1      38.358 -27.048 -14.572  0.00  0.00    -0.379 OA
ATOM     25  H   UNL     1      38.635 -27.553 -13.790  0.00  0.00    +0.211 HD
ENDBRANCH  23  24
ENDBRANCH   5  23
TORSDOF 8
ENDMDL
MODEL 6
REMARK VINA RESULT:      -8.6      1.878      3.477
REMARK  Name = 445328
REMARK  8 active torsions:
REMARK  status: ('A' for Active; 'I' for Inactive)
REMARK    1  A    between atoms: C_2  and  O_7
REMARK    2  A    between atoms: C_3  and  O_9
REMARK    3  A    between atoms: C_4  and  O_11
REMARK    4  A    between atoms: C_5  and  C_23
REMARK    5  A    between atoms: C_6  and  O_13
REMARK    6  A    between atoms: O_13  and  C_14
REMARK    7  A    between atoms: C_17  and  N_22
REMARK    8  A    between atoms: C_23  and  O_24
REMARK                            x       y       z     vdW  Elec       q    Type
REMARK                         _______ _______ _______ _____ _____    ______ ____
ROOT
ATOM      1  O   UNL     1      36.026 -23.069 -12.672  0.00  0.00    -0.316 OA
ATOM      2  C   UNL     1      38.179 -24.742 -13.594  0.00  0.00    +0.173 C 
ATOM      3  C   UNL     1      37.890 -24.546 -12.104  0.00  0.00    +0.169 C 
ATOM      4  C   UNL     1      37.683 -23.536 -14.392  0.00  0.00    +0.210 C 
ATOM      5  C   UNL     1      36.407 -24.212 -11.891  0.00  0.00    +0.177 C 
ATOM      6  C   UNL     1      36.213 -23.250 -14.079  0.00  0.00    +0.318 C 
ENDROOT
BRANCH   2   7
ATOM      7  O   UNL     1      39.581 -24.899 -13.802  0.00  0.00    -0.379 OA
ATOM      8  H   UNL     1      40.046 -24.798 -12.958  0.00  0.00    +0.211 HD
ENDBRANCH   2   7
BRANCH   3   9
ATOM      9  O   UNL     1      38.683 -23.470 -11.600  0.00  0.00    -0.379 OA
ATOM     10  H   UNL     1      38.823 -23.589 -10.648  0.00  0.00    +0.211 HD
ENDBRANCH   3   9
BRANCH   4  11
ATOM     11  O   UNL     1      37.830 -23.773 -15.788  0.00  0.00    -0.377 OA
ATOM     12  H   UNL     1      38.616 -23.306 -16.114  0.00  0.00    +0.211 HD
ENDBRANCH   4  11
BRANCH   6  13
ATOM     13  O   UNL     1      35.388 -24.295 -14.595  0.00  0.00    -0.451 OA
BRANCH  13  14
ATOM     14  C   UNL     1      34.261 -23.909 -15.269  0.00  0.00    +0.143 C 
ATOM     15  C   UNL     1      34.349 -23.535 -16.606  0.00  0.00    +0.061 C 
ATOM     16  C   UNL     1      33.036 -23.893 -14.610  0.00  0.00    +0.037 C 
ATOM     17  C   UNL     1      33.201 -23.141 -17.292  0.00  0.00    +0.146 C 
ATOM     18  C   UNL     1      31.886 -23.499 -15.296  0.00  0.00    +0.005 C 
ATOM     19  C   UNL     1      31.970 -23.122 -16.636  0.00  0.00    +0.024 C 
BRANCH  17  22
ATOM     20  O   UNL     1      34.010 -23.427 -19.432  0.00  0.00    -0.126 OA
ATOM     21  O   UNL     1      32.630 -21.763 -19.050  0.00  0.00    -0.126 OA
ATOM     22  N   UNL     1      33.285 -22.758 -18.657  0.00  0.00    +0.058 N 
ENDBRANCH  17  22
ENDBRANCH  13  14
ENDBRANCH   6  13
BRANCH   5  23
ATOM     23  C   UNL     1      36.089 -23.889 -10.434  0.00  0.00    +0.169 C 
BRANCH  23  24
ATOM     24  O   UNL     1      35.294 -24.935  -9.904  0.00  0.00    -0.379 OA
ATOM     25  H   UNL     1      34.919 -24.656  -9.053  0.00  0.00    +0.211 HD
ENDBRANCH  23  24
ENDBRANCH   5  23
TORSDOF 8
ENDMDL
MODEL 7
REMARK VINA RESULT:      -8.6      1.394      1.934
REMARK  Name = 445328
REMARK  8 active torsions:
REMARK  status: ('A' for Active; 'I' for Inactive)
REMARK    1  A    between atoms: C_2  and  O_7
REMARK    2  A    between atoms: C_3  and  O_9
REMARK    3  A    between atoms: C_4  and  O_11
REMARK    4  A    between atoms: C_5  and  C_23
REMARK    5  A    between atoms: C_6  and  O_13
REMARK    6  A    between atoms: O_13  and  C_14
REMARK    7  A    between atoms: C_17  and  N_22
REMARK    8  A    between atoms: C_23  and  O_24
REMARK                            x       y       z     vdW  Elec       q    Type
REMARK                         _______ _______ _______ _____ _____    ______ ____
ROOT
ATOM      1  O   UNL     1      36.699 -25.303 -14.444  0.00  0.00    -0.316 OA
ATOM      2  C   UNL     1      36.710 -23.888 -11.937  0.00  0.00    +0.173 C 
ATOM      3  C   UNL     1      37.921 -24.691 -12.417  0.00  0.00    +0.169 C 
ATOM      4  C   UNL     1      35.427 -24.448 -12.554  0.00  0.00    +0.210 C 
ATOM      5  C   UNL     1      37.936 -24.766 -13.949  0.00  0.00    +0.177 C 
ATOM      6  C   UNL     1      35.552 -24.530 -14.077  0.00  0.00    +0.318 C 
ENDROOT
BRANCH   2   7
ATOM      7  O   UNL     1      36.614 -23.951 -10.517  0.00  0.00    -0.379 OA
ATOM      8  H   UNL     1      37.260 -23.346 -10.122  0.00  0.00    +0.211 HD
ENDBRANCH   2   7
BRANCH   3   9
ATOM      9  O   UNL     1      37.855 -26.018 -11.889  0.00  0.00    -0.379 OA
ATOM     10  H   UNL     1      38.748 -26.324 -11.668  0.00  0.00    +0.211 HD
ENDBRANCH   3   9
BRANCH   4  11
ATOM     11  O   UNL     1      34.316 -23.624 -12.217  0.00  0.00    -0.377 OA
ATOM     12  H   UNL     1      33.835 -23.384 -13.024  0.00  0.00    +0.211 HD
ENDBRANCH   4  11
BRANCH   6  13
ATOM     13  O   UNL     1      35.593 -23.219 -14.639  0.00  0.00    -0.451 OA
BRANCH  13  14
ATOM     14  C   UNL     1      34.926 -23.037 -15.820  0.00  0.00    +0.143 C 
ATOM     15  C   UNL     1      35.570 -22.426 -16.891  0.00  0.00    +0.061 C 
ATOM     16  C   UNL     1      33.608 -23.465 -15.939  0.00  0.00    +0.037 C 
ATOM     17  C   UNL     1      34.890 -22.240 -18.094  0.00  0.00    +0.146 C 
ATOM     18  C   UNL     1      32.926 -23.279 -17.143  0.00  0.00    +0.005 C 
ATOM     19  C   UNL     1      33.567 -22.666 -18.219  0.00  0.00    +0.024 C 
BRANCH  17  22
ATOM     20  O   UNL     1      34.847 -21.049 -20.068  0.00  0.00    -0.126 OA
ATOM     21  O   UNL     1      36.795 -21.647 -19.249  0.00  0.00    -0.126 OA
ATOM     22  N   UNL     1      35.542 -21.616 -19.190  0.00  0.00    +0.058 N 
ENDBRANCH  17  22
ENDBRANCH  13  14
ENDBRANCH   6  13
BRANCH   5  23
ATOM     23  C   UNL     1      39.057 -25.656 -14.476  0.00  0.00    +0.169 C 
BRANCH  23  24
ATOM     24  O   UNL     1      38.568 -26.981 -14.585  0.00  0.00    -0.379 OA
ATOM     25  H   UNL     1      37.699 -27.041 -14.156  0.00  0.00    +0.211 HD
ENDBRANCH  23  24
ENDBRANCH   5  23
TORSDOF 8
ENDMDL
MODEL 8
REMARK VINA RESULT:      -8.4      3.249      4.802
REMARK  Name = 445328
REMARK  8 active torsions:
REMARK  status: ('A' for Active; 'I' for Inactive)
REMARK    1  A    between atoms: C_2  and  O_7
REMARK    2  A    between atoms: C_3  and  O_9
REMARK    3  A    between atoms: C_4  and  O_11
REMARK    4  A    between atoms: C_5  and  C_23
REMARK    5  A    between atoms: C_6  and  O_13
REMARK    6  A    between atoms: O_13  and  C_14
REMARK    7  A    between atoms: C_17  and  N_22
REMARK    8  A    between atoms: C_23  and  O_24
REMARK                            x       y       z     vdW  Elec       q    Type
REMARK                         _______ _______ _______ _____ _____    ______ ____
ROOT
ATOM      1  O   UNL     1      35.241 -23.720 -16.203  0.00  0.00    -0.316 OA
ATOM      2  C   UNL     1      36.779 -23.440 -13.787  0.00  0.00    +0.173 C 
ATOM      3  C   UNL     1      37.213 -22.786 -15.100  0.00  0.00    +0.169 C 
ATOM      4  C   UNL     1      35.917 -24.671 -14.068  0.00  0.00    +0.210 C 
ATOM      5  C   UNL     1      35.991 -22.514 -15.988  0.00  0.00    +0.177 C 
ATOM      6  C   UNL     1      34.754 -24.315 -14.997  0.00  0.00    +0.318 C 
ENDROOT
BRANCH   2   7
ATOM      7  O   UNL     1      37.924 -23.830 -13.034  0.00  0.00    -0.379 OA
ATOM      8  H   UNL     1      38.676 -23.268 -13.275  0.00  0.00    +0.211 HD
ENDBRANCH   2   7
BRANCH   3   9
ATOM      9  O   UNL     1      38.105 -23.659 -15.797  0.00  0.00    -0.379 OA
ATOM     10  H   UNL     1      38.221 -23.344 -16.707  0.00  0.00    +0.211 HD
ENDBRANCH   3   9
BRANCH   4  11
ATOM     11  O   UNL     1      35.402 -25.203 -12.852  0.00  0.00    -0.377 OA
ATOM     12  H   UNL     1      34.438 -25.282 -12.917  0.00  0.00    +0.211 HD
ENDBRANCH   4  11
BRANCH   6  13
ATOM     13  O   UNL     1      33.828 -23.464 -14.321  0.00  0.00    -0.451 OA
BRANCH  13  14
ATOM     14  C   UNL     1      32.506 -23.804 -14.412  0.00  0.00    +0.143 C 
ATOM     15  C   UNL     1      31.632 -22.995 -15.132  0.00  0.00    +0.061 C 
ATOM     16  C   UNL     1      32.045 -24.956 -13.783  0.00  0.00    +0.037 C 
ATOM     17  C   UNL     1      30.284 -23.340 -15.223  0.00  0.00    +0.146 C 
ATOM     18  C   UNL     1      30.696 -25.302 -13.874  0.00  0.00    +0.005 C 
ATOM     19  C   UNL     1      29.816 -24.494 -14.594  0.00  0.00    +0.024 C 
BRANCH  17  22
ATOM     20  O   UNL     1      29.567 -22.372 -17.189  0.00  0.00    -0.126 OA
ATOM     21  O   UNL     1      28.441 -21.961 -15.350  0.00  0.00    -0.126 OA
ATOM     22  N   UNL     1      29.388 -22.518 -15.956  0.00  0.00    +0.058 N 
ENDBRANCH  17  22
ENDBRANCH  13  14
ENDBRANCH   6  13
BRANCH   5  23
ATOM     23  C   UNL     1      36.379 -21.973 -17.360  0.00  0.00    +0.169 C 
BRANCH  23  24
ATOM     24  O   UNL     1      37.219 -20.847 -17.180  0.00  0.00    -0.379 OA
ATOM     25  H   UNL     1      36.691 -20.098 -16.858  0.00  0.00    +0.211 HD
ENDBRANCH  23  24
ENDBRANCH   5  23
TORSDOF 8
ENDMDL
MODEL 9
REMARK VINA RESULT:      -8.4      2.920      4.413
REMARK  Name = 445328
REMARK  8 active torsions:
REMARK  status: ('A' for Active; 'I' for Inactive)
REMARK    1  A    between atoms: C_2  and  O_7
REMARK    2  A    between atoms: C_3  and  O_9
REMARK    3  A    between atoms: C_4  and  O_11
REMARK    4  A    between atoms: C_5  and  C_23
REMARK    5  A    between atoms: C_6  and  O_13
REMARK    6  A    between atoms: O_13  and  C_14
REMARK    7  A    between atoms: C_17  and  N_22
REMARK    8  A    between atoms: C_23  and  O_24
REMARK                            x       y       z     vdW  Elec       q    Type
REMARK                         _______ _______ _______ _____ _____    ______ ____
ROOT
ATOM      1  O   UNL     1      35.953 -23.111 -12.731  0.00  0.00    -0.316 OA
ATOM      2  C   UNL     1      38.179 -24.706 -13.614  0.00  0.00    +0.173 C 
ATOM      3  C   UNL     1      37.877 -24.494 -12.129  0.00  0.00    +0.169 C 
ATOM      4  C   UNL     1      37.633 -23.539 -14.437  0.00  0.00    +0.210 C 
ATOM      5  C   UNL     1      36.381 -24.220 -11.926  0.00  0.00    +0.177 C 
ATOM      6  C   UNL     1      36.151 -23.311 -14.134  0.00  0.00    +0.318 C 
ENDROOT
BRANCH   2   7
ATOM      7  O   UNL     1      39.587 -24.806 -13.816  0.00  0.00    -0.379 OA
ATOM      8  H   UNL     1      39.776 -25.547 -14.411  0.00  0.00    +0.211 HD
ENDBRANCH   2   7
BRANCH   3   9
ATOM      9  O   UNL     1      38.621 -23.374 -11.645  0.00  0.00    -0.379 OA
ATOM     10  H   UNL     1      38.936 -23.558 -10.747  0.00  0.00    +0.211 HD
ENDBRANCH   3   9
BRANCH   4  11
ATOM     11  O   UNL     1      37.795 -23.797 -15.828  0.00  0.00    -0.377 OA
ATOM     12  H   UNL     1      38.701 -23.578 -16.094  0.00  0.00    +0.211 HD
ENDBRANCH   4  11
BRANCH   6  13
ATOM     13  O   UNL     1      35.374 -24.401 -14.630  0.00  0.00    -0.451 OA
BRANCH  13  14
ATOM     14  C   UNL     1      34.111 -24.104 -15.065  0.00  0.00    +0.143 C 
ATOM     15  C   UNL     1      33.014 -24.421 -14.270  0.00  0.00    +0.061 C 
ATOM     16  C   UNL     1      33.934 -23.490 -16.300  0.00  0.00    +0.037 C 
ATOM     17  C   UNL     1      31.727 -24.120 -14.714  0.00  0.00    +0.146 C 
ATOM     18  C   UNL     1      32.646 -23.188 -16.745  0.00  0.00    +0.005 C 
ATOM     19  C   UNL     1      31.543 -23.504 -15.953  0.00  0.00    +0.024 C 
BRANCH  17  22
ATOM     20  O   UNL     1      30.676 -24.265 -12.667  0.00  0.00    -0.126 OA
ATOM     21  O   UNL     1      29.570 -24.892 -14.457  0.00  0.00    -0.126 OA
ATOM     22  N   UNL     1      30.603 -24.442 -13.907  0.00  0.00    +0.058 N 
ENDBRANCH  17  22
ENDBRANCH  13  14
ENDBRANCH   6  13
BRANCH   5  23
ATOM     23  C   UNL     1      36.044 -23.883 -10.477  0.00  0.00    +0.169 C 
BRANCH  23  24
ATOM     24  O   UNL     1      35.275 -24.941  -9.934  0.00  0.00    -0.379 OA
ATOM     25  H   UNL     1      35.111 -24.771  -8.993  0.00  0.00    +0.211 HD
ENDBRANCH  23  24
ENDBRANCH   5  23
TORSDOF 8
ENDMDL
