MODEL 1
REMARK VINA RESULT:      -8.0      0.000      0.000
REMARK  Name = 3008897
REMARK  4 active torsions:
REMARK  status: ('A' for Active; 'I' for Inactive)
REMARK    1  A    between atoms: N_3  and  C_12
REMARK    2  A    between atoms: C_13  and  C_16
REMARK    3  A    between atoms: C_13  and  C_18
REMARK    4  A    between atoms: C_18  and  O_19
REMARK                            x       y       z     vdW  Elec       q    Type
REMARK                         _______ _______ _______ _____ _____    ______ ____
ROOT
ATOM      1  O   UNL     1      35.241 -22.675 -17.375  0.00  0.00    -0.252 OA
ATOM      2  O   UNL     1      30.927 -23.726 -16.175  0.00  0.00    -0.270 OA
ATOM      3  N   UNL     1      34.863 -23.575 -15.256  0.00  0.00    -0.215 N 
ATOM      4  N   UNL     1      33.094 -23.203 -16.763  0.00  0.00    -0.236 N 
ATOM      5  C   UNL     1      33.949 -24.061 -14.343  0.00  0.00    +0.072 C 
ATOM      6  C   UNL     1      34.470 -23.119 -16.521  0.00  0.00    +0.316 C 
ATOM      7  C   UNL     1      32.634 -24.140 -14.578  0.00  0.00    +0.047 C 
ATOM      8  C   UNL     1      32.122 -23.680 -15.896  0.00  0.00    +0.250 C 
ATOM      9  C   UNL     1      31.646 -24.667 -13.586  0.00  0.00    +0.037 C 
ATOM     10  H   UNL     1      32.783 -22.890 -17.643  0.00  0.00    +0.159 HD
ENDROOT
BRANCH   3  12
ATOM     11  O   UNL     1      36.970 -24.605 -15.539  0.00  0.00    -0.320 OA
ATOM     12  C   UNL     1      36.267 -23.547 -14.863  0.00  0.00    +0.224 C 
ATOM     13  C   UNL     1      37.518 -25.504 -14.547  0.00  0.00    +0.194 C 
ATOM     14  C   UNL     1      36.402 -23.820 -13.414  0.00  0.00    +0.023 C 
ATOM     15  C   UNL     1      37.118 -24.929 -13.230  0.00  0.00    +0.015 C 
BRANCH  13  16
ATOM     16  C   UNL     1      38.980 -25.532 -14.667  0.00  0.00    -0.045 C 
ATOM     17  C   UNL     1      40.177 -25.554 -14.766  0.00  0.00    -0.011 C 
ENDBRANCH  13  16
BRANCH  13  18
ATOM     18  C   UNL     1      36.924 -26.890 -14.774  0.00  0.00    +0.181 C 
BRANCH  18  19
ATOM     19  O   UNL     1      36.875 -27.137 -16.168  0.00  0.00    -0.378 OA
ATOM     20  H   UNL     1      36.811 -28.092 -16.325  0.00  0.00    +0.211 HD
ENDBRANCH  18  19
ENDBRANCH  13  18
ENDBRANCH   3  12
TORSDOF 4
ENDMDL
MODEL 2
REMARK VINA RESULT:      -7.8      1.761      2.458
REMARK  Name = 3008897
REMARK  4 active torsions:
REMARK  status: ('A' for Active; 'I' for Inactive)
REMARK    1  A    between atoms: N_3  and  C_12
REMARK    2  A    between atoms: C_13  and  C_16
REMARK    3  A    between atoms: C_13  and  C_18
REMARK    4  A    between atoms: C_18  and  O_19
REMARK                            x       y       z     vdW  Elec       q    Type
REMARK                         _______ _______ _______ _____ _____    ______ ____
ROOT
ATOM      1  O   UNL     1      34.279 -23.151 -18.424  0.00  0.00    -0.252 OA
ATOM      2  O   UNL     1      29.990 -22.369 -16.960  0.00  0.00    -0.270 OA
ATOM      3  N   UNL     1      33.762 -23.611 -16.196  0.00  0.00    -0.215 N 
ATOM      4  N   UNL     1      32.144 -22.764 -17.680  0.00  0.00    -0.236 N 
ATOM      5  C   UNL     1      32.807 -23.618 -15.199  0.00  0.00    +0.072 C 
ATOM      6  C   UNL     1      33.468 -23.179 -17.495  0.00  0.00    +0.316 C 
ATOM      7  C   UNL     1      31.542 -23.221 -15.379  0.00  0.00    +0.047 C 
ATOM      8  C   UNL     1      31.136 -22.745 -16.728  0.00  0.00    +0.250 C 
ATOM      9  C   UNL     1      30.510 -23.229 -14.297  0.00  0.00    +0.037 C 
ATOM     10  H   UNL     1      31.903 -22.454 -18.582  0.00  0.00    +0.159 HD
ENDROOT
BRANCH   3  12
ATOM     11  O   UNL     1      35.040 -24.875 -14.662  0.00  0.00    -0.320 OA
ATOM     12  C   UNL     1      35.103 -24.072 -15.855  0.00  0.00    +0.224 C 
ATOM     13  C   UNL     1      35.842 -24.244 -13.637  0.00  0.00    +0.194 C 
ATOM     14  C   UNL     1      35.977 -22.921 -15.533  0.00  0.00    +0.023 C 
ATOM     15  C   UNL     1      36.404 -23.019 -14.275  0.00  0.00    +0.015 C 
BRANCH  13  16
ATOM     16  C   UNL     1      36.924 -25.151 -13.236  0.00  0.00    -0.045 C 
ATOM     17  C   UNL     1      37.809 -25.894 -12.907  0.00  0.00    -0.011 C 
ENDBRANCH  13  16
BRANCH  13  18
ATOM     18  C   UNL     1      34.938 -23.915 -12.455  0.00  0.00    +0.181 C 
BRANCH  18  19
ATOM     19  O   UNL     1      34.819 -25.069 -11.642  0.00  0.00    -0.378 OA
ATOM     20  H   UNL     1      35.568 -25.661 -11.810  0.00  0.00    +0.211 HD
ENDBRANCH  18  19
ENDBRANCH  13  18
ENDBRANCH   3  12
TORSDOF 4
ENDMDL
MODEL 3
REMARK VINA RESULT:      -7.7      2.068      3.576
REMARK  Name = 3008897
REMARK  4 active torsions:
REMARK  status: ('A' for Active; 'I' for Inactive)
REMARK    1  A    between atoms: N_3  and  C_12
REMARK    2  A    between atoms: C_13  and  C_16
REMARK    3  A    between atoms: C_13  and  C_18
REMARK    4  A    between atoms: C_18  and  O_19
REMARK                            x       y       z     vdW  Elec       q    Type
REMARK                         _______ _______ _______ _____ _____    ______ ____
ROOT
ATOM      1  O   UNL     1      31.864 -23.628 -15.975  0.00  0.00    -0.252 OA
ATOM      2  O   UNL     1      32.962 -21.773 -20.038  0.00  0.00    -0.270 OA
ATOM      3  N   UNL     1      34.101 -23.118 -16.398  0.00  0.00    -0.215 N 
ATOM      4  N   UNL     1      32.426 -22.704 -17.998  0.00  0.00    -0.236 N 
ATOM      5  C   UNL     1      35.033 -22.612 -17.281  0.00  0.00    +0.072 C 
ATOM      6  C   UNL     1      32.740 -23.187 -16.723  0.00  0.00    +0.316 C 
ATOM      7  C   UNL     1      34.729 -22.151 -18.500  0.00  0.00    +0.047 C 
ATOM      8  C   UNL     1      33.307 -22.182 -18.933  0.00  0.00    +0.250 C 
ATOM      9  C   UNL     1      35.742 -21.604 -19.454  0.00  0.00    +0.037 C 
ATOM     10  H   UNL     1      31.477 -22.737 -18.259  0.00  0.00    +0.159 HD
ENDROOT
BRANCH   3  12
ATOM     11  O   UNL     1      35.720 -22.808 -14.706  0.00  0.00    -0.320 OA
ATOM     12  C   UNL     1      34.577 -23.587 -15.102  0.00  0.00    +0.224 C 
ATOM     13  C   UNL     1      36.857 -23.692 -14.567  0.00  0.00    +0.194 C 
ATOM     14  C   UNL     1      35.045 -24.988 -15.200  0.00  0.00    +0.023 C 
ATOM     15  C   UNL     1      36.339 -25.052 -14.891  0.00  0.00    +0.015 C 
BRANCH  13  16
ATOM     16  C   UNL     1      37.344 -23.648 -13.184  0.00  0.00    -0.045 C 
ATOM     17  C   UNL     1      37.743 -23.611 -12.051  0.00  0.00    -0.011 C 
ENDBRANCH  13  16
BRANCH  13  18
ATOM     18  C   UNL     1      37.938 -23.240 -15.543  0.00  0.00    +0.181 C 
BRANCH  18  19
ATOM     19  O   UNL     1      39.037 -24.128 -15.442  0.00  0.00    -0.378 OA
ATOM     20  H   UNL     1      39.112 -24.447 -14.530  0.00  0.00    +0.211 HD
ENDBRANCH  18  19
ENDBRANCH  13  18
ENDBRANCH   3  12
TORSDOF 4
ENDMDL
MODEL 4
REMARK VINA RESULT:      -7.3      1.984      3.024
REMARK  Name = 3008897
REMARK  4 active torsions:
REMARK  status: ('A' for Active; 'I' for Inactive)
REMARK    1  A    between atoms: N_3  and  C_12
REMARK    2  A    between atoms: C_13  and  C_16
REMARK    3  A    between atoms: C_13  and  C_18
REMARK    4  A    between atoms: C_18  and  O_19
REMARK                            x       y       z     vdW  Elec       q    Type
REMARK                         _______ _______ _______ _____ _____    ______ ____
ROOT
ATOM      1  O   UNL     1      32.019 -24.274 -13.225  0.00  0.00    -0.252 OA
ATOM      2  O   UNL     1      30.802 -22.410 -17.250  0.00  0.00    -0.270 OA
ATOM      3  N   UNL     1      33.637 -24.075 -14.895  0.00  0.00    -0.215 N 
ATOM      4  N   UNL     1      31.426 -23.348 -15.238  0.00  0.00    -0.236 N 
ATOM      5  C   UNL     1      33.943 -23.669 -16.178  0.00  0.00    +0.072 C 
ATOM      6  C   UNL     1      32.350 -23.930 -14.363  0.00  0.00    +0.316 C 
ATOM      7  C   UNL     1      33.057 -23.112 -17.012  0.00  0.00    +0.047 C 
ATOM      8  C   UNL     1      31.663 -22.917 -16.535  0.00  0.00    +0.250 C 
ATOM      9  C   UNL     1      33.391 -22.674 -18.402  0.00  0.00    +0.037 C 
ATOM     10  H   UNL     1      30.510 -23.231 -14.896  0.00  0.00    +0.159 HD
ENDROOT
BRANCH   3  12
ATOM     11  O   UNL     1      35.639 -23.641 -13.717  0.00  0.00    -0.320 OA
ATOM     12  C   UNL     1      34.704 -24.668 -14.097  0.00  0.00    +0.224 C 
ATOM     13  C   UNL     1      36.935 -23.968 -14.272  0.00  0.00    +0.194 C 
ATOM     14  C   UNL     1      35.469 -25.645 -14.904  0.00  0.00    +0.023 C 
ATOM     15  C   UNL     1      36.739 -25.254 -15.000  0.00  0.00    +0.015 C 
BRANCH  13  16
ATOM     16  C   UNL     1      37.902 -24.142 -13.182  0.00  0.00    -0.045 C 
ATOM     17  C   UNL     1      38.694 -24.285 -12.290  0.00  0.00    -0.011 C 
ENDBRANCH  13  16
BRANCH  13  18
ATOM     18  C   UNL     1      37.358 -22.836 -15.202  0.00  0.00    +0.181 C 
BRANCH  18  19
ATOM     19  O   UNL     1      38.493 -23.257 -15.937  0.00  0.00    -0.378 OA
ATOM     20  H   UNL     1      38.694 -22.601 -16.623  0.00  0.00    +0.211 HD
ENDBRANCH  18  19
ENDBRANCH  13  18
ENDBRANCH   3  12
TORSDOF 4
ENDMDL
MODEL 5
REMARK VINA RESULT:      -7.2     15.078     17.619
REMARK  Name = 3008897
REMARK  4 active torsions:
REMARK  status: ('A' for Active; 'I' for Inactive)
REMARK    1  A    between atoms: N_3  and  C_12
REMARK    2  A    between atoms: C_13  and  C_16
REMARK    3  A    between atoms: C_13  and  C_18
REMARK    4  A    between atoms: C_18  and  O_19
REMARK                            x       y       z     vdW  Elec       q    Type
REMARK                         _______ _______ _______ _____ _____    ______ ____
ROOT
ATOM      1  O   UNL     1      31.175 -12.134 -21.058  0.00  0.00    -0.252 OA
ATOM      2  O   UNL     1      33.973 -13.718 -24.346  0.00  0.00    -0.270 OA
ATOM      3  N   UNL     1      32.172 -10.600 -22.505  0.00  0.00    -0.215 N 
ATOM      4  N   UNL     1      32.574 -12.910 -22.701  0.00  0.00    -0.236 N 
ATOM      5  C   UNL     1      33.010 -10.389 -23.581  0.00  0.00    +0.072 C 
ATOM      6  C   UNL     1      31.914 -11.886 -22.013  0.00  0.00    +0.316 C 
ATOM      7  C   UNL     1      33.640 -11.371 -24.237  0.00  0.00    +0.047 C 
ATOM      8  C   UNL     1      33.426 -12.771 -23.787  0.00  0.00    +0.250 C 
ATOM      9  C   UNL     1      34.548 -11.138 -25.402  0.00  0.00    +0.037 C 
ATOM     10  H   UNL     1      32.415 -13.828 -22.382  0.00  0.00    +0.159 HD
ENDROOT
BRANCH   3  12
ATOM     11  O   UNL     1      31.447  -8.379 -22.861  0.00  0.00    -0.320 OA
ATOM     12  C   UNL     1      31.553  -9.433 -21.886  0.00  0.00    +0.224 C 
ATOM     13  C   UNL     1      32.215  -7.244 -22.400  0.00  0.00    +0.194 C 
ATOM     14  C   UNL     1      32.414  -8.908 -20.802  0.00  0.00    +0.023 C 
ATOM     15  C   UNL     1      32.787  -7.661 -21.088  0.00  0.00    +0.015 C 
BRANCH  13  16
ATOM     16  C   UNL     1      31.325  -6.090 -22.224  0.00  0.00    -0.045 C 
ATOM     17  C   UNL     1      30.597  -5.147 -22.079  0.00  0.00    -0.011 C 
ENDBRANCH  13  16
BRANCH  13  18
ATOM     18  C   UNL     1      33.298  -6.947 -23.432  0.00  0.00    +0.181 C 
BRANCH  18  19
ATOM     19  O   UNL     1      34.532  -7.442 -22.947  0.00  0.00    -0.378 OA
ATOM     20  H   UNL     1      35.065  -7.767 -23.689  0.00  0.00    +0.211 HD
ENDBRANCH  18  19
ENDBRANCH  13  18
ENDBRANCH   3  12
TORSDOF 4
ENDMDL
MODEL 6
REMARK VINA RESULT:      -7.2      1.540      2.240
REMARK  Name = 3008897
REMARK  4 active torsions:
REMARK  status: ('A' for Active; 'I' for Inactive)
REMARK    1  A    between atoms: N_3  and  C_12
REMARK    2  A    between atoms: C_13  and  C_16
REMARK    3  A    between atoms: C_13  and  C_18
REMARK    4  A    between atoms: C_18  and  O_19
REMARK                            x       y       z     vdW  Elec       q    Type
REMARK                         _______ _______ _______ _____ _____    ______ ____
ROOT
ATOM      1  O   UNL     1      34.531 -23.862 -11.901  0.00  0.00    -0.252 OA
ATOM      2  O   UNL     1      31.456 -23.320 -15.278  0.00  0.00    -0.270 OA
ATOM      3  N   UNL     1      35.305 -23.708 -14.096  0.00  0.00    -0.215 N 
ATOM      4  N   UNL     1      33.009 -23.593 -13.595  0.00  0.00    -0.236 N 
ATOM      5  C   UNL     1      34.994 -23.558 -15.432  0.00  0.00    +0.072 C 
ATOM      6  C   UNL     1      34.313 -23.732 -13.108  0.00  0.00    +0.316 C 
ATOM      7  C   UNL     1      33.746 -23.426 -15.895  0.00  0.00    +0.047 C 
ATOM      8  C   UNL     1      32.625 -23.438 -14.918  0.00  0.00    +0.250 C 
ATOM      9  C   UNL     1      33.413 -23.264 -17.344  0.00  0.00    +0.037 C 
ATOM     10  H   UNL     1      32.286 -23.606 -12.926  0.00  0.00    +0.159 HD
ENDROOT
BRANCH   3  12
ATOM     11  O   UNL     1      37.376 -24.662 -14.715  0.00  0.00    -0.320 OA
ATOM     12  C   UNL     1      36.712 -23.842 -13.737  0.00  0.00    +0.224 C 
ATOM     13  C   UNL     1      37.901 -25.838 -14.055  0.00  0.00    +0.194 C 
ATOM     14  C   UNL     1      36.848 -24.550 -12.443  0.00  0.00    +0.023 C 
ATOM     15  C   UNL     1      37.528 -25.682 -12.619  0.00  0.00    +0.015 C 
BRANCH  13  16
ATOM     16  C   UNL     1      39.360 -25.869 -14.202  0.00  0.00    -0.045 C 
ATOM     17  C   UNL     1      40.555 -25.895 -14.322  0.00  0.00    -0.011 C 
ENDBRANCH  13  16
BRANCH  13  18
ATOM     18  C   UNL     1      37.261 -27.069 -14.686  0.00  0.00    +0.181 C 
BRANCH  18  19
ATOM     19  O   UNL     1      37.181 -26.870 -16.085  0.00  0.00    -0.378 OA
ATOM     20  H   UNL     1      37.317 -25.931 -16.286  0.00  0.00    +0.211 HD
ENDBRANCH  18  19
ENDBRANCH  13  18
ENDBRANCH   3  12
TORSDOF 4
ENDMDL
MODEL 7
REMARK VINA RESULT:      -7.2     10.137     12.921
REMARK  Name = 3008897
REMARK  4 active torsions:
REMARK  status: ('A' for Active; 'I' for Inactive)
REMARK    1  A    between atoms: N_3  and  C_12
REMARK    2  A    between atoms: C_13  and  C_16
REMARK    3  A    between atoms: C_13  and  C_18
REMARK    4  A    between atoms: C_18  and  O_19
REMARK                            x       y       z     vdW  Elec       q    Type
REMARK                         _______ _______ _______ _____ _____    ______ ____
ROOT
ATOM      1  O   UNL     1      34.881 -14.810 -20.567  0.00  0.00    -0.252 OA
ATOM      2  O   UNL     1      35.044 -19.406 -20.616  0.00  0.00    -0.270 OA
ATOM      3  N   UNL     1      34.771 -15.906 -22.624  0.00  0.00    -0.215 N 
ATOM      4  N   UNL     1      34.963 -17.102 -20.606  0.00  0.00    -0.236 N 
ATOM      5  C   UNL     1      34.766 -17.106 -23.305  0.00  0.00    +0.072 C 
ATOM      6  C   UNL     1      34.872 -15.851 -21.228  0.00  0.00    +0.316 C 
ATOM      7  C   UNL     1      34.854 -18.300 -22.707  0.00  0.00    +0.047 C 
ATOM      8  C   UNL     1      34.962 -18.342 -21.225  0.00  0.00    +0.250 C 
ATOM      9  C   UNL     1      34.847 -19.599 -23.449  0.00  0.00    +0.037 C 
ATOM     10  H   UNL     1      35.035 -17.100 -19.625  0.00  0.00    +0.159 HD
ENDROOT
BRANCH   3  12
ATOM     11  O   UNL     1      34.236 -13.605 -22.552  0.00  0.00    -0.320 OA
ATOM     12  C   UNL     1      34.670 -14.679 -23.407  0.00  0.00    +0.224 C 
ATOM     13  C   UNL     1      32.974 -13.101 -23.048  0.00  0.00    +0.194 C 
ATOM     14  C   UNL     1      33.632 -14.820 -24.453  0.00  0.00    +0.023 C 
ATOM     15  C   UNL     1      32.669 -13.920 -24.256  0.00  0.00    +0.015 C 
BRANCH  13  16
ATOM     16  C   UNL     1      33.123 -11.688 -23.415  0.00  0.00    -0.045 C 
ATOM     17  C   UNL     1      33.246 -10.531 -23.715  0.00  0.00    -0.011 C 
ENDBRANCH  13  16
BRANCH  13  18
ATOM     18  C   UNL     1      31.926 -13.274 -21.954  0.00  0.00    +0.181 C 
BRANCH  18  19
ATOM     19  O   UNL     1      32.578 -13.261 -20.697  0.00  0.00    -0.378 OA
ATOM     20  H   UNL     1      31.925 -13.110 -19.996  0.00  0.00    +0.211 HD
ENDBRANCH  18  19
ENDBRANCH  13  18
ENDBRANCH   3  12
TORSDOF 4
ENDMDL
MODEL 8
REMARK VINA RESULT:      -7.2      4.486      7.425
REMARK  Name = 3008897
REMARK  4 active torsions:
REMARK  status: ('A' for Active; 'I' for Inactive)
REMARK    1  A    between atoms: N_3  and  C_12
REMARK    2  A    between atoms: C_13  and  C_16
REMARK    3  A    between atoms: C_13  and  C_18
REMARK    4  A    between atoms: C_18  and  O_19
REMARK                            x       y       z     vdW  Elec       q    Type
REMARK                         _______ _______ _______ _____ _____    ______ ____
ROOT
ATOM      1  O   UNL     1      32.476 -23.003 -18.318  0.00  0.00    -0.252 OA
ATOM      2  O   UNL     1      35.870 -23.067 -15.215  0.00  0.00    -0.270 OA
ATOM      3  N   UNL     1      34.512 -22.008 -18.874  0.00  0.00    -0.215 N 
ATOM      4  N   UNL     1      34.177 -23.027 -16.779  0.00  0.00    -0.236 N 
ATOM      5  C   UNL     1      35.798 -21.695 -18.487  0.00  0.00    +0.072 C 
ATOM      6  C   UNL     1      33.634 -22.696 -18.026  0.00  0.00    +0.316 C 
ATOM      7  C   UNL     1      36.314 -22.012 -17.294  0.00  0.00    +0.047 C 
ATOM      8  C   UNL     1      35.457 -22.745 -16.326  0.00  0.00    +0.250 C 
ATOM      9  C   UNL     1      37.710 -21.670 -16.878  0.00  0.00    +0.037 C 
ATOM     10  H   UNL     1      33.587 -23.511 -16.158  0.00  0.00    +0.159 HD
ENDROOT
BRANCH   3  12
ATOM     11  O   UNL     1      35.202 -21.028 -20.910  0.00  0.00    -0.320 OA
ATOM     12  C   UNL     1      34.083 -21.598 -20.207  0.00  0.00    +0.224 C 
ATOM     13  C   UNL     1      34.889 -19.654 -21.238  0.00  0.00    +0.194 C 
ATOM     14  C   UNL     1      33.063 -20.529 -20.114  0.00  0.00    +0.023 C 
ATOM     15  C   UNL     1      33.516 -19.424 -20.705  0.00  0.00    +0.015 C 
BRANCH  13  16
ATOM     16  C   UNL     1      34.904 -19.484 -22.696  0.00  0.00    -0.045 C 
ATOM     17  C   UNL     1      34.917 -19.345 -23.889  0.00  0.00    -0.011 C 
ENDBRANCH  13  16
BRANCH  13  18
ATOM     18  C   UNL     1      35.924 -18.754 -20.572  0.00  0.00    +0.181 C 
BRANCH  18  19
ATOM     19  O   UNL     1      35.438 -17.424 -20.580  0.00  0.00    -0.378 OA
ATOM     20  H   UNL     1      35.809 -16.948 -21.339  0.00  0.00    +0.211 HD
ENDBRANCH  18  19
ENDBRANCH  13  18
ENDBRANCH   3  12
TORSDOF 4
ENDMDL
MODEL 9
REMARK VINA RESULT:      -7.1      8.744     10.839
REMARK  Name = 3008897
REMARK  4 active torsions:
REMARK  status: ('A' for Active; 'I' for Inactive)
REMARK    1  A    between atoms: N_3  and  C_12
REMARK    2  A    between atoms: C_13  and  C_16
REMARK    3  A    between atoms: C_13  and  C_18
REMARK    4  A    between atoms: C_18  and  O_19
REMARK                            x       y       z     vdW  Elec       q    Type
REMARK                         _______ _______ _______ _____ _____    ______ ____
ROOT
ATOM      1  O   UNL     1      34.541 -18.980 -25.537  0.00  0.00    -0.252 OA
ATOM      2  O   UNL     1      32.782 -14.775 -26.154  0.00  0.00    -0.270 OA
ATOM      3  N   UNL     1      34.867 -17.381 -23.869  0.00  0.00    -0.215 N 
ATOM      4  N   UNL     1      33.671 -16.878 -25.832  0.00  0.00    -0.236 N 
ATOM      5  C   UNL     1      34.652 -16.088 -23.438  0.00  0.00    +0.072 C 
ATOM      6  C   UNL     1      34.380 -17.838 -25.100  0.00  0.00    +0.316 C 
ATOM      7  C   UNL     1      33.973 -15.173 -24.140  0.00  0.00    +0.047 C 
ATOM      8  C   UNL     1      33.416 -15.567 -25.461  0.00  0.00    +0.250 C 
ATOM      9  C   UNL     1      33.742 -13.773 -23.669  0.00  0.00    +0.037 C 
ATOM     10  H   UNL     1      33.314 -17.166 -26.703  0.00  0.00    +0.159 HD
ENDROOT
BRANCH   3  12
ATOM     11  O   UNL     1      34.789 -19.371 -22.598  0.00  0.00    -0.320 OA
ATOM     12  C   UNL     1      35.626 -18.271 -22.998  0.00  0.00    +0.224 C 
ATOM     13  C   UNL     1      34.655 -19.351 -21.158  0.00  0.00    +0.194 C 
ATOM     14  C   UNL     1      36.010 -17.569 -21.752  0.00  0.00    +0.023 C 
ATOM     15  C   UNL     1      35.464 -18.184 -20.703  0.00  0.00    +0.015 C 
BRANCH  13  16
ATOM     16  C   UNL     1      35.197 -20.595 -20.599  0.00  0.00    -0.045 C 
ATOM     17  C   UNL     1      35.641 -21.613 -20.141  0.00  0.00    -0.011 C 
ENDBRANCH  13  16
BRANCH  13  18
ATOM     18  C   UNL     1      33.177 -19.195 -20.815  0.00  0.00    +0.181 C 
BRANCH  18  19
ATOM     19  O   UNL     1      32.615 -20.484 -20.646  0.00  0.00    -0.378 OA
ATOM     20  H   UNL     1      31.648 -20.414 -20.626  0.00  0.00    +0.211 HD
ENDBRANCH  18  19
ENDBRANCH  13  18
ENDBRANCH   3  12
TORSDOF 4
ENDMDL
