MODEL 1
REMARK VINA RESULT:     -11.9      0.000      0.000
REMARK  Name = 447622
REMARK  7 active torsions:
REMARK  status: ('A' for Active; 'I' for Inactive)
REMARK    1  A    between atoms: N_2  and  C_13
REMARK    2  A    between atoms: C_5  and  C_28
REMARK    3  A    between atoms: C_10  and  C_16
REMARK    4  A    between atoms: C_16  and  C_17
REMARK    5  A    between atoms: C_17  and  N_19
REMARK    6  A    between atoms: C_25  and  C_31
REMARK    7  A    between atoms: C_31  and  N_34
REMARK                            x       y       z     vdW  Elec       q    Type
REMARK                         _______ _______ _______ _____ _____    ______ ____
ROOT
ATOM      1 CL   UNL     1      35.213 -24.602 -13.469  0.00  0.00    -0.078 Cl
ATOM      2  N   UNL     1      37.087 -21.608 -18.085  0.00  0.00    -0.247 N 
ATOM      3  N   UNL     1      35.285 -22.486 -16.864  0.00  0.00    -0.337 NA
ATOM      4  N   UNL     1      37.555 -22.800 -16.119  0.00  0.00    -0.169 NA
ATOM      5  C   UNL     1      34.873 -23.184 -15.786  0.00  0.00    +0.156 C 
ATOM      6  C   UNL     1      36.621 -22.331 -16.970  0.00  0.00    +0.149 C 
ATOM      7  C   UNL     1      35.730 -23.714 -14.843  0.00  0.00    +0.108 C 
ATOM      8  C   UNL     1      37.074 -23.489 -15.063  0.00  0.00    +0.126 C 
ATOM      9  H   UNL     1      38.066 -21.523 -18.120  0.00  0.00    +0.165 HD
ENDROOT
BRANCH   2  13
ATOM     10  C   UNL     1      35.124 -19.749 -21.278  0.00  0.00    -0.024 C 
ATOM     11  C   UNL     1      36.436 -19.404 -20.992  0.00  0.00    -0.003 C 
ATOM     12  C   UNL     1      34.451 -20.699 -20.526  0.00  0.00    -0.003 C 
ATOM     13  C   UNL     1      36.424 -20.981 -19.161  0.00  0.00    +0.058 C 
ATOM     14  C   UNL     1      37.090 -20.024 -19.927  0.00  0.00    +0.015 C 
ATOM     15  C   UNL     1      35.105 -21.319 -19.462  0.00  0.00    +0.015 C 
BRANCH  10  16
ATOM     16  C   UNL     1      34.417 -19.079 -22.429  0.00  0.00    +0.004 C 
BRANCH  16  17
ATOM     17  C   UNL     1      35.394 -18.691 -23.539  0.00  0.00    -0.072 C 
BRANCH  17  19
ATOM     18  O   UNL     1      33.495 -15.049 -24.400  0.00  0.00    -0.358 OA
ATOM     19  N   UNL     1      35.161 -17.319 -23.986  0.00  0.00    +0.391 N 
ATOM     20  C   UNL     1      34.164 -17.284 -25.066  0.00  0.00    -0.045 C 
ATOM     21  C   UNL     1      34.721 -16.474 -22.867  0.00  0.00    -0.045 C 
ATOM     22  C   UNL     1      33.929 -15.842 -25.506  0.00  0.00    +0.119 C 
ATOM     23  C   UNL     1      34.472 -15.051 -23.359  0.00  0.00    +0.119 C 
ATOM     24  H   UNL     1      36.042 -16.953 -24.344  0.00  0.00    -0.079 HD
ENDBRANCH  17  19
ENDBRANCH  16  17
ENDBRANCH  10  16
ENDBRANCH   2  13
BRANCH   5  28
ATOM     25  C   UNL     1      30.664 -23.605 -15.548  0.00  0.00    -0.041 C 
ATOM     26  C   UNL     1      31.276 -23.403 -16.784  0.00  0.00    -0.006 C 
ATOM     27  C   UNL     1      31.438 -23.669 -14.388  0.00  0.00    -0.006 C 
ATOM     28  C   UNL     1      33.436 -23.329 -15.705  0.00  0.00    +0.031 C 
ATOM     29  C   UNL     1      32.662 -23.264 -16.863  0.00  0.00    +0.002 C 
ATOM     30  C   UNL     1      32.824 -23.531 -14.467  0.00  0.00    +0.002 C 
BRANCH  25  31
ATOM     31  C   UNL     1      29.183 -23.754 -15.464  0.00  0.00    -0.029 C 
ATOM     32  C   UNL     1      28.599 -24.265 -16.812  0.00  0.00    -0.018 C 
ATOM     33  C   UNL     1      28.389 -22.459 -15.104  0.00  0.00    -0.018 C 
BRANCH  31  34
ATOM     34  N   UNL     1      28.789 -24.749 -14.427  0.00  0.00    +0.385 N 
ATOM     35  H   UNL     1      29.134 -25.671 -14.693  0.00  0.00    -0.089 HD
ATOM     36  H   UNL     1      27.772 -24.775 -14.350  0.00  0.00    -0.089 HD
ATOM     37  H   UNL     1      29.191 -24.481 -13.529  0.00  0.00    -0.089 HD
ENDBRANCH  31  34
ENDBRANCH  25  31
ENDBRANCH   5  28
TORSDOF 7
ENDMDL
MODEL 2
REMARK VINA RESULT:     -11.3      2.078      5.022
REMARK  Name = 447622
REMARK  7 active torsions:
REMARK  status: ('A' for Active; 'I' for Inactive)
REMARK    1  A    between atoms: N_2  and  C_13
REMARK    2  A    between atoms: C_5  and  C_28
REMARK    3  A    between atoms: C_10  and  C_16
REMARK    4  A    between atoms: C_16  and  C_17
REMARK    5  A    between atoms: C_17  and  N_19
REMARK    6  A    between atoms: C_25  and  C_31
REMARK    7  A    between atoms: C_31  and  N_34
REMARK                            x       y       z     vdW  Elec       q    Type
REMARK                         _______ _______ _______ _____ _____    ______ ____
ROOT
ATOM      1 CL   UNL     1      31.889 -25.206 -13.491  0.00  0.00    -0.078 Cl
ATOM      2  N   UNL     1      32.039 -22.019 -18.350  0.00  0.00    -0.247 N 
ATOM      3  N   UNL     1      33.208 -23.071 -16.608  0.00  0.00    -0.337 NA
ATOM      4  N   UNL     1      30.803 -23.174 -16.723  0.00  0.00    -0.169 NA
ATOM      5  C   UNL     1      33.149 -23.811 -15.482  0.00  0.00    +0.156 C 
ATOM      6  C   UNL     1      32.014 -22.792 -17.173  0.00  0.00    +0.149 C 
ATOM      7  C   UNL     1      31.971 -24.264 -14.923  0.00  0.00    +0.108 C 
ATOM      8  C   UNL     1      30.817 -23.911 -15.593  0.00  0.00    +0.126 C 
ATOM      9  H   UNL     1      31.146 -21.840 -18.724  0.00  0.00    +0.165 HD
ENDROOT
BRANCH   2  13
ATOM     10  C   UNL     1      35.160 -20.344 -20.576  0.00  0.00    -0.024 C 
ATOM     11  C   UNL     1      35.417 -21.427 -19.750  0.00  0.00    -0.003 C 
ATOM     12  C   UNL     1      33.886 -19.805 -20.677  0.00  0.00    -0.003 C 
ATOM     13  C   UNL     1      33.091 -21.453 -19.100  0.00  0.00    +0.058 C 
ATOM     14  C   UNL     1      34.377 -21.985 -19.008  0.00  0.00    +0.015 C 
ATOM     15  C   UNL     1      32.846 -20.364 -19.935  0.00  0.00    +0.015 C 
BRANCH  10  16
ATOM     16  C   UNL     1      36.285 -19.740 -21.378  0.00  0.00    +0.004 C 
BRANCH  16  17
ATOM     17  C   UNL     1      36.015 -18.271 -21.704  0.00  0.00    -0.072 C 
BRANCH  17  19
ATOM     18  O   UNL     1      34.032 -17.690 -25.358  0.00  0.00    -0.358 OA
ATOM     19  N   UNL     1      35.762 -18.089 -23.132  0.00  0.00    +0.391 N 
ATOM     20  C   UNL     1      34.919 -19.173 -23.655  0.00  0.00    -0.045 C 
ATOM     21  C   UNL     1      35.125 -16.789 -23.388  0.00  0.00    -0.045 C 
ATOM     22  C   UNL     1      34.659 -18.955 -25.143  0.00  0.00    +0.119 C 
ATOM     23  C   UNL     1      34.859 -16.627 -24.882  0.00  0.00    +0.119 C 
ATOM     24  H   UNL     1      36.659 -18.112 -23.615  0.00  0.00    -0.079 HD
ENDBRANCH  17  19
ENDBRANCH  16  17
ENDBRANCH  10  16
ENDBRANCH   2  13
BRANCH   5  28
ATOM     25  C   UNL     1      36.945 -24.636 -13.792  0.00  0.00    -0.041 C 
ATOM     26  C   UNL     1      36.425 -25.472 -14.779  0.00  0.00    -0.006 C 
ATOM     27  C   UNL     1      36.216 -23.527 -13.361  0.00  0.00    -0.006 C 
ATOM     28  C   UNL     1      34.445 -24.092 -14.906  0.00  0.00    +0.031 C 
ATOM     29  C   UNL     1      35.175 -25.201 -15.336  0.00  0.00    +0.002 C 
ATOM     30  C   UNL     1      34.966 -23.255 -13.918  0.00  0.00    +0.002 C 
BRANCH  25  31
ATOM     31  C   UNL     1      38.282 -24.926 -13.198  0.00  0.00    -0.029 C 
ATOM     32  C   UNL     1      38.653 -23.865 -12.123  0.00  0.00    -0.018 C 
ATOM     33  C   UNL     1      39.477 -24.972 -14.201  0.00  0.00    -0.018 C 
BRANCH  31  34
ATOM     34  N   UNL     1      38.302 -26.249 -12.513  0.00  0.00    +0.385 N 
ATOM     35  H   UNL     1      38.254 -26.993 -13.209  0.00  0.00    -0.089 HD
ATOM     36  H   UNL     1      37.501 -26.319 -11.885  0.00  0.00    -0.089 HD
ATOM     37  H   UNL     1      39.165 -26.341 -11.976  0.00  0.00    -0.089 HD
ENDBRANCH  31  34
ENDBRANCH  25  31
ENDBRANCH   5  28
TORSDOF 7
ENDMDL
MODEL 3
REMARK VINA RESULT:      -9.8      9.581     16.862
REMARK  Name = 447622
REMARK  7 active torsions:
REMARK  status: ('A' for Active; 'I' for Inactive)
REMARK    1  A    between atoms: N_2  and  C_13
REMARK    2  A    between atoms: C_5  and  C_28
REMARK    3  A    between atoms: C_10  and  C_16
REMARK    4  A    between atoms: C_16  and  C_17
REMARK    5  A    between atoms: C_17  and  N_19
REMARK    6  A    between atoms: C_25  and  C_31
REMARK    7  A    between atoms: C_31  and  N_34
REMARK                            x       y       z     vdW  Elec       q    Type
REMARK                         _______ _______ _______ _____ _____    ______ ____
ROOT
ATOM      1 CL   UNL     1      31.064  -2.845 -23.284  0.00  0.00    -0.078 Cl
ATOM      2  N   UNL     1      31.719  -8.433 -21.825  0.00  0.00    -0.247 N 
ATOM      3  N   UNL     1      32.049  -6.722 -23.396  0.00  0.00    -0.337 NA
ATOM      4  N   UNL     1      30.952  -6.279 -21.297  0.00  0.00    -0.169 NA
ATOM      5  C   UNL     1      31.886  -5.421 -23.714  0.00  0.00    +0.156 C 
ATOM      6  C   UNL     1      31.566  -7.081 -22.188  0.00  0.00    +0.149 C 
ATOM      7  C   UNL     1      31.274  -4.501 -22.886  0.00  0.00    +0.108 C 
ATOM      8  C   UNL     1      30.822  -4.991 -21.678  0.00  0.00    +0.126 C 
ATOM      9  H   UNL     1      31.351  -8.648 -20.938  0.00  0.00    +0.165 HD
ENDROOT
BRANCH   2  13
ATOM     10  C   UNL     1      33.429 -11.715 -23.775  0.00  0.00    -0.024 C 
ATOM     11  C   UNL     1      32.381 -11.919 -22.890  0.00  0.00    -0.003 C 
ATOM     12  C   UNL     1      33.920 -10.443 -24.025  0.00  0.00    -0.003 C 
ATOM     13  C   UNL     1      32.296  -9.540 -22.482  0.00  0.00    +0.058 C 
ATOM     14  C   UNL     1      31.812 -10.825 -22.240  0.00  0.00    +0.015 C 
ATOM     15  C   UNL     1      33.350  -9.349 -23.375  0.00  0.00    +0.015 C 
BRANCH  10  16
ATOM     16  C   UNL     1      34.046 -12.898 -24.478  0.00  0.00    +0.004 C 
BRANCH  16  17
ATOM     17  C   UNL     1      32.996 -13.956 -24.822  0.00  0.00    -0.072 C 
BRANCH  17  19
ATOM     18  O   UNL     1      35.388 -17.319 -24.054  0.00  0.00    -0.358 OA
ATOM     19  N   UNL     1      33.426 -15.282 -24.381  0.00  0.00    +0.391 N 
ATOM     20  C   UNL     1      33.903 -16.081 -25.519  0.00  0.00    -0.045 C 
ATOM     21  C   UNL     1      34.482 -15.177 -23.364  0.00  0.00    -0.045 C 
ATOM     22  C   UNL     1      34.357 -17.454 -25.033  0.00  0.00    +0.119 C 
ATOM     23  C   UNL     1      34.923 -16.572 -22.929  0.00  0.00    +0.119 C 
ATOM     24  H   UNL     1      32.621 -15.751 -23.968  0.00  0.00    -0.079 HD
ENDBRANCH  17  19
ENDBRANCH  16  17
ENDBRANCH  10  16
ENDBRANCH   2  13
BRANCH   5  28
ATOM     25  C   UNL     1      33.438  -4.396 -27.520  0.00  0.00    -0.041 C 
ATOM     26  C   UNL     1      34.125  -5.297 -26.707  0.00  0.00    -0.006 C 
ATOM     27  C   UNL     1      32.241  -3.831 -27.080  0.00  0.00    -0.006 C 
ATOM     28  C   UNL     1      32.415  -5.072 -25.013  0.00  0.00    +0.031 C 
ATOM     29  C   UNL     1      33.613  -5.635 -25.454  0.00  0.00    +0.002 C 
ATOM     30  C   UNL     1      31.729  -4.170 -25.827  0.00  0.00    +0.002 C 
BRANCH  25  31
ATOM     31  C   UNL     1      33.985  -4.035 -28.860  0.00  0.00    -0.029 C 
ATOM     32  C   UNL     1      33.169  -4.718 -29.994  0.00  0.00    -0.018 C 
ATOM     33  C   UNL     1      35.480  -4.410 -29.107  0.00  0.00    -0.018 C 
BRANCH  31  34
ATOM     34  N   UNL     1      33.909  -2.568 -29.107  0.00  0.00    +0.385 N 
ATOM     35  H   UNL     1      33.806  -2.397 -30.107  0.00  0.00    -0.089 HD
ATOM     36  H   UNL     1      34.763  -2.122 -28.772  0.00  0.00    -0.089 HD
ATOM     37  H   UNL     1      33.106  -2.181 -28.611  0.00  0.00    -0.089 HD
ENDBRANCH  31  34
ENDBRANCH  25  31
ENDBRANCH   5  28
TORSDOF 7
ENDMDL
MODEL 4
REMARK VINA RESULT:      -9.2      8.473     15.009
REMARK  Name = 447622
REMARK  7 active torsions:
REMARK  status: ('A' for Active; 'I' for Inactive)
REMARK    1  A    between atoms: N_2  and  C_13
REMARK    2  A    between atoms: C_5  and  C_28
REMARK    3  A    between atoms: C_10  and  C_16
REMARK    4  A    between atoms: C_16  and  C_17
REMARK    5  A    between atoms: C_17  and  N_19
REMARK    6  A    between atoms: C_25  and  C_31
REMARK    7  A    between atoms: C_31  and  N_34
REMARK                            x       y       z     vdW  Elec       q    Type
REMARK                         _______ _______ _______ _____ _____    ______ ____
ROOT
ATOM      1 CL   UNL     1      32.211  -5.265 -20.884  0.00  0.00    -0.078 Cl
ATOM      2  N   UNL     1      32.208 -11.052 -21.425  0.00  0.00    -0.247 N 
ATOM      3  N   UNL     1      32.539  -8.949 -22.412  0.00  0.00    -0.337 NA
ATOM      4  N   UNL     1      31.889  -9.143 -20.099  0.00  0.00    -0.169 NA
ATOM      5  C   UNL     1      32.533  -7.608 -22.263  0.00  0.00    +0.156 C 
ATOM      6  C   UNL     1      32.213  -9.649 -21.305  0.00  0.00    +0.149 C 
ATOM      7  C   UNL     1      32.220  -6.970 -21.080  0.00  0.00    +0.108 C 
ATOM      8  C   UNL     1      31.903  -7.796 -20.021  0.00  0.00    +0.126 C 
ATOM      9  H   UNL     1      31.963 -11.519 -20.595  0.00  0.00    +0.165 HD
ENDROOT
BRANCH   2  13
ATOM     10  C   UNL     1      33.039 -13.626 -24.618  0.00  0.00    -0.024 C 
ATOM     11  C   UNL     1      33.493 -12.316 -24.662  0.00  0.00    -0.003 C 
ATOM     12  C   UNL     1      32.314 -14.097 -23.534  0.00  0.00    -0.003 C 
ATOM     13  C   UNL     1      32.487 -11.920 -22.502  0.00  0.00    +0.058 C 
ATOM     14  C   UNL     1      33.215 -11.459 -23.598  0.00  0.00    +0.015 C 
ATOM     15  C   UNL     1      32.037 -13.240 -22.470  0.00  0.00    +0.015 C 
BRANCH  10  16
ATOM     16  C   UNL     1      33.339 -14.553 -25.768  0.00  0.00    +0.004 C 
BRANCH  16  17
ATOM     17  C   UNL     1      34.614 -15.360 -25.521  0.00  0.00    -0.072 C 
BRANCH  17  19
ATOM     18  O   UNL     1      35.202 -18.719 -23.074  0.00  0.00    -0.358 OA
ATOM     19  N   UNL     1      34.365 -16.461 -24.593  0.00  0.00    +0.391 N 
ATOM     20  C   UNL     1      34.647 -17.755 -25.230  0.00  0.00    -0.045 C 
ATOM     21  C   UNL     1      35.178 -16.312 -23.377  0.00  0.00    -0.045 C 
ATOM     22  C   UNL     1      34.393 -18.887 -24.239  0.00  0.00    +0.119 C 
ATOM     23  C   UNL     1      34.911 -17.478 -22.429  0.00  0.00    +0.119 C 
ATOM     24  H   UNL     1      33.380 -16.434 -24.332  0.00  0.00    -0.079 HD
ENDBRANCH  17  19
ENDBRANCH  16  17
ENDBRANCH  10  16
ENDBRANCH   2  13
BRANCH   5  28
ATOM     25  C   UNL     1      33.574  -5.508 -25.792  0.00  0.00    -0.041 C 
ATOM     26  C   UNL     1      32.304  -5.352 -25.237  0.00  0.00    -0.006 C 
ATOM     27  C   UNL     1      34.502  -6.355 -25.185  0.00  0.00    -0.006 C 
ATOM     28  C   UNL     1      32.889  -6.891 -23.467  0.00  0.00    +0.031 C 
ATOM     29  C   UNL     1      31.962  -6.044 -24.075  0.00  0.00    +0.002 C 
ATOM     30  C   UNL     1      34.160  -7.046 -24.023  0.00  0.00    +0.002 C 
BRANCH  25  31
ATOM     31  C   UNL     1      33.940  -4.768 -27.034  0.00  0.00    -0.029 C 
ATOM     32  C   UNL     1      35.398  -5.097 -27.466  0.00  0.00    -0.018 C 
ATOM     33  C   UNL     1      33.846  -3.213 -26.951  0.00  0.00    -0.018 C 
BRANCH  31  34
ATOM     34  N   UNL     1      33.063  -5.148 -28.177  0.00  0.00    +0.385 N 
ATOM     35  H   UNL     1      32.154  -4.697 -28.072  0.00  0.00    -0.089 HD
ATOM     36  H   UNL     1      32.940  -6.161 -28.191  0.00  0.00    -0.089 HD
ATOM     37  H   UNL     1      33.494  -4.846 -29.051  0.00  0.00    -0.089 HD
ENDBRANCH  31  34
ENDBRANCH  25  31
ENDBRANCH   5  28
TORSDOF 7
ENDMDL
