MODEL 1
REMARK VINA RESULT:     -12.6      0.000      0.000
REMARK  Name = 24875313
REMARK  5 active torsions:
REMARK  status: ('A' for Active; 'I' for Inactive)
REMARK    1  A    between atoms: N_3  and  C_13
REMARK    2  A    between atoms: C_6  and  C_22
REMARK    3  A    between atoms: C_14  and  C_21
REMARK    4  A    between atoms: C_22  and  C_23
REMARK    5  A    between atoms: C_23  and  N_24
REMARK                            x       y       z     vdW  Elec       q    Type
REMARK                         _______ _______ _______ _____ _____    ______ ____
ROOT
ATOM      1  S   UNL     1      33.684 -19.681 -20.920  0.00  0.00    -0.056 S 
ATOM      2  O   UNL     1      34.854 -15.179 -21.317  0.00  0.00    -0.252 OA
ATOM      3  N   UNL     1      32.556 -14.997 -21.709  0.00  0.00    -0.266 N 
ATOM      4  N   UNL     1      33.491 -17.093 -21.284  0.00  0.00    -0.248 N 
ATOM      5  N   UNL     1      35.664 -18.023 -20.815  0.00  0.00    -0.223 NA
ATOM      6  C   UNL     1      35.244 -20.314 -20.592  0.00  0.00    +0.031 C 
ATOM      7  C   UNL     1      36.166 -19.288 -20.575  0.00  0.00    +0.103 C 
ATOM      8  C   UNL     1      34.368 -18.110 -21.011  0.00  0.00    +0.166 C 
ATOM      9  C   UNL     1      33.744 -15.690 -21.427  0.00  0.00    +0.310 C 
ATOM     10  H   UNL     1      31.740 -15.545 -21.767  0.00  0.00    +0.157 HD
ATOM     11  H   UNL     1      32.553 -17.365 -21.399  0.00  0.00    +0.158 HD
ENDROOT
BRANCH   3  13
ATOM     12  O   UNL     1      32.418 -11.595 -22.917  0.00  0.00    -0.452 OA
ATOM     13  C   UNL     1      32.385 -13.608 -21.918  0.00  0.00    +0.093 C 
ATOM     14  C   UNL     1      32.716 -12.913 -23.057  0.00  0.00    +0.229 C 
ATOM     15  C   UNL     1      31.851 -12.655 -21.017  0.00  0.00    +0.051 C 
ATOM     16  C   UNL     1      31.892 -11.447 -21.673  0.00  0.00    +0.125 C 
ATOM     17  C   UNL     1      31.493 -10.083 -21.295  0.00  0.00    +0.073 C 
BRANCH  14  21
ATOM     18  F   UNL     1      32.479 -14.068 -25.139  0.00  0.00    -0.163 F 
ATOM     19  F   UNL     1      33.663 -12.250 -25.152  0.00  0.00    -0.163 F 
ATOM     20  F   UNL     1      34.450 -14.051 -24.220  0.00  0.00    -0.163 F 
ATOM     21  C   UNL     1      33.305 -13.305 -24.347  0.00  0.00    +0.452 C 
ENDBRANCH  14  21
ENDBRANCH   3  13
BRANCH   6  22
ATOM     22  C   UNL     1      35.443 -21.794 -20.374  0.00  0.00    +0.056 C 
BRANCH  22  23
ATOM     23  C   UNL     1      35.147 -22.234 -18.941  0.00  0.00    +0.093 C 
BRANCH  23  24
ATOM     24  N   UNL     1      33.729 -22.191 -18.669  0.00  0.00    -0.321 N 
ATOM     25  H   UNL     1      33.145 -21.736 -19.318  0.00  0.00    +0.148 HD
ATOM     26  N   UNL     1      31.808 -22.658 -17.391  0.00  0.00    -0.234 NA
ATOM     27  N   UNL     1      34.177 -24.598 -14.597  0.00  0.00    -0.274 N 
ATOM     28  N   UNL     1      32.027 -23.878 -15.325  0.00  0.00    -0.233 NA
ATOM     29  N   UNL     1      36.079 -25.508 -13.480  0.00  0.00    -0.206 N 
ATOM     30  N   UNL     1      36.526 -24.488 -15.359  0.00  0.00    -0.193 NA
ATOM     31  N   UNL     1      37.410 -25.633 -13.588  0.00  0.00    -0.156 NA
ATOM     32  C   UNL     1      33.144 -22.755 -17.547  0.00  0.00    +0.110 C 
ATOM     33  C   UNL     1      33.977 -23.390 -16.648  0.00  0.00    +0.121 C 
ATOM     34  C   UNL     1      33.357 -23.939 -15.544  0.00  0.00    +0.115 C 
ATOM     35  C   UNL     1      31.322 -23.233 -16.275  0.00  0.00    +0.252 C 
ATOM     36  C   UNL     1      35.561 -24.826 -14.535  0.00  0.00    +0.207 C 
ATOM     37  C   UNL     1      37.631 -24.999 -14.742  0.00  0.00    +0.219 C 
ATOM     38  H   UNL     1      33.679 -24.968 -13.832  0.00  0.00    +0.156 HD
ATOM     39  H   UNL     1      35.545 -25.865 -12.732  0.00  0.00    +0.177 HD
ENDBRANCH  23  24
ENDBRANCH  22  23
ENDBRANCH   6  22
TORSDOF 5
ENDMDL
MODEL 2
REMARK VINA RESULT:     -12.3      1.763      3.205
REMARK  Name = 24875313
REMARK  5 active torsions:
REMARK  status: ('A' for Active; 'I' for Inactive)
REMARK    1  A    between atoms: N_3  and  C_13
REMARK    2  A    between atoms: C_6  and  C_22
REMARK    3  A    between atoms: C_14  and  C_21
REMARK    4  A    between atoms: C_22  and  C_23
REMARK    5  A    between atoms: C_23  and  N_24
REMARK                            x       y       z     vdW  Elec       q    Type
REMARK                         _______ _______ _______ _____ _____    ______ ____
ROOT
ATOM      1  S   UNL     1      33.885 -19.911 -20.672  0.00  0.00    -0.056 S 
ATOM      2  O   UNL     1      35.653 -16.053 -22.619  0.00  0.00    -0.252 OA
ATOM      3  N   UNL     1      33.377 -15.597 -22.901  0.00  0.00    -0.266 N 
ATOM      4  N   UNL     1      34.036 -17.582 -21.864  0.00  0.00    -0.248 N 
ATOM      5  N   UNL     1      36.087 -18.688 -21.252  0.00  0.00    -0.223 NA
ATOM      6  C   UNL     1      35.362 -20.676 -20.253  0.00  0.00    +0.031 C 
ATOM      7  C   UNL     1      36.421 -19.880 -20.637  0.00  0.00    +0.103 C 
ATOM      8  C   UNL     1      34.778 -18.599 -21.325  0.00  0.00    +0.166 C 
ATOM      9  C   UNL     1      34.475 -16.365 -22.481  0.00  0.00    +0.310 C 
ATOM     10  H   UNL     1      32.488 -15.980 -22.721  0.00  0.00    +0.157 HD
ATOM     11  H   UNL     1      33.060 -17.703 -21.821  0.00  0.00    +0.158 HD
ENDROOT
BRANCH   3  13
ATOM     12  O   UNL     1      33.418 -12.797 -25.184  0.00  0.00    -0.452 OA
ATOM     13  C   UNL     1      33.391 -14.339 -23.549  0.00  0.00    +0.093 C 
ATOM     14  C   UNL     1      33.409 -14.127 -24.908  0.00  0.00    +0.229 C 
ATOM     15  C   UNL     1      33.390 -13.056 -22.951  0.00  0.00    +0.051 C 
ATOM     16  C   UNL     1      33.406 -12.152 -23.987  0.00  0.00    +0.125 C 
ATOM     17  C   UNL     1      33.416 -10.683 -24.042  0.00  0.00    +0.073 C 
BRANCH  14  21
ATOM     18  F   UNL     1      32.210 -15.628 -26.334  0.00  0.00    -0.163 F 
ATOM     19  F   UNL     1      33.754 -14.416 -27.257  0.00  0.00    -0.163 F 
ATOM     20  F   UNL     1      34.306 -16.066 -25.951  0.00  0.00    -0.163 F 
ATOM     21  C   UNL     1      33.418 -15.026 -26.072  0.00  0.00    +0.452 C 
ENDBRANCH  14  21
ENDBRANCH   3  13
BRANCH   6  22
ATOM     22  C   UNL     1      35.364 -22.021 -19.567  0.00  0.00    +0.056 C 
BRANCH  22  23
ATOM     23  C   UNL     1      35.177 -21.922 -18.054  0.00  0.00    +0.093 C 
BRANCH  23  24
ATOM     24  N   UNL     1      36.420 -22.170 -17.363  0.00  0.00    -0.321 N 
ATOM     25  H   UNL     1      37.250 -21.815 -17.755  0.00  0.00    +0.148 HD
ATOM     26  N   UNL     1      37.725 -23.054 -15.613  0.00  0.00    -0.234 NA
ATOM     27  N   UNL     1      34.292 -24.594 -13.873  0.00  0.00    -0.274 N 
ATOM     28  N   UNL     1      36.653 -24.285 -13.841  0.00  0.00    -0.233 NA
ATOM     29  N   UNL     1      32.006 -25.152 -13.480  0.00  0.00    -0.206 N 
ATOM     30  N   UNL     1      32.362 -23.995 -15.299  0.00  0.00    -0.193 NA
ATOM     31  N   UNL     1      30.777 -25.007 -13.998  0.00  0.00    -0.156 NA
ATOM     32  C   UNL     1      36.512 -22.881 -16.177  0.00  0.00    +0.110 C 
ATOM     33  C   UNL     1      35.339 -23.372 -15.639  0.00  0.00    +0.121 C 
ATOM     34  C   UNL     1      35.472 -24.073 -14.458  0.00  0.00    +0.115 C 
ATOM     35  C   UNL     1      37.723 -23.755 -14.464  0.00  0.00    +0.252 C 
ATOM     36  C   UNL     1      32.942 -24.549 -14.259  0.00  0.00    +0.207 C 
ATOM     37  C   UNL     1      31.047 -24.300 -15.097  0.00  0.00    +0.219 C 
ATOM     38  H   UNL     1      34.449 -25.085 -13.034  0.00  0.00    +0.156 HD
ATOM     39  H   UNL     1      32.204 -25.633 -12.644  0.00  0.00    +0.177 HD
ENDBRANCH  23  24
ENDBRANCH  22  23
ENDBRANCH   6  22
TORSDOF 5
ENDMDL
MODEL 3
REMARK VINA RESULT:     -12.2      1.918      3.924
REMARK  Name = 24875313
REMARK  5 active torsions:
REMARK  status: ('A' for Active; 'I' for Inactive)
REMARK    1  A    between atoms: N_3  and  C_13
REMARK    2  A    between atoms: C_6  and  C_22
REMARK    3  A    between atoms: C_14  and  C_21
REMARK    4  A    between atoms: C_22  and  C_23
REMARK    5  A    between atoms: C_23  and  N_24
REMARK                            x       y       z     vdW  Elec       q    Type
REMARK                         _______ _______ _______ _____ _____    ______ ____
ROOT
ATOM      1  S   UNL     1      33.477 -20.176 -20.592  0.00  0.00    -0.056 S 
ATOM      2  O   UNL     1      35.492 -16.314 -22.274  0.00  0.00    -0.252 OA
ATOM      3  N   UNL     1      33.262 -15.807 -22.761  0.00  0.00    -0.266 N 
ATOM      4  N   UNL     1      33.783 -17.825 -21.711  0.00  0.00    -0.248 N 
ATOM      5  N   UNL     1      35.746 -18.985 -20.932  0.00  0.00    -0.223 NA
ATOM      6  C   UNL     1      34.893 -20.978 -20.052  0.00  0.00    +0.031 C 
ATOM      7  C   UNL     1      35.998 -20.196 -20.316  0.00  0.00    +0.103 C 
ATOM      8  C   UNL     1      34.452 -18.868 -21.127  0.00  0.00    +0.166 C 
ATOM      9  C   UNL     1      34.300 -16.606 -22.256  0.00  0.00    +0.310 C 
ATOM     10  H   UNL     1      32.353 -16.175 -22.676  0.00  0.00    +0.157 HD
ATOM     11  H   UNL     1      32.806 -17.928 -21.764  0.00  0.00    +0.158 HD
ENDROOT
BRANCH   3  13
ATOM     12  O   UNL     1      33.538 -12.960 -24.968  0.00  0.00    -0.452 OA
ATOM     13  C   UNL     1      33.360 -14.536 -23.376  0.00  0.00    +0.093 C 
ATOM     14  C   UNL     1      33.462 -14.295 -24.726  0.00  0.00    +0.229 C 
ATOM     15  C   UNL     1      33.375 -13.267 -22.748  0.00  0.00    +0.051 C 
ATOM     16  C   UNL     1      33.484 -12.342 -23.759  0.00  0.00    +0.125 C 
ATOM     17  C   UNL     1      33.553 -10.874 -23.777  0.00  0.00    +0.073 C 
BRANCH  14  21
ATOM     18  F   UNL     1      34.429 -16.179 -25.838  0.00  0.00    -0.163 F 
ATOM     19  F   UNL     1      32.319 -15.811 -26.181  0.00  0.00    -0.163 F 
ATOM     20  F   UNL     1      33.807 -14.498 -27.069  0.00  0.00    -0.163 F 
ATOM     21  C   UNL     1      33.502 -15.166 -25.910  0.00  0.00    +0.452 C 
ENDBRANCH  14  21
ENDBRANCH   3  13
BRANCH   6  22
ATOM     22  C   UNL     1      34.805 -22.337 -19.400  0.00  0.00    +0.056 C 
BRANCH  22  23
ATOM     23  C   UNL     1      33.890 -22.356 -18.177  0.00  0.00    +0.093 C 
BRANCH  23  24
ATOM     24  N   UNL     1      34.588 -22.854 -17.015  0.00  0.00    -0.321 N 
ATOM     25  H   UNL     1      35.573 -22.867 -17.035  0.00  0.00    +0.148 HD
ATOM     26  N   UNL     1      34.703 -23.758 -14.845  0.00  0.00    -0.234 NA
ATOM     27  N   UNL     1      30.562 -23.748 -14.657  0.00  0.00    -0.274 N 
ATOM     28  N   UNL     1      32.665 -24.214 -13.642  0.00  0.00    -0.233 NA
ATOM     29  N   UNL     1      28.267 -23.454 -15.244  0.00  0.00    -0.206 N 
ATOM     30  N   UNL     1      29.689 -22.845 -16.787  0.00  0.00    -0.193 NA
ATOM     31  N   UNL     1      27.476 -23.024 -16.238  0.00  0.00    -0.156 NA
ATOM     32  C   UNL     1      33.953 -23.315 -15.874  0.00  0.00    +0.110 C 
ATOM     33  C   UNL     1      32.572 -23.290 -15.863  0.00  0.00    +0.121 C 
ATOM     34  C   UNL     1      31.977 -23.756 -14.709  0.00  0.00    +0.115 C 
ATOM     35  C   UNL     1      34.005 -24.187 -13.776  0.00  0.00    +0.252 C 
ATOM     36  C   UNL     1      29.581 -23.346 -15.578  0.00  0.00    +0.207 C 
ATOM     37  C   UNL     1      28.385 -22.666 -17.148  0.00  0.00    +0.219 C 
ATOM     38  H   UNL     1      30.194 -24.092 -13.810  0.00  0.00    +0.156 HD
ATOM     39  H   UNL     1      27.940 -23.804 -14.383  0.00  0.00    +0.177 HD
ENDBRANCH  23  24
ENDBRANCH  22  23
ENDBRANCH   6  22
TORSDOF 5
ENDMDL
MODEL 4
REMARK VINA RESULT:     -12.1      1.161      2.868
REMARK  Name = 24875313
REMARK  5 active torsions:
REMARK  status: ('A' for Active; 'I' for Inactive)
REMARK    1  A    between atoms: N_3  and  C_13
REMARK    2  A    between atoms: C_6  and  C_22
REMARK    3  A    between atoms: C_14  and  C_21
REMARK    4  A    between atoms: C_22  and  C_23
REMARK    5  A    between atoms: C_23  and  N_24
REMARK                            x       y       z     vdW  Elec       q    Type
REMARK                         _______ _______ _______ _____ _____    ______ ____
ROOT
ATOM      1  S   UNL     1      33.736 -19.601 -20.814  0.00  0.00    -0.056 S 
ATOM      2  O   UNL     1      34.895 -15.134 -21.521  0.00  0.00    -0.252 OA
ATOM      3  N   UNL     1      32.581 -14.962 -21.806  0.00  0.00    -0.266 N 
ATOM      4  N   UNL     1      33.532 -17.036 -21.312  0.00  0.00    -0.248 N 
ATOM      5  N   UNL     1      35.723 -17.950 -20.902  0.00  0.00    -0.223 NA
ATOM      6  C   UNL     1      35.309 -20.223 -20.531  0.00  0.00    +0.031 C 
ATOM      7  C   UNL     1      36.233 -19.202 -20.617  0.00  0.00    +0.103 C 
ATOM      8  C   UNL     1      34.418 -18.041 -21.028  0.00  0.00    +0.166 C 
ATOM      9  C   UNL     1      33.780 -15.645 -21.546  0.00  0.00    +0.310 C 
ATOM     10  H   UNL     1      31.761 -15.509 -21.793  0.00  0.00    +0.157 HD
ATOM     11  H   UNL     1      32.588 -17.309 -21.364  0.00  0.00    +0.158 HD
ENDROOT
BRANCH   3  13
ATOM     12  O   UNL     1      32.424 -11.625 -23.183  0.00  0.00    -0.452 OA
ATOM     13  C   UNL     1      32.403 -13.586 -22.084  0.00  0.00    +0.093 C 
ATOM     14  C   UNL     1      32.727 -12.948 -23.259  0.00  0.00    +0.229 C 
ATOM     15  C   UNL     1      31.868 -12.591 -21.231  0.00  0.00    +0.051 C 
ATOM     16  C   UNL     1      31.901 -11.418 -21.946  0.00  0.00    +0.125 C 
ATOM     17  C   UNL     1      31.498 -10.039 -21.635  0.00  0.00    +0.073 C 
BRANCH  14  21
ATOM     18  F   UNL     1      32.446 -14.105 -25.334  0.00  0.00    -0.163 F 
ATOM     19  F   UNL     1      33.774 -12.389 -25.336  0.00  0.00    -0.163 F 
ATOM     20  F   UNL     1      34.389 -14.236 -24.366  0.00  0.00    -0.163 F 
ATOM     21  C   UNL     1      33.312 -13.402 -24.529  0.00  0.00    +0.452 C 
ENDBRANCH  14  21
ENDBRANCH   3  13
BRANCH   6  22
ATOM     22  C   UNL     1      35.515 -21.690 -20.239  0.00  0.00    +0.056 C 
BRANCH  22  23
ATOM     23  C   UNL     1      35.124 -22.079 -18.815  0.00  0.00    +0.093 C 
BRANCH  23  24
ATOM     24  N   UNL     1      36.286 -22.147 -17.960  0.00  0.00    -0.321 N 
ATOM     25  H   UNL     1      37.161 -21.913 -18.345  0.00  0.00    +0.148 HD
ATOM     26  N   UNL     1      37.386 -22.555 -15.919  0.00  0.00    -0.234 NA
ATOM     27  N   UNL     1      33.753 -23.563 -14.197  0.00  0.00    -0.274 N 
ATOM     28  N   UNL     1      36.108 -23.273 -14.006  0.00  0.00    -0.233 NA
ATOM     29  N   UNL     1      31.421 -23.981 -13.907  0.00  0.00    -0.206 N 
ATOM     30  N   UNL     1      31.990 -23.341 -15.917  0.00  0.00    -0.193 NA
ATOM     31  N   UNL     1      30.253 -23.967 -14.567  0.00  0.00    -0.156 NA
ATOM     32  C   UNL     1      36.239 -22.525 -16.628  0.00  0.00    +0.110 C 
ATOM     33  C   UNL     1      35.004 -22.850 -16.103  0.00  0.00    +0.121 C 
ATOM     34  C   UNL     1      35.000 -23.220 -14.774  0.00  0.00    +0.115 C 
ATOM     35  C   UNL     1      37.251 -22.932 -14.633  0.00  0.00    +0.252 C 
ATOM     36  C   UNL     1      32.448 -23.609 -14.716  0.00  0.00    +0.207 C 
ATOM     37  C   UNL     1      30.652 -23.573 -15.778  0.00  0.00    +0.219 C 
ATOM     38  H   UNL     1      33.812 -23.819 -13.248  0.00  0.00    +0.156 HD
ATOM     39  H   UNL     1      31.522 -24.230 -12.959  0.00  0.00    +0.177 HD
ENDBRANCH  23  24
ENDBRANCH  22  23
ENDBRANCH   6  22
TORSDOF 5
ENDMDL
MODEL 5
REMARK VINA RESULT:     -12.1      5.378     11.517
REMARK  Name = 24875313
REMARK  5 active torsions:
REMARK  status: ('A' for Active; 'I' for Inactive)
REMARK    1  A    between atoms: N_3  and  C_13
REMARK    2  A    between atoms: C_6  and  C_22
REMARK    3  A    between atoms: C_14  and  C_21
REMARK    4  A    between atoms: C_22  and  C_23
REMARK    5  A    between atoms: C_23  and  N_24
REMARK                            x       y       z     vdW  Elec       q    Type
REMARK                         _______ _______ _______ _____ _____    ______ ____
ROOT
ATOM      1  S   UNL     1      33.412 -19.772 -21.107  0.00  0.00    -0.056 S 
ATOM      2  O   UNL     1      33.831 -22.745 -17.531  0.00  0.00    -0.252 OA
ATOM      3  N   UNL     1      31.523 -22.379 -17.435  0.00  0.00    -0.266 N 
ATOM      4  N   UNL     1      32.795 -21.304 -19.071  0.00  0.00    -0.248 N 
ATOM      5  N   UNL     1      35.102 -21.191 -19.760  0.00  0.00    -0.223 NA
ATOM      6  C   UNL     1      35.062 -19.709 -21.570  0.00  0.00    +0.031 C 
ATOM      7  C   UNL     1      35.806 -20.524 -20.744  0.00  0.00    +0.103 C 
ATOM      8  C   UNL     1      33.831 -20.869 -19.855  0.00  0.00    +0.166 C 
ATOM      9  C   UNL     1      32.815 -22.206 -17.958  0.00  0.00    +0.310 C 
ATOM     10  H   UNL     1      30.805 -21.878 -17.885  0.00  0.00    +0.157 HD
ATOM     11  H   UNL     1      31.910 -20.944 -19.305  0.00  0.00    +0.158 HD
ENDROOT
BRANCH   3  13
ATOM     12  O   UNL     1      29.815 -24.294 -14.892  0.00  0.00    -0.452 OA
ATOM     13  C   UNL     1      31.126 -23.185 -16.342  0.00  0.00    +0.093 C 
ATOM     14  C   UNL     1      29.833 -23.500 -15.994  0.00  0.00    +0.229 C 
ATOM     15  C   UNL     1      31.956 -23.825 -15.390  0.00  0.00    +0.051 C 
ATOM     16  C   UNL     1      31.111 -24.487 -14.531  0.00  0.00    +0.125 C 
ATOM     17  C   UNL     1      31.336 -25.325 -13.345  0.00  0.00    +0.073 C 
BRANCH  14  21
ATOM     18  F   UNL     1      27.497 -23.123 -15.647  0.00  0.00    -0.163 F 
ATOM     19  F   UNL     1      28.468 -21.931 -17.176  0.00  0.00    -0.163 F 
ATOM     20  F   UNL     1      28.096 -24.045 -17.523  0.00  0.00    -0.163 F 
ATOM     21  C   UNL     1      28.521 -23.160 -16.564  0.00  0.00    +0.452 C 
ENDBRANCH  14  21
ENDBRANCH   3  13
BRANCH   6  22
ATOM     22  C   UNL     1      35.501 -18.849 -22.730  0.00  0.00    +0.056 C 
BRANCH  22  23
ATOM     23  C   UNL     1      34.594 -17.642 -22.959  0.00  0.00    +0.093 C 
BRANCH  23  24
ATOM     24  N   UNL     1      34.504 -17.321 -24.365  0.00  0.00    -0.321 N 
ATOM     25  H   UNL     1      34.852 -17.975 -25.014  0.00  0.00    +0.148 HD
ATOM     26  N   UNL     1      33.921 -15.947 -26.185  0.00  0.00    -0.234 NA
ATOM     27  N   UNL     1      32.427 -13.128 -23.539  0.00  0.00    -0.274 N 
ATOM     28  N   UNL     1      32.867 -13.819 -25.774  0.00  0.00    -0.233 NA
ATOM     29  N   UNL     1      31.796 -12.028 -21.517  0.00  0.00    -0.206 N 
ATOM     30  N   UNL     1      32.734 -13.982 -21.239  0.00  0.00    -0.193 NA
ATOM     31  N   UNL     1      31.805 -12.178 -20.184  0.00  0.00    -0.156 NA
ATOM     32  C   UNL     1      33.956 -16.146 -24.852  0.00  0.00    +0.110 C 
ATOM     33  C   UNL     1      33.472 -15.241 -23.928  0.00  0.00    +0.121 C 
ATOM     34  C   UNL     1      32.933 -14.084 -24.453  0.00  0.00    +0.115 C 
ATOM     35  C   UNL     1      33.372 -14.780 -26.573  0.00  0.00    +0.252 C 
ATOM     36  C   UNL     1      32.350 -13.104 -22.137  0.00  0.00    +0.207 C 
ATOM     37  C   UNL     1      32.383 -13.376 -20.068  0.00  0.00    +0.219 C 
ATOM     38  H   UNL     1      32.057 -12.324 -23.971  0.00  0.00    +0.156 HD
ATOM     39  H   UNL     1      31.435 -11.242 -21.987  0.00  0.00    +0.177 HD
ENDBRANCH  23  24
ENDBRANCH  22  23
ENDBRANCH   6  22
TORSDOF 5
ENDMDL
MODEL 6
REMARK VINA RESULT:     -11.9      2.014      3.817
REMARK  Name = 24875313
REMARK  5 active torsions:
REMARK  status: ('A' for Active; 'I' for Inactive)
REMARK    1  A    between atoms: N_3  and  C_13
REMARK    2  A    between atoms: C_6  and  C_22
REMARK    3  A    between atoms: C_14  and  C_21
REMARK    4  A    between atoms: C_22  and  C_23
REMARK    5  A    between atoms: C_23  and  N_24
REMARK                            x       y       z     vdW  Elec       q    Type
REMARK                         _______ _______ _______ _____ _____    ______ ____
ROOT
ATOM      1  S   UNL     1      34.461 -20.372 -20.574  0.00  0.00    -0.056 S 
ATOM      2  O   UNL     1      35.819 -16.508 -22.816  0.00  0.00    -0.252 OA
ATOM      3  N   UNL     1      33.593 -16.583 -23.529  0.00  0.00    -0.266 N 
ATOM      4  N   UNL     1      34.400 -18.235 -22.090  0.00  0.00    -0.248 N 
ATOM      5  N   UNL     1      36.468 -18.795 -20.986  0.00  0.00    -0.223 NA
ATOM      6  C   UNL     1      35.948 -20.747 -19.805  0.00  0.00    +0.031 C 
ATOM      7  C   UNL     1      36.894 -19.801 -20.140  0.00  0.00    +0.103 C 
ATOM      8  C   UNL     1      35.203 -18.995 -21.281  0.00  0.00    +0.166 C 
ATOM      9  C   UNL     1      34.715 -17.043 -22.820  0.00  0.00    +0.310 C 
ATOM     10  H   UNL     1      32.773 -17.120 -23.434  0.00  0.00    +0.157 HD
ATOM     11  H   UNL     1      33.474 -18.554 -22.185  0.00  0.00    +0.158 HD
ENDROOT
BRANCH   3  13
ATOM     12  O   UNL     1      33.248 -13.307 -25.011  0.00  0.00    -0.452 OA
ATOM     13  C   UNL     1      33.496 -15.445 -24.363  0.00  0.00    +0.093 C 
ATOM     14  C   UNL     1      33.288 -14.150 -23.947  0.00  0.00    +0.229 C 
ATOM     15  C   UNL     1      33.588 -15.393 -25.775  0.00  0.00    +0.051 C 
ATOM     16  C   UNL     1      33.432 -14.071 -26.119  0.00  0.00    +0.125 C 
ATOM     17  C   UNL     1      33.423 -13.361 -27.406  0.00  0.00    +0.073 C 
BRANCH  14  21
ATOM     18  F   UNL     1      31.993 -13.950 -21.945  0.00  0.00    -0.163 F 
ATOM     19  F   UNL     1      34.144 -13.752 -21.748  0.00  0.00    -0.163 F 
ATOM     20  F   UNL     1      32.989 -12.162 -22.679  0.00  0.00    -0.163 F 
ATOM     21  C   UNL     1      33.110 -13.528 -22.626  0.00  0.00    +0.452 C 
ENDBRANCH  14  21
ENDBRANCH   3  13
BRANCH   6  22
ATOM     22  C   UNL     1      36.069 -21.962 -18.918  0.00  0.00    +0.056 C 
BRANCH  22  23
ATOM     23  C   UNL     1      36.122 -21.616 -17.431  0.00  0.00    +0.093 C 
BRANCH  23  24
ATOM     24  N   UNL     1      37.277 -22.213 -16.802  0.00  0.00    -0.321 N 
ATOM     25  H   UNL     1      38.170 -21.930 -17.104  0.00  0.00    +0.148 HD
ATOM     26  N   UNL     1      38.342 -23.656 -15.276  0.00  0.00    -0.234 NA
ATOM     27  N   UNL     1      34.631 -24.920 -13.929  0.00  0.00    -0.274 N 
ATOM     28  N   UNL     1      37.006 -25.032 -13.816  0.00  0.00    -0.233 NA
ATOM     29  N   UNL     1      32.269 -25.149 -13.678  0.00  0.00    -0.206 N 
ATOM     30  N   UNL     1      32.889 -23.713 -15.203  0.00  0.00    -0.193 NA
ATOM     31  N   UNL     1      31.104 -24.690 -14.160  0.00  0.00    -0.156 NA
ATOM     32  C   UNL     1      37.199 -23.163 -15.796  0.00  0.00    +0.110 C 
ATOM     33  C   UNL     1      35.939 -23.549 -15.384  0.00  0.00    +0.121 C 
ATOM     34  C   UNL     1      35.904 -24.496 -14.380  0.00  0.00    +0.115 C 
ATOM     35  C   UNL     1      38.175 -24.573 -14.305  0.00  0.00    +0.252 C 
ATOM     36  C   UNL     1      33.325 -24.564 -14.303  0.00  0.00    +0.207 C 
ATOM     37  C   UNL     1      31.534 -23.824 -15.080  0.00  0.00    +0.219 C 
ATOM     38  H   UNL     1      34.669 -25.596 -13.214  0.00  0.00    +0.156 HD
ATOM     39  H   UNL     1      32.349 -25.823 -12.964  0.00  0.00    +0.177 HD
ENDBRANCH  23  24
ENDBRANCH  22  23
ENDBRANCH   6  22
TORSDOF 5
ENDMDL
MODEL 7
REMARK VINA RESULT:     -11.9      2.224      4.232
REMARK  Name = 24875313
REMARK  5 active torsions:
REMARK  status: ('A' for Active; 'I' for Inactive)
REMARK    1  A    between atoms: N_3  and  C_13
REMARK    2  A    between atoms: C_6  and  C_22
REMARK    3  A    between atoms: C_14  and  C_21
REMARK    4  A    between atoms: C_22  and  C_23
REMARK    5  A    between atoms: C_23  and  N_24
REMARK                            x       y       z     vdW  Elec       q    Type
REMARK                         _______ _______ _______ _____ _____    ______ ____
ROOT
ATOM      1  S   UNL     1      33.120 -19.797 -20.582  0.00  0.00    -0.056 S 
ATOM      2  O   UNL     1      35.239 -15.907 -22.055  0.00  0.00    -0.252 OA
ATOM      3  N   UNL     1      33.014 -15.228 -22.298  0.00  0.00    -0.266 N 
ATOM      4  N   UNL     1      33.486 -17.368 -21.494  0.00  0.00    -0.248 N 
ATOM      5  N   UNL     1      35.427 -18.709 -21.001  0.00  0.00    -0.223 NA
ATOM      6  C   UNL     1      34.520 -20.728 -20.244  0.00  0.00    +0.031 C 
ATOM      7  C   UNL     1      35.648 -19.987 -20.526  0.00  0.00    +0.103 C 
ATOM      8  C   UNL     1      34.131 -18.500 -21.071  0.00  0.00    +0.166 C 
ATOM      9  C   UNL     1      34.036 -16.131 -21.963  0.00  0.00    +0.310 C 
ATOM     10  H   UNL     1      32.093 -15.552 -22.170  0.00  0.00    +0.157 HD
ATOM     11  H   UNL     1      32.503 -17.410 -21.472  0.00  0.00    +0.158 HD
ENDROOT
BRANCH   3  13
ATOM     12  O   UNL     1      32.988 -11.672 -22.937  0.00  0.00    -0.452 OA
ATOM     13  C   UNL     1      33.144 -13.910 -22.796  0.00  0.00    +0.093 C 
ATOM     14  C   UNL     1      32.696 -12.763 -22.182  0.00  0.00    +0.229 C 
ATOM     15  C   UNL     1      33.750 -13.496 -24.007  0.00  0.00    +0.051 C 
ATOM     16  C   UNL     1      33.629 -12.127 -24.045  0.00  0.00    +0.125 C 
ATOM     17  C   UNL     1      34.044 -11.107 -25.020  0.00  0.00    +0.073 C 
BRANCH  14  21
ATOM     18  F   UNL     1      32.037 -13.540 -20.017  0.00  0.00    -0.163 F 
ATOM     19  F   UNL     1      32.474 -11.424 -20.212  0.00  0.00    -0.163 F 
ATOM     20  F   UNL     1      30.655 -12.240 -21.081  0.00  0.00    -0.163 F 
ATOM     21  C   UNL     1      31.993 -12.501 -20.917  0.00  0.00    +0.452 C 
ENDBRANCH  14  21
ENDBRANCH   3  13
BRANCH   6  22
ATOM     22  C   UNL     1      34.397 -22.139 -19.719  0.00  0.00    +0.056 C 
BRANCH  22  23
ATOM     23  C   UNL     1      33.508 -22.242 -18.482  0.00  0.00    +0.093 C 
BRANCH  23  24
ATOM     24  N   UNL     1      34.217 -22.858 -17.385  0.00  0.00    -0.321 N 
ATOM     25  H   UNL     1      35.197 -22.925 -17.444  0.00  0.00    +0.148 HD
ATOM     26  N   UNL     1      34.354 -23.917 -15.286  0.00  0.00    -0.234 NA
ATOM     27  N   UNL     1      30.230 -23.687 -14.936  0.00  0.00    -0.274 N 
ATOM     28  N   UNL     1      32.337 -24.341 -14.039  0.00  0.00    -0.233 NA
ATOM     29  N   UNL     1      27.938 -23.224 -15.411  0.00  0.00    -0.206 N 
ATOM     30  N   UNL     1      29.338 -22.590 -16.964  0.00  0.00    -0.193 NA
ATOM     31  N   UNL     1      27.139 -22.681 -16.342  0.00  0.00    -0.156 NA
ATOM     32  C   UNL     1      33.596 -23.361 -16.253  0.00  0.00    +0.110 C 
ATOM     33  C   UNL     1      32.220 -23.259 -16.186  0.00  0.00    +0.121 C 
ATOM     34  C   UNL     1      31.640 -23.771 -15.044  0.00  0.00    +0.115 C 
ATOM     35  C   UNL     1      33.671 -24.380 -14.223  0.00  0.00    +0.252 C 
ATOM     36  C   UNL     1      29.243 -23.167 -15.788  0.00  0.00    +0.207 C 
ATOM     37  C   UNL     1      28.034 -22.312 -17.260  0.00  0.00    +0.219 C 
ATOM     38  H   UNL     1      29.873 -24.069 -14.101  0.00  0.00    +0.156 HD
ATOM     39  H   UNL     1      27.621 -23.614 -14.564  0.00  0.00    +0.177 HD
ENDBRANCH  23  24
ENDBRANCH  22  23
ENDBRANCH   6  22
TORSDOF 5
ENDMDL
MODEL 8
REMARK VINA RESULT:     -11.8      2.632      4.547
REMARK  Name = 24875313
REMARK  5 active torsions:
REMARK  status: ('A' for Active; 'I' for Inactive)
REMARK    1  A    between atoms: N_3  and  C_13
REMARK    2  A    between atoms: C_6  and  C_22
REMARK    3  A    between atoms: C_14  and  C_21
REMARK    4  A    between atoms: C_22  and  C_23
REMARK    5  A    between atoms: C_23  and  N_24
REMARK                            x       y       z     vdW  Elec       q    Type
REMARK                         _______ _______ _______ _____ _____    ______ ____
ROOT
ATOM      1  S   UNL     1      35.417 -21.661 -18.635  0.00  0.00    -0.056 S 
ATOM      2  O   UNL     1      32.674 -19.081 -21.395  0.00  0.00    -0.252 OA
ATOM      3  N   UNL     1      34.741 -18.136 -21.945  0.00  0.00    -0.266 N 
ATOM      4  N   UNL     1      34.643 -19.870 -20.385  0.00  0.00    -0.248 N 
ATOM      5  N   UNL     1      32.968 -21.268 -19.363  0.00  0.00    -0.223 NA
ATOM      6  C   UNL     1      34.201 -22.638 -17.922  0.00  0.00    +0.031 C 
ATOM      7  C   UNL     1      32.968 -22.287 -18.430  0.00  0.00    +0.103 C 
ATOM      8  C   UNL     1      34.204 -20.862 -19.549  0.00  0.00    +0.166 C 
ATOM      9  C   UNL     1      33.892 -19.024 -21.265  0.00  0.00    +0.310 C 
ATOM     10  H   UNL     1      35.700 -18.209 -21.736  0.00  0.00    +0.157 HD
ATOM     11  H   UNL     1      35.615 -19.715 -20.381  0.00  0.00    +0.158 HD
ENDROOT
BRANCH   3  13
ATOM     12  O   UNL     1      33.699 -15.193 -23.765  0.00  0.00    -0.452 OA
ATOM     13  C   UNL     1      34.387 -17.148 -22.895  0.00  0.00    +0.093 C 
ATOM     14  C   UNL     1      33.948 -15.875 -22.616  0.00  0.00    +0.229 C 
ATOM     15  C   UNL     1      34.408 -17.256 -24.307  0.00  0.00    +0.051 C 
ATOM     16  C   UNL     1      33.982 -16.041 -24.788  0.00  0.00    +0.125 C 
ATOM     17  C   UNL     1      33.780 -15.511 -26.144  0.00  0.00    +0.073 C 
BRANCH  14  21
ATOM     18  F   UNL     1      34.777 -15.126 -20.500  0.00  0.00    -0.163 F 
ATOM     19  F   UNL     1      33.400 -13.810 -21.539  0.00  0.00    -0.163 F 
ATOM     20  F   UNL     1      32.668 -15.644 -20.627  0.00  0.00    -0.163 F 
ATOM     21  C   UNL     1      33.708 -15.138 -21.366  0.00  0.00    +0.452 C 
ENDBRANCH  14  21
ENDBRANCH   3  13
BRANCH   6  22
ATOM     22  C   UNL     1      34.562 -23.691 -16.903  0.00  0.00    +0.056 C 
BRANCH  22  23
ATOM     23  C   UNL     1      35.430 -23.153 -15.767  0.00  0.00    +0.093 C 
BRANCH  23  24
ATOM     24  N   UNL     1      34.761 -23.290 -14.495  0.00  0.00    -0.321 N 
ATOM     25  H   UNL     1      33.871 -22.881 -14.391  0.00  0.00    +0.148 HD
ATOM     26  N   UNL     1      34.588 -24.031 -12.267  0.00  0.00    -0.234 NA
ATOM     27  N   UNL     1      38.329 -25.788 -12.594  0.00  0.00    -0.274 N 
ATOM     28  N   UNL     1      36.394 -25.298 -11.296  0.00  0.00    -0.233 NA
ATOM     29  N   UNL     1      40.422 -26.511 -13.481  0.00  0.00    -0.206 N 
ATOM     30  N   UNL     1      39.186 -25.371 -14.875  0.00  0.00    -0.193 NA
ATOM     31  N   UNL     1      41.169 -26.474 -14.595  0.00  0.00    -0.156 NA
ATOM     32  C   UNL     1      35.300 -23.963 -13.410  0.00  0.00    +0.110 C 
ATOM     33  C   UNL     1      36.548 -24.530 -13.572  0.00  0.00    +0.121 C 
ATOM     34  C   UNL     1      37.050 -25.192 -12.470  0.00  0.00    +0.115 C 
ATOM     35  C   UNL     1      35.185 -24.703 -11.264  0.00  0.00    +0.252 C 
ATOM     36  C   UNL     1      39.246 -25.853 -13.655  0.00  0.00    +0.207 C 
ATOM     37  C   UNL     1      40.377 -25.773 -15.408  0.00  0.00    +0.219 C 
ATOM     38  H   UNL     1      38.634 -26.244 -11.777  0.00  0.00    +0.156 HD
ATOM     39  H   UNL     1      40.691 -26.958 -12.645  0.00  0.00    +0.177 HD
ENDBRANCH  23  24
ENDBRANCH  22  23
ENDBRANCH   6  22
TORSDOF 5
ENDMDL
MODEL 9
REMARK VINA RESULT:     -11.7      1.852      2.305
REMARK  Name = 24875313
REMARK  5 active torsions:
REMARK  status: ('A' for Active; 'I' for Inactive)
REMARK    1  A    between atoms: N_3  and  C_13
REMARK    2  A    between atoms: C_6  and  C_22
REMARK    3  A    between atoms: C_14  and  C_21
REMARK    4  A    between atoms: C_22  and  C_23
REMARK    5  A    between atoms: C_23  and  N_24
REMARK                            x       y       z     vdW  Elec       q    Type
REMARK                         _______ _______ _______ _____ _____    ______ ____
ROOT
ATOM      1  S   UNL     1      33.112 -19.905 -20.611  0.00  0.00    -0.056 S 
ATOM      2  O   UNL     1      35.233 -15.999 -22.040  0.00  0.00    -0.252 OA
ATOM      3  N   UNL     1      33.009 -15.326 -22.301  0.00  0.00    -0.266 N 
ATOM      4  N   UNL     1      33.479 -17.469 -21.505  0.00  0.00    -0.248 N 
ATOM      5  N   UNL     1      35.419 -18.807 -21.000  0.00  0.00    -0.223 NA
ATOM      6  C   UNL     1      34.512 -20.834 -20.265  0.00  0.00    +0.031 C 
ATOM      7  C   UNL     1      35.640 -20.087 -20.532  0.00  0.00    +0.103 C 
ATOM      8  C   UNL     1      34.124 -18.602 -21.083  0.00  0.00    +0.166 C 
ATOM      9  C   UNL     1      34.030 -16.227 -21.962  0.00  0.00    +0.310 C 
ATOM     10  H   UNL     1      32.087 -15.653 -22.185  0.00  0.00    +0.157 HD
ATOM     11  H   UNL     1      32.496 -17.514 -21.494  0.00  0.00    +0.158 HD
ENDROOT
BRANCH   3  13
ATOM     12  O   UNL     1      32.989 -11.765 -22.913  0.00  0.00    -0.452 OA
ATOM     13  C   UNL     1      33.140 -14.004 -22.790  0.00  0.00    +0.093 C 
ATOM     14  C   UNL     1      32.698 -12.861 -22.165  0.00  0.00    +0.229 C 
ATOM     15  C   UNL     1      33.739 -13.583 -24.001  0.00  0.00    +0.051 C 
ATOM     16  C   UNL     1      33.623 -12.213 -24.028  0.00  0.00    +0.125 C 
ATOM     17  C   UNL     1      34.034 -11.188 -24.997  0.00  0.00    +0.073 C 
BRANCH  14  21
ATOM     18  F   UNL     1      32.013 -13.667 -20.019  0.00  0.00    -0.163 F 
ATOM     19  F   UNL     1      32.517 -11.562 -20.164  0.00  0.00    -0.163 F 
ATOM     20  F   UNL     1      30.674 -12.300 -21.052  0.00  0.00    -0.163 F 
ATOM     21  C   UNL     1      32.003 -12.607 -20.894  0.00  0.00    +0.452 C 
ENDBRANCH  14  21
ENDBRANCH   3  13
BRANCH   6  22
ATOM     22  C   UNL     1      34.388 -22.248 -19.750  0.00  0.00    +0.056 C 
BRANCH  22  23
ATOM     23  C   UNL     1      34.029 -22.315 -18.267  0.00  0.00    +0.093 C 
BRANCH  23  24
ATOM     24  N   UNL     1      32.598 -22.384 -18.083  0.00  0.00    -0.321 N 
ATOM     25  H   UNL     1      32.019 -22.071 -18.816  0.00  0.00    +0.148 HD
ATOM     26  N   UNL     1      30.645 -22.886 -16.868  0.00  0.00    -0.234 NA
ATOM     27  N   UNL     1      32.986 -24.230 -13.722  0.00  0.00    -0.274 N 
ATOM     28  N   UNL     1      30.834 -23.822 -14.656  0.00  0.00    -0.233 NA
ATOM     29  N   UNL     1      34.883 -24.804 -12.393  0.00  0.00    -0.206 N 
ATOM     30  N   UNL     1      35.362 -23.975 -14.358  0.00  0.00    -0.193 NA
ATOM     31  N   UNL     1      36.224 -24.806 -12.410  0.00  0.00    -0.156 NA
ATOM     32  C   UNL     1      31.992 -22.866 -16.935  0.00  0.00    +0.110 C 
ATOM     33  C   UNL     1      32.817 -23.301 -15.917  0.00  0.00    +0.121 C 
ATOM     34  C   UNL     1      32.175 -23.774 -14.790  0.00  0.00    +0.115 C 
ATOM     35  C   UNL     1      30.139 -23.369 -15.718  0.00  0.00    +0.252 C 
ATOM     36  C   UNL     1      34.378 -24.308 -13.554  0.00  0.00    +0.207 C 
ATOM     37  C   UNL     1      36.464 -24.296 -13.619  0.00  0.00    +0.219 C 
ATOM     38  H   UNL     1      32.473 -24.554 -12.946  0.00  0.00    +0.156 HD
ATOM     39  H   UNL     1      34.335 -25.120 -11.639  0.00  0.00    +0.177 HD
ENDBRANCH  23  24
ENDBRANCH  22  23
ENDBRANCH   6  22
TORSDOF 5
ENDMDL
