MODEL 1
REMARK VINA RESULT:      -7.1      0.000      0.000
REMARK  Name = 6440180
REMARK  5 active torsions:
REMARK  status: ('A' for Active; 'I' for Inactive)
REMARK    1  A    between atoms: N_1  and  C_21
REMARK    2  A    between atoms: C_4  and  C_18
REMARK    3  A    between atoms: C_5  and  C_11
REMARK    4  A    between atoms: C_18  and  O_19
REMARK    5  A    between atoms: C_21  and  C_23
REMARK                            x       y       z     vdW  Elec       q    Type
REMARK                         _______ _______ _______ _____ _____    ______ ____
ROOT
ATOM      1  N   UNL     1      34.277 -14.118 -22.459  0.00  0.00    +0.393 N 
ATOM      2  C   UNL     1      33.124 -14.963 -22.826  0.00  0.00    -0.047 C 
ATOM      3  C   UNL     1      34.260 -14.167 -20.986  0.00  0.00    -0.057 C 
ATOM      4  C   UNL     1      33.537 -16.444 -22.615  0.00  0.00    +0.084 C 
ATOM      5  C   UNL     1      34.001 -16.725 -21.159  0.00  0.00    +0.029 C 
ATOM      6  C   UNL     1      34.838 -15.546 -20.596  0.00  0.00    -0.016 C 
ATOM      7  C   UNL     1      32.025 -14.542 -21.843  0.00  0.00    -0.022 C 
ATOM      8  C   UNL     1      32.780 -14.024 -20.616  0.00  0.00    -0.023 C 
ATOM      9  H   UNL     1      35.155 -14.449 -22.857  0.00  0.00    -0.079 HD
ENDROOT
BRANCH   5  11
ATOM     10  F   UNL     1      36.166 -21.892 -20.457  0.00  0.00    -0.204 F 
ATOM     11  C   UNL     1      34.585 -18.117 -20.971  0.00  0.00    -0.022 C 
ATOM     12  C   UNL     1      35.966 -18.289 -20.912  0.00  0.00    -0.002 C 
ATOM     13  C   UNL     1      33.736 -19.216 -20.857  0.00  0.00    -0.002 C 
ATOM     14  C   UNL     1      36.501 -19.565 -20.738  0.00  0.00    +0.029 C 
ATOM     15  C   UNL     1      34.271 -20.492 -20.684  0.00  0.00    +0.029 C 
ATOM     16  C   UNL     1      35.653 -20.667 -20.624  0.00  0.00    +0.140 C 
ENDBRANCH   5  11
BRANCH   4  18
ATOM     17  O   UNL     1      35.683 -16.256 -23.704  0.00  0.00    -0.250 OA
ATOM     18  C   UNL     1      34.592 -16.803 -23.629  0.00  0.00    +0.315 C 
BRANCH  18  19
ATOM     19  O   UNL     1      34.134 -17.810 -24.425  0.00  0.00    -0.444 OA
ATOM     20  C   UNL     1      34.896 -19.021 -24.382  0.00  0.00    +0.256 C 
ENDBRANCH  18  19
ENDBRANCH   4  18
BRANCH   1  21
ATOM     21  C   UNL     1      34.177 -12.758 -22.984  0.00  0.00    -0.050 C 
BRANCH  21  23
ATOM     22  I   UNL     1      33.015 -13.450 -27.192  0.00  0.00    -0.043 I 
ATOM     23  C   UNL     1      33.515 -12.736 -24.329  0.00  0.00    -0.043 C 
ATOM     24  C   UNL     1      33.915 -13.493 -25.360  0.00  0.00    +0.029 C 
ENDBRANCH  21  23
ENDBRANCH   1  21
TORSDOF 5
ENDMDL
MODEL 2
REMARK VINA RESULT:      -6.6      7.336     10.612
REMARK  Name = 6440180
REMARK  5 active torsions:
REMARK  status: ('A' for Active; 'I' for Inactive)
REMARK    1  A    between atoms: N_1  and  C_21
REMARK    2  A    between atoms: C_4  and  C_18
REMARK    3  A    between atoms: C_5  and  C_11
REMARK    4  A    between atoms: C_18  and  O_19
REMARK    5  A    between atoms: C_21  and  C_23
REMARK                            x       y       z     vdW  Elec       q    Type
REMARK                         _______ _______ _______ _____ _____    ______ ____
ROOT
ATOM      1  N   UNL     1      31.854  -8.797 -21.648  0.00  0.00    +0.393 N 
ATOM      2  C   UNL     1      33.266  -8.418 -21.445  0.00  0.00    -0.047 C 
ATOM      3  C   UNL     1      31.157  -7.501 -21.584  0.00  0.00    -0.057 C 
ATOM      4  C   UNL     1      33.781  -7.786 -22.765  0.00  0.00    +0.084 C 
ATOM      5  C   UNL     1      32.926  -6.565 -23.207  0.00  0.00    +0.029 C 
ATOM      6  C   UNL     1      31.418  -6.807 -22.940  0.00  0.00    -0.016 C 
ATOM      7  C   UNL     1      33.216  -7.386 -20.312  0.00  0.00    -0.022 C 
ATOM      8  C   UNL     1      31.818  -6.768 -20.412  0.00  0.00    -0.023 C 
ATOM      9  H   UNL     1      31.698  -9.290 -22.527  0.00  0.00    -0.079 HD
ENDROOT
BRANCH   5  11
ATOM     10  F   UNL     1      34.288  -4.620 -28.330  0.00  0.00    -0.204 F 
ATOM     11  C   UNL     1      33.293  -6.042 -24.588  0.00  0.00    -0.022 C 
ATOM     12  C   UNL     1      32.352  -5.337 -25.335  0.00  0.00    -0.002 C 
ATOM     13  C   UNL     1      34.568  -6.269 -25.100  0.00  0.00    -0.002 C 
ATOM     14  C   UNL     1      32.688  -4.856 -26.600  0.00  0.00    +0.029 C 
ATOM     15  C   UNL     1      34.905  -5.788 -26.365  0.00  0.00    +0.029 C 
ATOM     16  C   UNL     1      33.965  -5.082 -27.115  0.00  0.00    +0.140 C 
ENDBRANCH   5  11
BRANCH   4  18
ATOM     17  O   UNL     1      32.853  -9.326 -24.376  0.00  0.00    -0.250 OA
ATOM     18  C   UNL     1      33.838  -8.855 -23.825  0.00  0.00    +0.315 C 
BRANCH  18  19
ATOM     19  O   UNL     1      35.136  -9.199 -24.056  0.00  0.00    -0.444 OA
ATOM     20  C   UNL     1      35.355 -10.052 -25.184  0.00  0.00    +0.256 C 
ENDBRANCH  18  19
ENDBRANCH   4  18
BRANCH   1  21
ATOM     21  C   UNL     1      31.372  -9.752 -20.653  0.00  0.00    -0.050 C 
BRANCH  21  23
ATOM     22  I   UNL     1      32.596 -13.615 -22.418  0.00  0.00    -0.043 I 
ATOM     23  C   UNL     1      31.917 -11.126 -20.900  0.00  0.00    -0.043 C 
ATOM     24  C   UNL     1      31.861 -11.738 -22.091  0.00  0.00    +0.029 C 
ENDBRANCH  21  23
ENDBRANCH   1  21
TORSDOF 5
ENDMDL
MODEL 3
REMARK VINA RESULT:      -6.6      2.150      3.457
REMARK  Name = 6440180
REMARK  5 active torsions:
REMARK  status: ('A' for Active; 'I' for Inactive)
REMARK    1  A    between atoms: N_1  and  C_21
REMARK    2  A    between atoms: C_4  and  C_18
REMARK    3  A    between atoms: C_5  and  C_11
REMARK    4  A    between atoms: C_18  and  O_19
REMARK    5  A    between atoms: C_21  and  C_23
REMARK                            x       y       z     vdW  Elec       q    Type
REMARK                         _______ _______ _______ _____ _____    ______ ____
ROOT
ATOM      1  N   UNL     1      33.660 -15.858 -23.704  0.00  0.00    +0.393 N 
ATOM      2  C   UNL     1      35.074 -15.738 -23.296  0.00  0.00    -0.047 C 
ATOM      3  C   UNL     1      33.661 -17.078 -24.529  0.00  0.00    -0.057 C 
ATOM      4  C   UNL     1      35.338 -16.794 -22.190  0.00  0.00    +0.084 C 
ATOM      5  C   UNL     1      35.006 -18.238 -22.662  0.00  0.00    +0.029 C 
ATOM      6  C   UNL     1      33.728 -18.264 -23.541  0.00  0.00    -0.016 C 
ATOM      7  C   UNL     1      35.859 -16.057 -24.575  0.00  0.00    -0.022 C 
ATOM      8  C   UNL     1      34.925 -16.957 -25.388  0.00  0.00    -0.023 C 
ATOM      9  H   UNL     1      33.022 -15.915 -22.911  0.00  0.00    -0.079 HD
ENDROOT
BRANCH   5  11
ATOM     10  F   UNL     1      35.277 -22.063 -18.517  0.00  0.00    -0.204 F 
ATOM     11  C   UNL     1      35.079 -19.267 -21.544  0.00  0.00    -0.022 C 
ATOM     12  C   UNL     1      33.913 -19.876 -21.084  0.00  0.00    -0.002 C 
ATOM     13  C   UNL     1      36.311 -19.600 -20.986  0.00  0.00    -0.002 C 
ATOM     14  C   UNL     1      33.980 -20.821 -20.060  0.00  0.00    +0.029 C 
ATOM     15  C   UNL     1      36.378 -20.545 -19.962  0.00  0.00    +0.029 C 
ATOM     16  C   UNL     1      35.212 -21.155 -19.500  0.00  0.00    +0.140 C 
ENDBRANCH   5  11
BRANCH   4  18
ATOM     17  O   UNL     1      35.088 -16.062 -19.903  0.00  0.00    -0.250 OA
ATOM     18  C   UNL     1      34.567 -16.406 -20.955  0.00  0.00    +0.315 C 
BRANCH  18  19
ATOM     19  O   UNL     1      33.231 -16.502 -21.203  0.00  0.00    -0.444 OA
ATOM     20  C   UNL     1      32.399 -15.627 -20.435  0.00  0.00    +0.256 C 
ENDBRANCH  18  19
ENDBRANCH   4  18
BRANCH   1  21
ATOM     21  C   UNL     1      33.175 -14.684 -24.425  0.00  0.00    -0.050 C 
BRANCH  21  23
ATOM     22  I   UNL     1      31.548 -11.590 -21.720  0.00  0.00    -0.043 I 
ATOM     23  C   UNL     1      32.300 -13.829 -23.558  0.00  0.00    -0.043 C 
ATOM     24  C   UNL     1      32.743 -12.745 -22.906  0.00  0.00    +0.029 C 
ENDBRANCH  21  23
ENDBRANCH   1  21
TORSDOF 5
ENDMDL
MODEL 4
REMARK VINA RESULT:      -6.6      4.224      5.856
REMARK  Name = 6440180
REMARK  5 active torsions:
REMARK  status: ('A' for Active; 'I' for Inactive)
REMARK    1  A    between atoms: N_1  and  C_21
REMARK    2  A    between atoms: C_4  and  C_18
REMARK    3  A    between atoms: C_5  and  C_11
REMARK    4  A    between atoms: C_18  and  O_19
REMARK    5  A    between atoms: C_21  and  C_23
REMARK                            x       y       z     vdW  Elec       q    Type
REMARK                         _______ _______ _______ _____ _____    ______ ____
ROOT
ATOM      1  N   UNL     1      32.497 -10.086 -21.528  0.00  0.00    +0.393 N 
ATOM      2  C   UNL     1      31.740 -10.234 -22.787  0.00  0.00    -0.047 C 
ATOM      3  C   UNL     1      31.994 -11.204 -20.711  0.00  0.00    -0.057 C 
ATOM      4  C   UNL     1      32.356 -11.422 -23.572  0.00  0.00    +0.084 C 
ATOM      5  C   UNL     1      32.348 -12.741 -22.749  0.00  0.00    +0.029 C 
ATOM      6  C   UNL     1      32.680 -12.476 -21.258  0.00  0.00    -0.016 C 
ATOM      7  C   UNL     1      30.310 -10.547 -22.326  0.00  0.00    -0.022 C 
ATOM      8  C   UNL     1      30.481 -11.202 -20.953  0.00  0.00    -0.023 C 
ATOM      9  H   UNL     1      33.507 -10.117 -21.667  0.00  0.00    -0.079 HD
ENDROOT
BRANCH   5  11
ATOM     10  F   UNL     1      35.172 -16.948 -25.240  0.00  0.00    -0.204 F 
ATOM     11  C   UNL     1      33.109 -13.873 -23.421  0.00  0.00    -0.022 C 
ATOM     12  C   UNL     1      34.152 -14.505 -22.746  0.00  0.00    -0.002 C 
ATOM     13  C   UNL     1      32.761 -14.277 -24.708  0.00  0.00    -0.002 C 
ATOM     14  C   UNL     1      34.849 -15.544 -23.360  0.00  0.00    +0.029 C 
ATOM     15  C   UNL     1      33.459 -15.316 -25.323  0.00  0.00    +0.029 C 
ATOM     16  C   UNL     1      34.503 -15.950 -24.649  0.00  0.00    +0.140 C 
ENDBRANCH   5  11
BRANCH   4  18
ATOM     17  O   UNL     1      34.564 -10.485 -23.308  0.00  0.00    -0.250 OA
ATOM     18  C   UNL     1      33.741 -11.039 -24.023  0.00  0.00    +0.315 C 
BRANCH  18  19
ATOM     19  O   UNL     1      33.914 -11.405 -25.324  0.00  0.00    -0.444 OA
ATOM     20  C   UNL     1      35.040 -10.817 -25.983  0.00  0.00    +0.256 C 
ENDBRANCH  18  19
ENDBRANCH   4  18
BRANCH   1  21
ATOM     21  C   UNL     1      32.300  -8.784 -20.895  0.00  0.00    -0.050 C 
BRANCH  21  23
ATOM     22  I   UNL     1      31.434  -5.248 -23.402  0.00  0.00    -0.043 I 
ATOM     23  C   UNL     1      32.344  -7.672 -21.898  0.00  0.00    -0.043 C 
ATOM     24  C   UNL     1      31.373  -6.757 -22.026  0.00  0.00    +0.029 C 
ENDBRANCH  21  23
ENDBRANCH   1  21
TORSDOF 5
ENDMDL
MODEL 5
REMARK VINA RESULT:      -6.6      5.374      7.615
REMARK  Name = 6440180
REMARK  5 active torsions:
REMARK  status: ('A' for Active; 'I' for Inactive)
REMARK    1  A    between atoms: N_1  and  C_21
REMARK    2  A    between atoms: C_4  and  C_18
REMARK    3  A    between atoms: C_5  and  C_11
REMARK    4  A    between atoms: C_18  and  O_19
REMARK    5  A    between atoms: C_21  and  C_23
REMARK                            x       y       z     vdW  Elec       q    Type
REMARK                         _______ _______ _______ _____ _____    ______ ____
ROOT
ATOM      1  N   UNL     1      31.675  -7.989 -22.812  0.00  0.00    +0.393 N 
ATOM      2  C   UNL     1      32.304  -8.622 -21.636  0.00  0.00    -0.047 C 
ATOM      3  C   UNL     1      32.791  -7.894 -23.768  0.00  0.00    -0.057 C 
ATOM      4  C   UNL     1      32.496 -10.128 -21.956  0.00  0.00    +0.084 C 
ATOM      5  C   UNL     1      33.341 -10.355 -23.241  0.00  0.00    +0.029 C 
ATOM      6  C   UNL     1      32.991  -9.316 -24.338  0.00  0.00    -0.016 C 
ATOM      7  C   UNL     1      33.652  -7.901 -21.502  0.00  0.00    -0.022 C 
ATOM      8  C   UNL     1      33.981  -7.428 -22.921  0.00  0.00    -0.023 C 
ATOM      9  H   UNL     1      30.885  -8.522 -23.174  0.00  0.00    -0.079 HD
ENDROOT
BRANCH   5  11
ATOM     10  F   UNL     1      33.515 -15.759 -24.869  0.00  0.00    -0.204 F 
ATOM     11  C   UNL     1      33.389 -11.811 -23.680  0.00  0.00    -0.022 C 
ATOM     12  C   UNL     1      33.537 -12.818 -22.728  0.00  0.00    -0.002 C 
ATOM     13  C   UNL     1      33.283 -12.132 -25.031  0.00  0.00    -0.002 C 
ATOM     14  C   UNL     1      33.580 -14.153 -23.130  0.00  0.00    +0.029 C 
ATOM     15  C   UNL     1      33.326 -13.467 -25.433  0.00  0.00    +0.029 C 
ATOM     16  C   UNL     1      33.474 -14.477 -24.483  0.00  0.00    +0.140 C 
ENDBRANCH   5  11
BRANCH   4  18
ATOM     17  O   UNL     1      30.268 -10.447 -22.830  0.00  0.00    -0.250 OA
ATOM     18  C   UNL     1      31.142 -10.782 -22.042  0.00  0.00    +0.315 C 
BRANCH  18  19
ATOM     19  O   UNL     1      31.058 -11.780 -21.118  0.00  0.00    -0.444 OA
ATOM     20  C   UNL     1      31.531 -11.446 -19.808  0.00  0.00    +0.256 C 
ENDBRANCH  18  19
ENDBRANCH   4  18
BRANCH   1  21
ATOM     21  C   UNL     1      31.074  -6.692 -22.507  0.00  0.00    -0.050 C 
BRANCH  21  23
ATOM     22  I   UNL     1      31.446  -3.228 -25.226  0.00  0.00    -0.043 I 
ATOM     23  C   UNL     1      31.110  -5.776 -23.693  0.00  0.00    -0.043 C 
ATOM     24  C   UNL     1      31.408  -4.473 -23.608  0.00  0.00    +0.029 C 
ENDBRANCH  21  23
ENDBRANCH   1  21
TORSDOF 5
ENDMDL
MODEL 6
REMARK VINA RESULT:      -6.6      1.924      2.361
REMARK  Name = 6440180
REMARK  5 active torsions:
REMARK  status: ('A' for Active; 'I' for Inactive)
REMARK    1  A    between atoms: N_1  and  C_21
REMARK    2  A    between atoms: C_4  and  C_18
REMARK    3  A    between atoms: C_5  and  C_11
REMARK    4  A    between atoms: C_18  and  O_19
REMARK    5  A    between atoms: C_21  and  C_23
REMARK                            x       y       z     vdW  Elec       q    Type
REMARK                         _______ _______ _______ _____ _____    ______ ____
ROOT
ATOM      1  N   UNL     1      34.184 -13.494 -24.069  0.00  0.00    +0.393 N 
ATOM      2  C   UNL     1      33.035 -14.386 -24.321  0.00  0.00    -0.047 C 
ATOM      3  C   UNL     1      34.092 -13.246 -22.620  0.00  0.00    -0.057 C 
ATOM      4  C   UNL     1      33.407 -15.797 -23.796  0.00  0.00    +0.084 C 
ATOM      5  C   UNL     1      33.792 -15.784 -22.290  0.00  0.00    +0.029 C 
ATOM      6  C   UNL     1      34.622 -14.523 -21.932  0.00  0.00    -0.016 C 
ATOM      7  C   UNL     1      31.895 -13.765 -23.502  0.00  0.00    -0.022 C 
ATOM      8  C   UNL     1      32.598 -13.018 -22.366  0.00  0.00    -0.023 C 
ATOM      9  H   UNL     1      35.074 -13.907 -24.347  0.00  0.00    -0.079 HD
ENDROOT
BRANCH   5  11
ATOM     10  F   UNL     1      35.817 -20.727 -20.462  0.00  0.00    -0.204 F 
ATOM     11  C   UNL     1      34.338 -17.115 -21.796  0.00  0.00    -0.022 C 
ATOM     12  C   UNL     1      33.459 -18.119 -21.396  0.00  0.00    -0.002 C 
ATOM     13  C   UNL     1      35.714 -17.326 -21.748  0.00  0.00    -0.002 C 
ATOM     14  C   UNL     1      33.959 -19.341 -20.944  0.00  0.00    +0.029 C 
ATOM     15  C   UNL     1      36.214 -18.547 -21.297  0.00  0.00    +0.029 C 
ATOM     16  C   UNL     1      35.337 -19.555 -20.895  0.00  0.00    +0.140 C 
ENDBRANCH   5  11
BRANCH   4  18
ATOM     17  O   UNL     1      35.653 -15.943 -24.668  0.00  0.00    -0.250 OA
ATOM     18  C   UNL     1      34.504 -16.362 -24.660  0.00  0.00    +0.315 C 
BRANCH  18  19
ATOM     19  O   UNL     1      34.011 -17.389 -25.409  0.00  0.00    -0.444 OA
ATOM     20  C   UNL     1      34.378 -18.701 -24.969  0.00  0.00    +0.256 C 
ENDBRANCH  18  19
ENDBRANCH   4  18
BRANCH   1  21
ATOM     21  C   UNL     1      34.137 -12.267 -24.861  0.00  0.00    -0.050 C 
BRANCH  21  23
ATOM     22  I   UNL     1      34.204  -8.140 -23.280  0.00  0.00    -0.043 I 
ATOM     23  C   UNL     1      34.177 -11.048 -23.991  0.00  0.00    -0.043 C 
ATOM     24  C   UNL     1      34.140  -9.798 -24.472  0.00  0.00    +0.029 C 
ENDBRANCH  21  23
ENDBRANCH   1  21
TORSDOF 5
ENDMDL
MODEL 7
REMARK VINA RESULT:      -6.5      6.641      9.988
REMARK  Name = 6440180
REMARK  5 active torsions:
REMARK  status: ('A' for Active; 'I' for Inactive)
REMARK    1  A    between atoms: N_1  and  C_21
REMARK    2  A    between atoms: C_4  and  C_18
REMARK    3  A    between atoms: C_5  and  C_11
REMARK    4  A    between atoms: C_18  and  O_19
REMARK    5  A    between atoms: C_21  and  C_23
REMARK                            x       y       z     vdW  Elec       q    Type
REMARK                         _______ _______ _______ _____ _____    ______ ____
ROOT
ATOM      1  N   UNL     1      32.136 -11.302 -22.314  0.00  0.00    +0.393 N 
ATOM      2  C   UNL     1      32.785 -10.429 -21.316  0.00  0.00    -0.047 C 
ATOM      3  C   UNL     1      30.706 -10.997 -22.133  0.00  0.00    -0.057 C 
ATOM      4  C   UNL     1      32.761  -8.980 -21.870  0.00  0.00    +0.084 C 
ATOM      5  C   UNL     1      31.320  -8.495 -22.193  0.00  0.00    +0.029 C 
ATOM      6  C   UNL     1      30.469  -9.632 -22.817  0.00  0.00    -0.016 C 
ATOM      7  C   UNL     1      31.902 -10.567 -20.069  0.00  0.00    -0.022 C 
ATOM      8  C   UNL     1      30.518 -10.933 -20.614  0.00  0.00    -0.023 C 
ATOM      9  H   UNL     1      32.463 -11.130 -23.264  0.00  0.00    -0.079 HD
ENDROOT
BRANCH   5  11
ATOM     10  F   UNL     1      31.176  -3.511 -24.844  0.00  0.00    -0.204 F 
ATOM     11  C   UNL     1      31.283  -7.152 -22.907  0.00  0.00    -0.022 C 
ATOM     12  C   UNL     1      31.005  -7.100 -24.271  0.00  0.00    -0.002 C 
ATOM     13  C   UNL     1      31.525  -5.980 -22.195  0.00  0.00    -0.002 C 
ATOM     14  C   UNL     1      30.969  -5.869 -24.926  0.00  0.00    +0.029 C 
ATOM     15  C   UNL     1      31.489  -4.749 -22.850  0.00  0.00    +0.029 C 
ATOM     16  C   UNL     1      31.211  -4.694 -24.215  0.00  0.00    +0.140 C 
ENDBRANCH   5  11
BRANCH   4  18
ATOM     17  O   UNL     1      33.648  -9.701 -23.996  0.00  0.00    -0.250 OA
ATOM     18  C   UNL     1      33.670  -8.903 -23.068  0.00  0.00    +0.315 C 
BRANCH  18  19
ATOM     19  O   UNL     1      34.497  -7.827 -22.946  0.00  0.00    -0.444 OA
ATOM     20  C   UNL     1      34.687  -7.059 -24.138  0.00  0.00    +0.256 C 
ENDBRANCH  18  19
ENDBRANCH   4  18
BRANCH   1  21
ATOM     21  C   UNL     1      32.445 -12.717 -22.119  0.00  0.00    -0.050 C 
BRANCH  21  23
ATOM     22  I   UNL     1      33.094 -14.468 -26.125  0.00  0.00    -0.043 I 
ATOM     23  C   UNL     1      32.336 -13.486 -23.401  0.00  0.00    -0.043 C 
ATOM     24  C   UNL     1      33.253 -13.425 -24.376  0.00  0.00    +0.029 C 
ENDBRANCH  21  23
ENDBRANCH   1  21
TORSDOF 5
ENDMDL
MODEL 8
REMARK VINA RESULT:      -6.5      8.891     11.271
REMARK  Name = 6440180
REMARK  5 active torsions:
REMARK  status: ('A' for Active; 'I' for Inactive)
REMARK    1  A    between atoms: N_1  and  C_21
REMARK    2  A    between atoms: C_4  and  C_18
REMARK    3  A    between atoms: C_5  and  C_11
REMARK    4  A    between atoms: C_18  and  O_19
REMARK    5  A    between atoms: C_21  and  C_23
REMARK                            x       y       z     vdW  Elec       q    Type
REMARK                         _______ _______ _______ _____ _____    ______ ____
ROOT
ATOM      1  N   UNL     1      32.815 -22.944 -14.162  0.00  0.00    +0.393 N 
ATOM      2  C   UNL     1      33.020 -23.829 -15.326  0.00  0.00    -0.047 C 
ATOM      3  C   UNL     1      32.857 -23.883 -13.028  0.00  0.00    -0.057 C 
ATOM      4  C   UNL     1      34.522 -24.214 -15.369  0.00  0.00    +0.084 C 
ATOM      5  C   UNL     1      34.995 -24.893 -14.053  0.00  0.00    +0.029 C 
ATOM      6  C   UNL     1      34.348 -24.226 -12.810  0.00  0.00    -0.016 C 
ATOM      7  C   UNL     1      32.137 -25.048 -15.027  0.00  0.00    -0.022 C 
ATOM      8  C   UNL     1      32.039 -25.090 -13.500  0.00  0.00    -0.023 C 
ATOM      9  H   UNL     1      33.517 -22.208 -14.096  0.00  0.00    -0.079 HD
ENDROOT
BRANCH   5  11
ATOM     10  F   UNL     1      40.577 -25.711 -13.837  0.00  0.00    -0.204 F 
ATOM     11  C   UNL     1      36.499 -25.112 -13.995  0.00  0.00    -0.022 C 
ATOM     12  C   UNL     1      37.242 -24.558 -12.955  0.00  0.00    -0.002 C 
ATOM     13  C   UNL     1      37.128 -25.868 -14.982  0.00  0.00    -0.002 C 
ATOM     14  C   UNL     1      38.621 -24.760 -12.901  0.00  0.00    +0.029 C 
ATOM     15  C   UNL     1      38.507 -26.070 -14.928  0.00  0.00    +0.029 C 
ATOM     16  C   UNL     1      39.253 -25.516 -13.888  0.00  0.00    +0.140 C 
ENDBRANCH   5  11
BRANCH   4  18
ATOM     17  O   UNL     1      35.645 -22.134 -14.878  0.00  0.00    -0.250 OA
ATOM     18  C   UNL     1      35.328 -22.985 -15.698  0.00  0.00    +0.315 C 
BRANCH  18  19
ATOM     19  O   UNL     1      35.635 -22.983 -17.025  0.00  0.00    -0.444 OA
ATOM     20  C   UNL     1      36.580 -21.990 -17.437  0.00  0.00    +0.256 C 
ENDBRANCH  18  19
ENDBRANCH   4  18
BRANCH   1  21
ATOM     21  C   UNL     1      31.564 -22.192 -14.232  0.00  0.00    -0.050 C 
BRANCH  21  23
ATOM     22  I   UNL     1      28.216 -23.322 -16.887  0.00  0.00    -0.043 I 
ATOM     23  C   UNL     1      30.711 -22.648 -15.377  0.00  0.00    -0.043 C 
ATOM     24  C   UNL     1      29.373 -22.691 -15.327  0.00  0.00    +0.029 C 
ENDBRANCH  21  23
ENDBRANCH   1  21
TORSDOF 5
ENDMDL
MODEL 9
REMARK VINA RESULT:      -6.4      4.086      6.806
REMARK  Name = 6440180
REMARK  5 active torsions:
REMARK  status: ('A' for Active; 'I' for Inactive)
REMARK    1  A    between atoms: N_1  and  C_21
REMARK    2  A    between atoms: C_4  and  C_18
REMARK    3  A    between atoms: C_5  and  C_11
REMARK    4  A    between atoms: C_18  and  O_19
REMARK    5  A    between atoms: C_21  and  C_23
REMARK                            x       y       z     vdW  Elec       q    Type
REMARK                         _______ _______ _______ _____ _____    ______ ____
ROOT
ATOM      1  N   UNL     1      35.596 -17.638 -21.842  0.00  0.00    +0.393 N 
ATOM      2  C   UNL     1      34.134 -17.765 -21.687  0.00  0.00    -0.047 C 
ATOM      3  C   UNL     1      35.752 -17.422 -23.292  0.00  0.00    -0.057 C 
ATOM      4  C   UNL     1      33.521 -16.344 -21.801  0.00  0.00    +0.084 C 
ATOM      5  C   UNL     1      33.888 -15.650 -23.143  0.00  0.00    +0.029 C 
ATOM      6  C   UNL     1      35.353 -15.953 -23.552  0.00  0.00    -0.016 C 
ATOM      7  C   UNL     1      33.710 -18.655 -22.862  0.00  0.00    -0.022 C 
ATOM      8  C   UNL     1      34.779 -18.418 -23.932  0.00  0.00    -0.023 C 
ATOM      9  H   UNL     1      35.991 -16.881 -21.283  0.00  0.00    -0.079 HD
ENDROOT
BRANCH   5  11
ATOM     10  F   UNL     1      32.290 -10.239 -23.366  0.00  0.00    -0.204 F 
ATOM     11  C   UNL     1      33.457 -14.193 -23.204  0.00  0.00    -0.022 C 
ATOM     12  C   UNL     1      32.373 -13.757 -22.445  0.00  0.00    -0.002 C 
ATOM     13  C   UNL     1      34.148 -13.298 -24.018  0.00  0.00    -0.002 C 
ATOM     14  C   UNL     1      31.978 -12.420 -22.500  0.00  0.00    +0.029 C 
ATOM     15  C   UNL     1      33.754 -11.961 -24.073  0.00  0.00    +0.029 C 
ATOM     16  C   UNL     1      32.669 -11.522 -23.314  0.00  0.00    +0.140 C 
ENDBRANCH   5  11
BRANCH   4  18
ATOM     17  O   UNL     1      35.104 -15.215 -20.371  0.00  0.00    -0.250 OA
ATOM     18  C   UNL     1      33.947 -15.534 -20.605  0.00  0.00    +0.315 C 
BRANCH  18  19
ATOM     19  O   UNL     1      32.854 -15.227 -19.851  0.00  0.00    -0.444 OA
ATOM     20  C   UNL     1      31.662 -15.949 -20.173  0.00  0.00    +0.256 C 
ENDBRANCH  18  19
ENDBRANCH   4  18
BRANCH   1  21
ATOM     21  C   UNL     1      36.324 -18.808 -21.359  0.00  0.00    -0.050 C 
BRANCH  21  23
ATOM     22  I   UNL     1      34.597 -22.192 -19.101  0.00  0.00    -0.043 I 
ATOM     23  C   UNL     1      35.431 -19.732 -20.587  0.00  0.00    -0.043 C 
ATOM     24  C   UNL     1      35.822 -20.935 -20.144  0.00  0.00    +0.029 C 
ENDBRANCH  21  23
ENDBRANCH   1  21
TORSDOF 5
ENDMDL
