MODEL 1
REMARK VINA RESULT:      -7.7      0.000      0.000
REMARK  Name = 2162
REMARK  11 active torsions:
REMARK  status: ('A' for Active; 'I' for Inactive)
REMARK    1  A    between atoms: C_2  and  C_10
REMARK    2  A    between atoms: C_3  and  C_17
REMARK    3  A    between atoms: C_4  and  C_22
REMARK    4  A    between atoms: C_5  and  C_25
REMARK    5  A    between atoms: C_17  and  O_18
REMARK    6  A    between atoms: O_18  and  C_19
REMARK    7  A    between atoms: C_22  and  O_23
REMARK    8  A    between atoms: C_25  and  O_26
REMARK    9  A    between atoms: O_26  and  C_27
REMARK   10  A    between atoms: C_27  and  C_28
REMARK   11  A    between atoms: C_28  and  N_29
REMARK                            x       y       z     vdW  Elec       q    Type
REMARK                         _______ _______ _______ _____ _____    ______ ____
ROOT
ATOM      1  N   UNL     1      33.909 -22.902 -17.319  0.00  0.00    -0.332 N 
ATOM      2  C   UNL     1      35.190 -23.246 -14.817  0.00  0.00    +0.012 C 
ATOM      3  C   UNL     1      35.895 -22.675 -16.052  0.00  0.00    +0.074 C 
ATOM      4  C   UNL     1      33.688 -23.455 -15.029  0.00  0.00    +0.085 C 
ATOM      5  C   UNL     1      35.244 -22.543 -17.231  0.00  0.00    +0.128 C 
ATOM      6  C   UNL     1      33.125 -23.306 -16.250  0.00  0.00    +0.028 C 
ATOM      7  C   UNL     1      31.675 -23.537 -16.577  0.00  0.00    +0.047 C 
ATOM      8  H   UNL     1      33.485 -22.868 -18.207  0.00  0.00    +0.147 HD
ENDROOT
BRANCH   2  10
ATOM      9 CL   UNL     1      36.309 -23.474 -11.949  0.00  0.00    -0.082 Cl
ATOM     10  C   UNL     1      35.836 -24.541 -14.412  0.00  0.00    +0.011 C 
ATOM     11  C   UNL     1      36.366 -24.726 -13.135  0.00  0.00    +0.058 C 
ATOM     12  C   UNL     1      35.897 -25.572 -15.349  0.00  0.00    +0.001 C 
ATOM     13  C   UNL     1      36.957 -25.943 -12.796  0.00  0.00    +0.011 C 
ATOM     14  C   UNL     1      36.488 -26.789 -15.010  0.00  0.00    +0.000 C 
ATOM     15  C   UNL     1      37.018 -26.974 -13.733  0.00  0.00    +0.001 C 
ENDBRANCH   2  10
BRANCH   3  17
ATOM     16  O   UNL     1      37.705 -21.167 -16.302  0.00  0.00    -0.245 OA
ATOM     17  C   UNL     1      37.284 -22.224 -15.870  0.00  0.00    +0.339 C 
BRANCH  17  18
ATOM     18  O   UNL     1      37.952 -23.169 -15.166  0.00  0.00    -0.446 OA
BRANCH  18  19
ATOM     19  C   UNL     1      39.015 -23.815 -15.874  0.00  0.00    +0.209 C 
ATOM     20  C   UNL     1      39.666 -24.833 -14.963  0.00  0.00    +0.051 C 
ENDBRANCH  18  19
ENDBRANCH  17  18
ENDBRANCH   3  17
BRANCH   4  22
ATOM     21  O   UNL     1      32.749 -23.012 -12.898  0.00  0.00    -0.245 OA
ATOM     22  C   UNL     1      32.891 -23.777 -13.834  0.00  0.00    +0.342 C 
BRANCH  22  23
ATOM     23  O   UNL     1      32.381 -25.024 -13.983  0.00  0.00    -0.441 OA
ATOM     24  C   UNL     1      31.031 -25.184 -13.537  0.00  0.00    +0.256 C 
ENDBRANCH  22  23
ENDBRANCH   4  22
BRANCH   5  25
ATOM     25  C   UNL     1      35.850 -22.031 -18.509  0.00  0.00    +0.166 C 
BRANCH  25  26
ATOM     26  O   UNL     1      34.836 -21.862 -19.479  0.00  0.00    -0.354 OA
BRANCH  26  27
ATOM     27  C   UNL     1      35.053 -20.702 -20.277  0.00  0.00    +0.119 C 
BRANCH  27  28
ATOM     28  C   UNL     1      33.712 -20.046 -20.561  0.00  0.00    -0.054 C 
BRANCH  28  29
ATOM     29  N   UNL     1      32.657 -20.670 -19.777  0.00  0.00    +0.382 N 
ATOM     30  H   UNL     1      31.777 -20.618 -20.289  0.00  0.00    -0.089 HD
ATOM     31  H   UNL     1      32.561 -20.182 -18.887  0.00  0.00    -0.089 HD
ATOM     32  H   UNL     1      32.894 -21.647 -19.606  0.00  0.00    -0.089 HD
ENDBRANCH  28  29
ENDBRANCH  27  28
ENDBRANCH  26  27
ENDBRANCH  25  26
ENDBRANCH   5  25
TORSDOF 11
ENDMDL
MODEL 2
REMARK VINA RESULT:      -6.9     10.240     14.694
REMARK  Name = 2162
REMARK  11 active torsions:
REMARK  status: ('A' for Active; 'I' for Inactive)
REMARK    1  A    between atoms: C_2  and  C_10
REMARK    2  A    between atoms: C_3  and  C_17
REMARK    3  A    between atoms: C_4  and  C_22
REMARK    4  A    between atoms: C_5  and  C_25
REMARK    5  A    between atoms: C_17  and  O_18
REMARK    6  A    between atoms: O_18  and  C_19
REMARK    7  A    between atoms: C_22  and  O_23
REMARK    8  A    between atoms: C_25  and  O_26
REMARK    9  A    between atoms: O_26  and  C_27
REMARK   10  A    between atoms: C_27  and  C_28
REMARK   11  A    between atoms: C_28  and  N_29
REMARK                            x       y       z     vdW  Elec       q    Type
REMARK                         _______ _______ _______ _____ _____    ______ ____
ROOT
ATOM      1  N   UNL     1      31.647 -13.019 -21.347  0.00  0.00    -0.332 N 
ATOM      2  C   UNL     1      33.646 -12.560 -23.300  0.00  0.00    +0.012 C 
ATOM      3  C   UNL     1      32.646 -11.488 -22.850  0.00  0.00    +0.074 C 
ATOM      4  C   UNL     1      33.558 -13.845 -22.471  0.00  0.00    +0.085 C 
ATOM      5  C   UNL     1      31.700 -11.760 -21.923  0.00  0.00    +0.128 C 
ATOM      6  C   UNL     1      32.567 -14.030 -21.569  0.00  0.00    +0.028 C 
ATOM      7  C   UNL     1      32.359 -15.271 -20.744  0.00  0.00    +0.047 C 
ATOM      8  H   UNL     1      30.899 -13.210 -20.734  0.00  0.00    +0.147 HD
ENDROOT
BRANCH   2  10
ATOM      9 CL   UNL     1      35.129 -10.828 -25.380  0.00  0.00    -0.082 Cl
ATOM     10  C   UNL     1      33.440 -12.873 -24.755  0.00  0.00    +0.011 C 
ATOM     11  C   UNL     1      34.073 -12.139 -25.758  0.00  0.00    +0.058 C 
ATOM     12  C   UNL     1      32.592 -13.928 -25.092  0.00  0.00    +0.001 C 
ATOM     13  C   UNL     1      33.858 -12.460 -27.097  0.00  0.00    +0.011 C 
ATOM     14  C   UNL     1      32.377 -14.249 -26.431  0.00  0.00    +0.000 C 
ATOM     15  C   UNL     1      33.010 -13.515 -27.434  0.00  0.00    +0.001 C 
ENDBRANCH   2  10
BRANCH   3  17
ATOM     16  O   UNL     1      32.134  -9.723 -24.346  0.00  0.00    -0.245 OA
ATOM     17  C   UNL     1      32.814 -10.145 -23.428  0.00  0.00    +0.339 C 
BRANCH  17  18
ATOM     18  O   UNL     1      33.816  -9.517 -22.769  0.00  0.00    -0.446 OA
BRANCH  18  19
ATOM     19  C   UNL     1      33.786  -8.088 -22.838  0.00  0.00    +0.209 C 
ATOM     20  C   UNL     1      34.962  -7.609 -23.662  0.00  0.00    +0.051 C 
ENDBRANCH  18  19
ENDBRANCH  17  18
ENDBRANCH   3  17
BRANCH   4  22
ATOM     21  O   UNL     1      35.068 -15.130 -23.770  0.00  0.00    -0.245 OA
ATOM     22  C   UNL     1      34.628 -14.836 -22.674  0.00  0.00    +0.342 C 
BRANCH  22  23
ATOM     23  O   UNL     1      34.997 -15.321 -21.464  0.00  0.00    -0.441 OA
ATOM     24  C   UNL     1      35.158 -16.741 -21.404  0.00  0.00    +0.256 C 
ENDBRANCH  22  23
ENDBRANCH   4  22
BRANCH   5  25
ATOM     25  C   UNL     1      30.650 -10.795 -21.440  0.00  0.00    +0.166 C 
BRANCH  25  26
ATOM     26  O   UNL     1      30.727 -10.679 -20.033  0.00  0.00    -0.354 OA
BRANCH  26  27
ATOM     27  C   UNL     1      31.894  -9.974 -19.622  0.00  0.00    +0.119 C 
BRANCH  27  28
ATOM     28  C   UNL     1      31.744  -8.512 -20.010  0.00  0.00    -0.054 C 
BRANCH  28  29
ATOM     29  N   UNL     1      32.935  -7.759 -19.649  0.00  0.00    +0.382 N 
ATOM     30  H   UNL     1      33.535  -8.335 -19.058  0.00  0.00    -0.089 HD
ATOM     31  H   UNL     1      32.665  -6.918 -19.140  0.00  0.00    -0.089 HD
ATOM     32  H   UNL     1      33.442  -7.498 -20.495  0.00  0.00    -0.089 HD
ENDBRANCH  28  29
ENDBRANCH  27  28
ENDBRANCH  26  27
ENDBRANCH  25  26
ENDBRANCH   5  25
TORSDOF 11
ENDMDL
MODEL 3
REMARK VINA RESULT:      -6.2      1.474      2.423
REMARK  Name = 2162
REMARK  11 active torsions:
REMARK  status: ('A' for Active; 'I' for Inactive)
REMARK    1  A    between atoms: C_2  and  C_10
REMARK    2  A    between atoms: C_3  and  C_17
REMARK    3  A    between atoms: C_4  and  C_22
REMARK    4  A    between atoms: C_5  and  C_25
REMARK    5  A    between atoms: C_17  and  O_18
REMARK    6  A    between atoms: O_18  and  C_19
REMARK    7  A    between atoms: C_22  and  O_23
REMARK    8  A    between atoms: C_25  and  O_26
REMARK    9  A    between atoms: O_26  and  C_27
REMARK   10  A    between atoms: C_27  and  C_28
REMARK   11  A    between atoms: C_28  and  N_29
REMARK                            x       y       z     vdW  Elec       q    Type
REMARK                         _______ _______ _______ _____ _____    ______ ____
ROOT
ATOM      1  N   UNL     1      32.813 -23.631 -16.485  0.00  0.00    -0.332 N 
ATOM      2  C   UNL     1      35.123 -23.244 -14.893  0.00  0.00    +0.012 C 
ATOM      3  C   UNL     1      35.059 -22.893 -16.383  0.00  0.00    +0.074 C 
ATOM      4  C   UNL     1      33.767 -23.669 -14.320  0.00  0.00    +0.085 C 
ATOM      5  C   UNL     1      33.936 -23.109 -17.106  0.00  0.00    +0.128 C 
ATOM      6  C   UNL     1      32.698 -23.868 -15.124  0.00  0.00    +0.028 C 
ATOM      7  C   UNL     1      31.341 -24.334 -14.673  0.00  0.00    +0.047 C 
ATOM      8  H   UNL     1      32.038 -23.850 -17.052  0.00  0.00    +0.147 HD
ENDROOT
BRANCH   2  10
ATOM      9 CL   UNL     1      37.467 -22.658 -12.973  0.00  0.00    -0.082 Cl
ATOM     10  C   UNL     1      36.138 -24.329 -14.666  0.00  0.00    +0.011 C 
ATOM     11  C   UNL     1      37.227 -24.145 -13.814  0.00  0.00    +0.058 C 
ATOM     12  C   UNL     1      35.970 -25.543 -15.332  0.00  0.00    +0.001 C 
ATOM     13  C   UNL     1      38.147 -25.176 -13.628  0.00  0.00    +0.011 C 
ATOM     14  C   UNL     1      36.890 -26.573 -15.146  0.00  0.00    +0.000 C 
ATOM     15  C   UNL     1      37.980 -26.390 -14.294  0.00  0.00    +0.001 C 
ENDBRANCH   2  10
BRANCH   3  17
ATOM     16  O   UNL     1      37.160 -21.801 -16.290  0.00  0.00    -0.245 OA
ATOM     17  C   UNL     1      36.252 -22.254 -16.962  0.00  0.00    +0.339 C 
BRANCH  17  18
ATOM     18  O   UNL     1      36.137 -22.277 -18.312  0.00  0.00    -0.446 OA
BRANCH  18  19
ATOM     19  C   UNL     1      36.712 -21.154 -18.988  0.00  0.00    +0.209 C 
ATOM     20  C   UNL     1      36.490 -21.309 -20.477  0.00  0.00    +0.051 C 
ENDBRANCH  18  19
ENDBRANCH  17  18
ENDBRANCH   3  17
BRANCH   4  22
ATOM     21  O   UNL     1      33.057 -23.027 -12.151  0.00  0.00    -0.245 OA
ATOM     22  C   UNL     1      33.681 -23.799 -12.856  0.00  0.00    +0.342 C 
BRANCH  22  23
ATOM     23  O   UNL     1      34.397 -24.887 -12.481  0.00  0.00    -0.441 OA
ATOM     24  C   UNL     1      35.133 -24.738 -11.264  0.00  0.00    +0.256 C 
ENDBRANCH  22  23
ENDBRANCH   4  22
BRANCH   5  25
ATOM     25  C   UNL     1      33.780 -22.836 -18.577  0.00  0.00    +0.166 C 
BRANCH  25  26
ATOM     26  O   UNL     1      32.953 -21.705 -18.763  0.00  0.00    -0.354 OA
BRANCH  26  27
ATOM     27  C   UNL     1      32.839 -21.352 -20.138  0.00  0.00    +0.119 C 
BRANCH  27  28
ATOM     28  C   UNL     1      32.939 -19.840 -20.265  0.00  0.00    -0.054 C 
BRANCH  28  29
ATOM     29  N   UNL     1      33.646 -19.472 -21.482  0.00  0.00    +0.382 N 
ATOM     30  H   UNL     1      34.420 -20.119 -21.635  0.00  0.00    -0.089 HD
ATOM     31  H   UNL     1      34.010 -18.524 -21.391  0.00  0.00    -0.089 HD
ATOM     32  H   UNL     1      33.005 -19.516 -22.274  0.00  0.00    -0.089 HD
ENDBRANCH  28  29
ENDBRANCH  27  28
ENDBRANCH  26  27
ENDBRANCH  25  26
ENDBRANCH   5  25
TORSDOF 11
ENDMDL
MODEL 4
REMARK VINA RESULT:      -6.2     12.473     16.691
REMARK  Name = 2162
REMARK  11 active torsions:
REMARK  status: ('A' for Active; 'I' for Inactive)
REMARK    1  A    between atoms: C_2  and  C_10
REMARK    2  A    between atoms: C_3  and  C_17
REMARK    3  A    between atoms: C_4  and  C_22
REMARK    4  A    between atoms: C_5  and  C_25
REMARK    5  A    between atoms: C_17  and  O_18
REMARK    6  A    between atoms: O_18  and  C_19
REMARK    7  A    between atoms: C_22  and  O_23
REMARK    8  A    between atoms: C_25  and  O_26
REMARK    9  A    between atoms: O_26  and  C_27
REMARK   10  A    between atoms: C_27  and  C_28
REMARK   11  A    between atoms: C_28  and  N_29
REMARK                            x       y       z     vdW  Elec       q    Type
REMARK                         _______ _______ _______ _____ _____    ______ ____
ROOT
ATOM      1  N   UNL     1      33.643 -11.413 -24.373  0.00  0.00    -0.332 N 
ATOM      2  C   UNL     1      33.116  -9.224 -22.655  0.00  0.00    +0.012 C 
ATOM      3  C   UNL     1      32.477 -10.606 -22.479  0.00  0.00    +0.074 C 
ATOM      4  C   UNL     1      34.188  -9.197 -23.749  0.00  0.00    +0.085 C 
ATOM      5  C   UNL     1      32.749 -11.617 -23.334  0.00  0.00    +0.128 C 
ATOM      6  C   UNL     1      34.384 -10.258 -24.564  0.00  0.00    +0.028 C 
ATOM      7  C   UNL     1      35.370 -10.316 -25.699  0.00  0.00    +0.047 C 
ATOM      8  H   UNL     1      33.761 -12.143 -25.024  0.00  0.00    +0.147 HD
ENDROOT
BRANCH   2  10
ATOM      9 CL   UNL     1      32.625  -6.997 -20.575  0.00  0.00    -0.082 Cl
ATOM     10  C   UNL     1      32.055  -8.203 -22.952  0.00  0.00    +0.011 C 
ATOM     11  C   UNL     1      31.770  -7.164 -22.065  0.00  0.00    +0.058 C 
ATOM     12  C   UNL     1      31.347  -8.311 -24.149  0.00  0.00    +0.001 C 
ATOM     13  C   UNL     1      30.778  -6.235 -22.375  0.00  0.00    +0.011 C 
ATOM     14  C   UNL     1      30.355  -7.382 -24.459  0.00  0.00    +0.000 C 
ATOM     15  C   UNL     1      30.070  -6.344 -23.572  0.00  0.00    +0.001 C 
ENDBRANCH   2  10
BRANCH   3  17
ATOM     16  O   UNL     1      30.468 -11.204 -21.372  0.00  0.00    -0.245 OA
ATOM     17  C   UNL     1      31.610 -10.786 -21.303  0.00  0.00    +0.339 C 
BRANCH  17  18
ATOM     18  O   UNL     1      32.303 -10.416 -20.200  0.00  0.00    -0.446 OA
BRANCH  18  19
ATOM     19  C   UNL     1      31.505  -9.923 -19.119  0.00  0.00    +0.209 C 
ATOM     20  C   UNL     1      31.323 -11.025 -18.098  0.00  0.00    +0.051 C 
ENDBRANCH  18  19
ENDBRANCH  17  18
ENDBRANCH   3  17
BRANCH   4  22
ATOM     21  O   UNL     1      35.629  -7.525 -22.885  0.00  0.00    -0.245 OA
ATOM     22  C   UNL     1      35.016  -7.982 -23.832  0.00  0.00    +0.342 C 
BRANCH  22  23
ATOM     23  O   UNL     1      34.955  -7.509 -25.101  0.00  0.00    -0.441 OA
ATOM     24  C   UNL     1      34.267  -6.263 -25.250  0.00  0.00    +0.256 C 
ENDBRANCH  22  23
ENDBRANCH   4  22
BRANCH   5  25
ATOM     25  C   UNL     1      32.149 -12.996 -23.274  0.00  0.00    +0.166 C 
BRANCH  25  26
ATOM     26  O   UNL     1      32.883 -13.868 -24.111  0.00  0.00    -0.354 OA
BRANCH  26  27
ATOM     27  C   UNL     1      33.611 -14.835 -23.361  0.00  0.00    +0.119 C 
BRANCH  27  28
ATOM     28  C   UNL     1      34.186 -15.865 -24.319  0.00  0.00    -0.054 C 
BRANCH  28  29
ATOM     29  N   UNL     1      35.405 -16.447 -23.777  0.00  0.00    +0.382 N 
ATOM     30  H   UNL     1      36.120 -16.475 -24.503  0.00  0.00    -0.089 HD
ATOM     31  H   UNL     1      35.214 -17.395 -23.452  0.00  0.00    -0.089 HD
ATOM     32  H   UNL     1      35.735 -15.879 -22.996  0.00  0.00    -0.089 HD
ENDBRANCH  28  29
ENDBRANCH  27  28
ENDBRANCH  26  27
ENDBRANCH  25  26
ENDBRANCH   5  25
TORSDOF 11
ENDMDL
MODEL 5
REMARK VINA RESULT:      -6.0      2.303      4.598
REMARK  Name = 2162
REMARK  11 active torsions:
REMARK  status: ('A' for Active; 'I' for Inactive)
REMARK    1  A    between atoms: C_2  and  C_10
REMARK    2  A    between atoms: C_3  and  C_17
REMARK    3  A    between atoms: C_4  and  C_22
REMARK    4  A    between atoms: C_5  and  C_25
REMARK    5  A    between atoms: C_17  and  O_18
REMARK    6  A    between atoms: O_18  and  C_19
REMARK    7  A    between atoms: C_22  and  O_23
REMARK    8  A    between atoms: C_25  and  O_26
REMARK    9  A    between atoms: O_26  and  C_27
REMARK   10  A    between atoms: C_27  and  C_28
REMARK   11  A    between atoms: C_28  and  N_29
REMARK                            x       y       z     vdW  Elec       q    Type
REMARK                         _______ _______ _______ _____ _____    ______ ____
ROOT
ATOM      1  N   UNL     1      38.569 -23.253 -16.132  0.00  0.00    -0.332 N 
ATOM      2  C   UNL     1      36.565 -24.543 -14.601  0.00  0.00    +0.012 C 
ATOM      3  C   UNL     1      36.280 -23.366 -15.540  0.00  0.00    +0.074 C 
ATOM      4  C   UNL     1      38.007 -25.052 -14.701  0.00  0.00    +0.085 C 
ATOM      5  C   UNL     1      37.273 -22.773 -16.240  0.00  0.00    +0.128 C 
ATOM      6  C   UNL     1      38.936 -24.386 -15.423  0.00  0.00    +0.028 C 
ATOM      7  C   UNL     1      40.386 -24.768 -15.545  0.00  0.00    +0.047 C 
ATOM      8  H   UNL     1      39.281 -22.752 -16.592  0.00  0.00    +0.147 HD
ENDROOT
BRANCH   2  10
ATOM      9 CL   UNL     1      33.741 -25.148 -13.513  0.00  0.00    -0.082 Cl
ATOM     10  C   UNL     1      36.256 -24.154 -13.183  0.00  0.00    +0.011 C 
ATOM     11  C   UNL     1      35.005 -24.391 -12.614  0.00  0.00    +0.058 C 
ATOM     12  C   UNL     1      37.259 -23.541 -12.431  0.00  0.00    +0.001 C 
ATOM     13  C   UNL     1      34.757 -24.016 -11.295  0.00  0.00    +0.011 C 
ATOM     14  C   UNL     1      37.011 -23.165 -11.112  0.00  0.00    +0.000 C 
ATOM     15  C   UNL     1      35.759 -23.403 -10.543  0.00  0.00    +0.001 C 
ENDBRANCH   2  10
BRANCH   3  17
ATOM     16  O   UNL     1      34.352 -22.094 -15.008  0.00  0.00    -0.245 OA
ATOM     17  C   UNL     1      34.872 -22.963 -15.684  0.00  0.00    +0.339 C 
BRANCH  17  18
ATOM     18  O   UNL     1      34.311 -23.712 -16.663  0.00  0.00    -0.446 OA
BRANCH  18  19
ATOM     19  C   UNL     1      33.211 -23.097 -17.343  0.00  0.00    +0.209 C 
ATOM     20  C   UNL     1      31.941 -23.362 -16.565  0.00  0.00    +0.051 C 
ENDBRANCH  18  19
ENDBRANCH  17  18
ENDBRANCH   3  17
BRANCH   4  22
ATOM     21  O   UNL     1      38.721 -26.379 -12.872  0.00  0.00    -0.245 OA
ATOM     22  C   UNL     1      38.308 -26.319 -14.015  0.00  0.00    +0.342 C 
BRANCH  22  23
ATOM     23  O   UNL     1      38.046 -27.340 -14.868  0.00  0.00    -0.441 OA
ATOM     24  C   UNL     1      36.765 -27.286 -15.502  0.00  0.00    +0.256 C 
ENDBRANCH  22  23
ENDBRANCH   4  22
BRANCH   5  25
ATOM     25  C   UNL     1      37.109 -21.591 -17.157  0.00  0.00    +0.166 C 
BRANCH  25  26
ATOM     26  O   UNL     1      36.920 -22.044 -18.483  0.00  0.00    -0.354 OA
BRANCH  26  27
ATOM     27  C   UNL     1      35.884 -21.326 -19.146  0.00  0.00    +0.119 C 
BRANCH  27  28
ATOM     28  C   UNL     1      36.509 -20.425 -20.198  0.00  0.00    -0.054 C 
BRANCH  28  29
ATOM     29  N   UNL     1      35.604 -19.342 -20.553  0.00  0.00    +0.382 N 
ATOM     30  H   UNL     1      36.041 -18.447 -20.334  0.00  0.00    -0.089 HD
ATOM     31  H   UNL     1      34.738 -19.435 -20.022  0.00  0.00    -0.089 HD
ATOM     32  H   UNL     1      35.398 -19.384 -21.551  0.00  0.00    -0.089 HD
ENDBRANCH  28  29
ENDBRANCH  27  28
ENDBRANCH  26  27
ENDBRANCH  25  26
ENDBRANCH   5  25
TORSDOF 11
ENDMDL
MODEL 6
REMARK VINA RESULT:      -5.8     12.491     15.714
REMARK  Name = 2162
REMARK  11 active torsions:
REMARK  status: ('A' for Active; 'I' for Inactive)
REMARK    1  A    between atoms: C_2  and  C_10
REMARK    2  A    between atoms: C_3  and  C_17
REMARK    3  A    between atoms: C_4  and  C_22
REMARK    4  A    between atoms: C_5  and  C_25
REMARK    5  A    between atoms: C_17  and  O_18
REMARK    6  A    between atoms: O_18  and  C_19
REMARK    7  A    between atoms: C_22  and  O_23
REMARK    8  A    between atoms: C_25  and  O_26
REMARK    9  A    between atoms: O_26  and  C_27
REMARK   10  A    between atoms: C_27  and  C_28
REMARK   11  A    between atoms: C_28  and  N_29
REMARK                            x       y       z     vdW  Elec       q    Type
REMARK                         _______ _______ _______ _____ _____    ______ ____
ROOT
ATOM      1  N   UNL     1      35.045  -9.599 -24.916  0.00  0.00    -0.332 N 
ATOM      2  C   UNL     1      32.863 -11.208 -24.098  0.00  0.00    +0.012 C 
ATOM      3  C   UNL     1      33.196  -9.854 -23.462  0.00  0.00    +0.074 C 
ATOM      4  C   UNL     1      33.727 -11.522 -25.323  0.00  0.00    +0.085 C 
ATOM      5  C   UNL     1      34.258  -9.127 -23.878  0.00  0.00    +0.128 C 
ATOM      6  C   UNL     1      34.777 -10.738 -25.659  0.00  0.00    +0.028 C 
ATOM      7  C   UNL     1      35.719 -10.985 -26.806  0.00  0.00    +0.047 C 
ATOM      8  H   UNL     1      35.855  -9.088 -25.144  0.00  0.00    +0.147 HD
ENDROOT
BRANCH   2  10
ATOM      9 CL   UNL     1      30.488 -11.732 -22.197  0.00  0.00    -0.082 Cl
ATOM     10  C   UNL     1      33.004 -12.301 -23.077  0.00  0.00    +0.011 C 
ATOM     11  C   UNL     1      31.978 -12.602 -22.181  0.00  0.00    +0.058 C 
ATOM     12  C   UNL     1      34.197 -13.023 -23.040  0.00  0.00    +0.001 C 
ATOM     13  C   UNL     1      32.146 -13.625 -21.248  0.00  0.00    +0.011 C 
ATOM     14  C   UNL     1      34.365 -14.045 -22.108  0.00  0.00    +0.000 C 
ATOM     15  C   UNL     1      33.339 -14.347 -21.211  0.00  0.00    +0.001 C 
ENDBRANCH   2  10
BRANCH   3  17
ATOM     16  O   UNL     1      31.172  -8.896 -22.684  0.00  0.00    -0.245 OA
ATOM     17  C   UNL     1      32.268  -9.364 -22.430  0.00  0.00    +0.339 C 
BRANCH  17  18
ATOM     18  O   UNL     1      32.848  -9.532 -21.218  0.00  0.00    -0.446 OA
BRANCH  18  19
ATOM     19  C   UNL     1      32.068  -9.083 -20.105  0.00  0.00    +0.209 C 
ATOM     20  C   UNL     1      31.816 -10.251 -19.176  0.00  0.00    +0.051 C 
ENDBRANCH  18  19
ENDBRANCH  17  18
ENDBRANCH   3  17
BRANCH   4  22
ATOM     21  O   UNL     1      32.672 -12.593 -27.156  0.00  0.00    -0.245 OA
ATOM     22  C   UNL     1      33.326 -12.684 -26.133  0.00  0.00    +0.342 C 
BRANCH  22  23
ATOM     23  O   UNL     1      33.806 -13.804 -25.541  0.00  0.00    -0.441 OA
ATOM     24  C   UNL     1      33.199 -15.025 -25.973  0.00  0.00    +0.256 C 
ENDBRANCH  22  23
ENDBRANCH   4  22
BRANCH   5  25
ATOM     25  C   UNL     1      34.694  -7.809 -23.299  0.00  0.00    +0.166 C 
BRANCH  25  26
ATOM     26  O   UNL     1      34.654  -6.815 -24.304  0.00  0.00    -0.354 OA
BRANCH  26  27
ATOM     27  C   UNL     1      33.318  -6.448 -24.634  0.00  0.00    +0.119 C 
BRANCH  27  28
ATOM     28  C   UNL     1      32.647  -5.878 -23.394  0.00  0.00    -0.054 C 
BRANCH  28  29
ATOM     29  N   UNL     1      31.201  -6.009 -23.486  0.00  0.00    +0.382 N 
ATOM     30  H   UNL     1      30.945  -6.995 -23.434  0.00  0.00    -0.089 HD
ATOM     31  H   UNL     1      30.880  -5.621 -24.373  0.00  0.00    -0.089 HD
ATOM     32  H   UNL     1      30.764  -5.504 -22.715  0.00  0.00    -0.089 HD
ENDBRANCH  28  29
ENDBRANCH  27  28
ENDBRANCH  26  27
ENDBRANCH  25  26
ENDBRANCH   5  25
TORSDOF 11
ENDMDL
MODEL 7
REMARK VINA RESULT:      -5.6     10.730     14.677
REMARK  Name = 2162
REMARK  11 active torsions:
REMARK  status: ('A' for Active; 'I' for Inactive)
REMARK    1  A    between atoms: C_2  and  C_10
REMARK    2  A    between atoms: C_3  and  C_17
REMARK    3  A    between atoms: C_4  and  C_22
REMARK    4  A    between atoms: C_5  and  C_25
REMARK    5  A    between atoms: C_17  and  O_18
REMARK    6  A    between atoms: O_18  and  C_19
REMARK    7  A    between atoms: C_22  and  O_23
REMARK    8  A    between atoms: C_25  and  O_26
REMARK    9  A    between atoms: O_26  and  C_27
REMARK   10  A    between atoms: C_27  and  C_28
REMARK   11  A    between atoms: C_28  and  N_29
REMARK                            x       y       z     vdW  Elec       q    Type
REMARK                         _______ _______ _______ _____ _____    ______ ____
ROOT
ATOM      1  N   UNL     1      31.509 -10.675 -22.492  0.00  0.00    -0.332 N 
ATOM      2  C   UNL     1      33.589 -12.487 -23.132  0.00  0.00    +0.012 C 
ATOM      3  C   UNL     1      33.442 -11.109 -23.786  0.00  0.00    +0.074 C 
ATOM      4  C   UNL     1      32.598 -12.713 -21.987  0.00  0.00    +0.085 C 
ATOM      5  C   UNL     1      32.423 -10.283 -23.457  0.00  0.00    +0.128 C 
ATOM      6  C   UNL     1      31.603 -11.832 -21.736  0.00  0.00    +0.028 C 
ATOM      7  C   UNL     1      30.549 -11.984 -20.674  0.00  0.00    +0.047 C 
ATOM      8  H   UNL     1      30.735 -10.087 -22.331  0.00  0.00    +0.147 HD
ENDROOT
BRANCH   2  10
ATOM      9 CL   UNL     1      35.146 -15.122 -22.733  0.00  0.00    -0.082 Cl
ATOM     10  C   UNL     1      33.431 -13.565 -24.167  0.00  0.00    +0.011 C 
ATOM     11  C   UNL     1      34.099 -14.785 -24.062  0.00  0.00    +0.058 C 
ATOM     12  C   UNL     1      32.590 -13.321 -25.254  0.00  0.00    +0.001 C 
ATOM     13  C   UNL     1      33.926 -15.760 -25.043  0.00  0.00    +0.011 C 
ATOM     14  C   UNL     1      32.418 -14.297 -26.234  0.00  0.00    +0.000 C 
ATOM     15  C   UNL     1      33.086 -15.517 -26.129  0.00  0.00    +0.001 C 
ENDBRANCH   2  10
BRANCH   3  17
ATOM     16  O   UNL     1      34.584 -11.160 -25.863  0.00  0.00    -0.245 OA
ATOM     17  C   UNL     1      34.497 -10.713 -24.734  0.00  0.00    +0.339 C 
BRANCH  17  18
ATOM     18  O   UNL     1      35.298  -9.805 -24.127  0.00  0.00    -0.446 OA
BRANCH  18  19
ATOM     19  C   UNL     1      35.145  -8.458 -24.587  0.00  0.00    +0.209 C 
ATOM     20  C   UNL     1      35.012  -7.541 -23.390  0.00  0.00    +0.051 C 
ENDBRANCH  18  19
ENDBRANCH  17  18
ENDBRANCH   3  17
BRANCH   4  22
ATOM     21  O   UNL     1      33.616 -13.945 -20.235  0.00  0.00    -0.245 OA
ATOM     22  C   UNL     1      32.816 -13.907 -21.152  0.00  0.00    +0.342 C 
BRANCH  22  23
ATOM     23  O   UNL     1      31.993 -14.891 -21.589  0.00  0.00    -0.441 OA
ATOM     24  C   UNL     1      32.147 -16.148 -20.926  0.00  0.00    +0.256 C 
ENDBRANCH  22  23
ENDBRANCH   4  22
BRANCH   5  25
ATOM     25  C   UNL     1      32.166  -8.930 -24.064  0.00  0.00    +0.166 C 
BRANCH  25  26
ATOM     26  O   UNL     1      31.020  -8.355 -23.469  0.00  0.00    -0.354 OA
BRANCH  26  27
ATOM     27  C   UNL     1      31.249  -7.007 -23.071  0.00  0.00    +0.119 C 
BRANCH  27  28
ATOM     28  C   UNL     1      31.837  -7.005 -21.669  0.00  0.00    -0.054 C 
BRANCH  28  29
ATOM     29  N   UNL     1      31.889  -5.652 -21.135  0.00  0.00    +0.382 N 
ATOM     30  H   UNL     1      32.223  -5.679 -20.172  0.00  0.00    -0.089 HD
ATOM     31  H   UNL     1      30.957  -5.240 -21.160  0.00  0.00    -0.089 HD
ATOM     32  H   UNL     1      32.526  -5.089 -21.699  0.00  0.00    -0.089 HD
ENDBRANCH  28  29
ENDBRANCH  27  28
ENDBRANCH  26  27
ENDBRANCH  25  26
ENDBRANCH   5  25
TORSDOF 11
ENDMDL
MODEL 8
REMARK VINA RESULT:      -5.3      9.007     13.784
REMARK  Name = 2162
REMARK  11 active torsions:
REMARK  status: ('A' for Active; 'I' for Inactive)
REMARK    1  A    between atoms: C_2  and  C_10
REMARK    2  A    between atoms: C_3  and  C_17
REMARK    3  A    between atoms: C_4  and  C_22
REMARK    4  A    between atoms: C_5  and  C_25
REMARK    5  A    between atoms: C_17  and  O_18
REMARK    6  A    between atoms: O_18  and  C_19
REMARK    7  A    between atoms: C_22  and  O_23
REMARK    8  A    between atoms: C_25  and  O_26
REMARK    9  A    between atoms: O_26  and  C_27
REMARK   10  A    between atoms: C_27  and  C_28
REMARK   11  A    between atoms: C_28  and  N_29
REMARK                            x       y       z     vdW  Elec       q    Type
REMARK                         _______ _______ _______ _____ _____    ______ ____
ROOT
ATOM      1  N   UNL     1      33.181 -13.799 -20.930  0.00  0.00    -0.332 N 
ATOM      2  C   UNL     1      32.639 -12.969 -23.583  0.00  0.00    +0.012 C 
ATOM      3  C   UNL     1      33.341 -14.288 -23.240  0.00  0.00    +0.074 C 
ATOM      4  C   UNL     1      32.118 -12.231 -22.347  0.00  0.00    +0.085 C 
ATOM      5  C   UNL     1      33.590 -14.635 -21.957  0.00  0.00    +0.128 C 
ATOM      6  C   UNL     1      32.426 -12.649 -21.098  0.00  0.00    +0.028 C 
ATOM      7  C   UNL     1      32.012 -11.970 -19.822  0.00  0.00    +0.047 C 
ATOM      8  H   UNL     1      33.446 -14.040 -20.013  0.00  0.00    +0.147 HD
ENDROOT
BRANCH   2  10
ATOM      9 CL   UNL     1      32.588 -13.147 -26.664  0.00  0.00    -0.082 Cl
ATOM     10  C   UNL     1      33.570 -12.080 -24.357  0.00  0.00    +0.011 C 
ATOM     11  C   UNL     1      33.610 -12.098 -25.751  0.00  0.00    +0.058 C 
ATOM     12  C   UNL     1      34.408 -11.221 -23.647  0.00  0.00    +0.001 C 
ATOM     13  C   UNL     1      34.488 -11.258 -26.434  0.00  0.00    +0.011 C 
ATOM     14  C   UNL     1      35.286 -10.380 -24.330  0.00  0.00    +0.000 C 
ATOM     15  C   UNL     1      35.326 -10.398 -25.724  0.00  0.00    +0.001 C 
ENDBRANCH   2  10
BRANCH   3  17
ATOM     16  O   UNL     1      32.946 -15.310 -25.342  0.00  0.00    -0.245 OA
ATOM     17  C   UNL     1      33.665 -15.176 -24.369  0.00  0.00    +0.339 C 
BRANCH  17  18
ATOM     18  O   UNL     1      34.855 -15.772 -24.116  0.00  0.00    -0.446 OA
BRANCH  18  19
ATOM     19  C   UNL     1      35.237 -16.785 -25.052  0.00  0.00    +0.209 C 
ATOM     20  C   UNL     1      34.492 -18.062 -24.728  0.00  0.00    +0.051 C 
ENDBRANCH  18  19
ENDBRANCH  17  18
ENDBRANCH   3  17
BRANCH   4  22
ATOM     21  O   UNL     1      30.019 -11.137 -22.497  0.00  0.00    -0.245 OA
ATOM     22  C   UNL     1      31.232 -11.080 -22.590  0.00  0.00    +0.342 C 
BRANCH  22  23
ATOM     23  O   UNL     1      31.999 -10.013 -22.920  0.00  0.00    -0.441 OA
ATOM     24  C   UNL     1      31.944  -8.920 -21.999  0.00  0.00    +0.256 C 
ENDBRANCH  22  23
ENDBRANCH   4  22
BRANCH   5  25
ATOM     25  C   UNL     1      34.303 -15.884 -21.514  0.00  0.00    +0.166 C 
BRANCH  25  26
ATOM     26  O   UNL     1      33.359 -16.909 -21.277  0.00  0.00    -0.354 OA
BRANCH  26  27
ATOM     27  C   UNL     1      33.983 -18.181 -21.136  0.00  0.00    +0.119 C 
BRANCH  27  28
ATOM     28  C   UNL     1      35.490 -17.999 -21.221  0.00  0.00    -0.054 C 
BRANCH  28  29
ATOM     29  N   UNL     1      36.177 -19.056 -20.494  0.00  0.00    +0.382 N 
ATOM     30  H   UNL     1      37.097 -18.725 -20.201  0.00  0.00    -0.089 HD
ATOM     31  H   UNL     1      36.286 -19.870 -21.098  0.00  0.00    -0.089 HD
ATOM     32  H   UNL     1      35.631 -19.313 -19.671  0.00  0.00    -0.089 HD
ENDBRANCH  28  29
ENDBRANCH  27  28
ENDBRANCH  26  27
ENDBRANCH  25  26
ENDBRANCH   5  25
TORSDOF 11
ENDMDL
MODEL 9
REMARK VINA RESULT:      -5.3      9.968     14.559
REMARK  Name = 2162
REMARK  11 active torsions:
REMARK  status: ('A' for Active; 'I' for Inactive)
REMARK    1  A    between atoms: C_2  and  C_10
REMARK    2  A    between atoms: C_3  and  C_17
REMARK    3  A    between atoms: C_4  and  C_22
REMARK    4  A    between atoms: C_5  and  C_25
REMARK    5  A    between atoms: C_17  and  O_18
REMARK    6  A    between atoms: O_18  and  C_19
REMARK    7  A    between atoms: C_22  and  O_23
REMARK    8  A    between atoms: C_25  and  O_26
REMARK    9  A    between atoms: O_26  and  C_27
REMARK   10  A    between atoms: C_27  and  C_28
REMARK   11  A    between atoms: C_28  and  N_29
REMARK                            x       y       z     vdW  Elec       q    Type
REMARK                         _______ _______ _______ _____ _____    ______ ____
ROOT
ATOM      1  N   UNL     1      33.543 -13.988 -22.080  0.00  0.00    -0.332 N 
ATOM      2  C   UNL     1      32.378 -11.793 -23.438  0.00  0.00    +0.012 C 
ATOM      3  C   UNL     1      33.160 -12.904 -24.148  0.00  0.00    +0.074 C 
ATOM      4  C   UNL     1      32.153 -12.078 -21.950  0.00  0.00    +0.085 C 
ATOM      5  C   UNL     1      33.710 -13.926 -23.454  0.00  0.00    +0.128 C 
ATOM      6  C   UNL     1      32.754 -13.124 -21.338  0.00  0.00    +0.028 C 
ATOM      7  C   UNL     1      32.643 -13.461 -19.877  0.00  0.00    +0.047 C 
ATOM      8  H   UNL     1      34.021 -14.699 -21.593  0.00  0.00    +0.147 HD
ENDROOT
BRANCH   2  10
ATOM      9 CL   UNL     1      30.681  -9.215 -23.407  0.00  0.00    -0.082 Cl
ATOM     10  C   UNL     1      33.087 -10.479 -23.607  0.00  0.00    +0.011 C 
ATOM     11  C   UNL     1      32.394  -9.268 -23.605  0.00  0.00    +0.058 C 
ATOM     12  C   UNL     1      34.472 -10.490 -23.769  0.00  0.00    +0.001 C 
ATOM     13  C   UNL     1      33.088  -8.069 -23.764  0.00  0.00    +0.011 C 
ATOM     14  C   UNL     1      35.165  -9.291 -23.928  0.00  0.00    +0.000 C 
ATOM     15  C   UNL     1      34.473  -8.080 -23.926  0.00  0.00    +0.001 C 
ENDBRANCH   2  10
BRANCH   3  17
ATOM     16  O   UNL     1      33.995 -12.109 -26.219  0.00  0.00    -0.245 OA
ATOM     17  C   UNL     1      33.222 -12.832 -25.617  0.00  0.00    +0.339 C 
BRANCH  17  18
ATOM     18  O   UNL     1      32.300 -13.683 -26.126  0.00  0.00    -0.446 OA
BRANCH  18  19
ATOM     19  C   UNL     1      32.800 -14.609 -27.097  0.00  0.00    +0.209 C 
ATOM     20  C   UNL     1      32.680 -16.013 -26.547  0.00  0.00    +0.051 C 
ENDBRANCH  18  19
ENDBRANCH  17  18
ENDBRANCH   3  17
BRANCH   4  22
ATOM     21  O   UNL     1      30.009 -11.332 -21.266  0.00  0.00    -0.245 OA
ATOM     22  C   UNL     1      31.217 -11.188 -21.242  0.00  0.00    +0.342 C 
BRANCH  22  23
ATOM     23  O   UNL     1      31.937 -10.236 -20.600  0.00  0.00    -0.441 OA
ATOM     24  C   UNL     1      31.526  -9.970 -19.256  0.00  0.00    +0.256 C 
ENDBRANCH  22  23
ENDBRANCH   4  22
BRANCH   5  25
ATOM     25  C   UNL     1      34.527 -15.043 -24.046  0.00  0.00    +0.166 C 
BRANCH  25  26
ATOM     26  O   UNL     1      35.338 -15.619 -23.042  0.00  0.00    -0.354 OA
BRANCH  26  27
ATOM     27  C   UNL     1      35.090 -17.014 -22.896  0.00  0.00    +0.119 C 
BRANCH  27  28
ATOM     28  C   UNL     1      34.745 -17.300 -21.443  0.00  0.00    -0.054 C 
BRANCH  28  29
ATOM     29  N   UNL     1      35.699 -18.232 -20.862  0.00  0.00    +0.382 N 
ATOM     30  H   UNL     1      36.640 -17.994 -21.175  0.00  0.00    -0.089 HD
ATOM     31  H   UNL     1      35.473 -19.181 -21.159  0.00  0.00    -0.089 HD
ATOM     32  H   UNL     1      35.655 -18.173 -19.844  0.00  0.00    -0.089 HD
ENDBRANCH  28  29
ENDBRANCH  27  28
ENDBRANCH  26  27
ENDBRANCH  25  26
ENDBRANCH   5  25
TORSDOF 11
ENDMDL
