MODEL 1
REMARK VINA RESULT:      -7.8      0.000      0.000
REMARK  Name = 6090
REMARK  5 active torsions:
REMARK  status: ('A' for Active; 'I' for Inactive)
REMARK    1  A    between atoms: C_2  and  C_11
REMARK    2  A    between atoms: C_11  and  C_12
REMARK    3  A    between atoms: C_12  and  N_13
REMARK    4  A    between atoms: N_13  and  C_15
REMARK    5  A    between atoms: N_13  and  C_17
REMARK                            x       y       z     vdW  Elec       q    Type
REMARK                         _______ _______ _______ _____ _____    ______ ____
ROOT
ATOM      1  N   UNL     1      32.680 -20.266 -20.646  0.00  0.00    -0.312 N 
ATOM      2  C   UNL     1      34.646 -19.343 -21.102  0.00  0.00    -0.008 C 
ATOM      3  C   UNL     1      34.855 -20.394 -20.166  0.00  0.00    +0.011 C 
ATOM      4  C   UNL     1      33.606 -20.957 -19.897  0.00  0.00    +0.048 C 
ATOM      5  C   UNL     1      33.299 -19.290 -21.378  0.00  0.00    +0.057 C 
ATOM      6  C   UNL     1      35.991 -20.923 -19.521  0.00  0.00    +0.001 C 
ATOM      7  C   UNL     1      33.434 -22.026 -19.010  0.00  0.00    +0.015 C 
ATOM      8  C   UNL     1      35.834 -21.991 -18.631  0.00  0.00    +0.000 C 
ATOM      9  C   UNL     1      34.575 -22.534 -18.382  0.00  0.00    +0.001 C 
ATOM     10  H   UNL     1      31.713 -20.449 -20.654  0.00  0.00    +0.152 HD
ENDROOT
BRANCH   2  11
ATOM     11  C   UNL     1      35.680 -18.461 -21.681  0.00  0.00    +0.005 C 
BRANCH  11  12
ATOM     12  C   UNL     1      35.678 -18.463 -23.221  0.00  0.00    -0.073 C 
BRANCH  12  13
ATOM     13  N   UNL     1      35.572 -17.115 -23.767  0.00  0.00    +0.387 N 
ATOM     14  H   UNL     1      36.505 -16.806 -24.042  0.00  0.00    -0.080 HD
BRANCH  13  15
ATOM     15  C   UNL     1      35.057 -16.190 -22.755  0.00  0.00    -0.077 C 
ATOM     16  C   UNL     1      34.078 -15.200 -23.364  0.00  0.00    -0.025 C 
ENDBRANCH  13  15
BRANCH  13  17
ATOM     17  C   UNL     1      34.711 -17.105 -24.950  0.00  0.00    -0.077 C 
ATOM     18  C   UNL     1      34.105 -18.476 -25.199  0.00  0.00    -0.025 C 
ENDBRANCH  13  17
ENDBRANCH  12  13
ENDBRANCH  11  12
ENDBRANCH   2  11
TORSDOF 5
ENDMDL
MODEL 2
REMARK VINA RESULT:      -7.7      1.760      2.695
REMARK  Name = 6090
REMARK  5 active torsions:
REMARK  status: ('A' for Active; 'I' for Inactive)
REMARK    1  A    between atoms: C_2  and  C_11
REMARK    2  A    between atoms: C_11  and  C_12
REMARK    3  A    between atoms: C_12  and  N_13
REMARK    4  A    between atoms: N_13  and  C_15
REMARK    5  A    between atoms: N_13  and  C_17
REMARK                            x       y       z     vdW  Elec       q    Type
REMARK                         _______ _______ _______ _____ _____    ______ ____
ROOT
ATOM      1  N   UNL     1      36.814 -20.167 -20.203  0.00  0.00    -0.312 N 
ATOM      2  C   UNL     1      35.639 -18.688 -21.368  0.00  0.00    -0.008 C 
ATOM      3  C   UNL     1      34.732 -19.621 -20.792  0.00  0.00    +0.011 C 
ATOM      4  C   UNL     1      35.495 -20.538 -20.066  0.00  0.00    +0.048 C 
ATOM      5  C   UNL     1      36.910 -19.050 -20.987  0.00  0.00    +0.057 C 
ATOM      6  C   UNL     1      33.331 -19.774 -20.817  0.00  0.00    +0.001 C 
ATOM      7  C   UNL     1      34.926 -21.606 -19.363  0.00  0.00    +0.015 C 
ATOM      8  C   UNL     1      32.748 -20.837 -20.119  0.00  0.00    +0.000 C 
ATOM      9  C   UNL     1      33.534 -21.737 -19.403  0.00  0.00    +0.001 C 
ATOM     10  H   UNL     1      37.576 -20.637 -19.796  0.00  0.00    +0.152 HD
ENDROOT
BRANCH   2  11
ATOM     11  C   UNL     1      35.289 -17.534 -22.222  0.00  0.00    +0.005 C 
BRANCH  11  12
ATOM     12  C   UNL     1      34.758 -16.332 -21.420  0.00  0.00    -0.073 C 
BRANCH  12  13
ATOM     13  N   UNL     1      34.391 -15.218 -22.287  0.00  0.00    +0.387 N 
ATOM     14  H   UNL     1      35.035 -14.447 -22.107  0.00  0.00    -0.080 HD
BRANCH  13  15
ATOM     15  C   UNL     1      33.030 -14.765 -21.993  0.00  0.00    -0.077 C 
ATOM     16  C   UNL     1      32.487 -15.434 -20.742  0.00  0.00    -0.025 C 
ENDBRANCH  13  15
BRANCH  13  17
ATOM     17  C   UNL     1      34.505 -15.602 -23.694  0.00  0.00    -0.077 C 
ATOM     18  C   UNL     1      33.478 -14.877 -24.546  0.00  0.00    -0.025 C 
ENDBRANCH  13  17
ENDBRANCH  12  13
ENDBRANCH  11  12
ENDBRANCH   2  11
TORSDOF 5
ENDMDL
MODEL 3
REMARK VINA RESULT:      -7.7      1.686      5.829
REMARK  Name = 6090
REMARK  5 active torsions:
REMARK  status: ('A' for Active; 'I' for Inactive)
REMARK    1  A    between atoms: C_2  and  C_11
REMARK    2  A    between atoms: C_11  and  C_12
REMARK    3  A    between atoms: C_12  and  N_13
REMARK    4  A    between atoms: N_13  and  C_15
REMARK    5  A    between atoms: N_13  and  C_17
REMARK                            x       y       z     vdW  Elec       q    Type
REMARK                         _______ _______ _______ _____ _____    ______ ____
ROOT
ATOM      1  N   UNL     1      33.894 -15.563 -24.519  0.00  0.00    -0.312 N 
ATOM      2  C   UNL     1      34.960 -16.967 -23.171  0.00  0.00    -0.008 C 
ATOM      3  C   UNL     1      34.192 -16.077 -22.369  0.00  0.00    +0.011 C 
ATOM      4  C   UNL     1      33.533 -15.207 -23.239  0.00  0.00    +0.048 C 
ATOM      5  C   UNL     1      34.755 -16.626 -24.487  0.00  0.00    +0.057 C 
ATOM      6  C   UNL     1      33.993 -15.928 -20.981  0.00  0.00    +0.001 C 
ATOM      7  C   UNL     1      32.683 -14.189 -22.791  0.00  0.00    +0.015 C 
ATOM      8  C   UNL     1      33.146 -14.915 -20.518  0.00  0.00    +0.000 C 
ATOM      9  C   UNL     1      32.501 -14.061 -21.410  0.00  0.00    +0.001 C 
ATOM     10  H   UNL     1      33.579 -15.118 -25.338  0.00  0.00    +0.152 HD
ENDROOT
BRANCH   2  11
ATOM     11  C   UNL     1      35.824 -18.064 -22.687  0.00  0.00    +0.005 C 
BRANCH  11  12
ATOM     12  C   UNL     1      35.025 -19.283 -22.190  0.00  0.00    -0.073 C 
BRANCH  12  13
ATOM     13  N   UNL     1      35.164 -19.473 -20.750  0.00  0.00    +0.387 N 
ATOM     14  H   UNL     1      34.991 -18.579 -20.291  0.00  0.00    -0.080 HD
BRANCH  13  15
ATOM     15  C   UNL     1      36.520 -19.912 -20.418  0.00  0.00    -0.077 C 
ATOM     16  C   UNL     1      36.499 -21.207 -19.624  0.00  0.00    -0.025 C 
ENDBRANCH  13  15
BRANCH  13  17
ATOM     17  C   UNL     1      34.182 -20.443 -20.264  0.00  0.00    -0.077 C 
ATOM     18  C   UNL     1      32.764 -19.985 -20.560  0.00  0.00    -0.025 C 
ENDBRANCH  13  17
ENDBRANCH  12  13
ENDBRANCH  11  12
ENDBRANCH   2  11
TORSDOF 5
ENDMDL
MODEL 4
REMARK VINA RESULT:      -7.7      1.364      2.203
REMARK  Name = 6090
REMARK  5 active torsions:
REMARK  status: ('A' for Active; 'I' for Inactive)
REMARK    1  A    between atoms: C_2  and  C_11
REMARK    2  A    between atoms: C_11  and  C_12
REMARK    3  A    between atoms: C_12  and  N_13
REMARK    4  A    between atoms: N_13  and  C_15
REMARK    5  A    between atoms: N_13  and  C_17
REMARK                            x       y       z     vdW  Elec       q    Type
REMARK                         _______ _______ _______ _____ _____    ______ ____
ROOT
ATOM      1  N   UNL     1      32.615 -20.883 -20.077  0.00  0.00    -0.312 N 
ATOM      2  C   UNL     1      34.061 -19.655 -21.229  0.00  0.00    -0.008 C 
ATOM      3  C   UNL     1      34.792 -20.450 -20.302  0.00  0.00    +0.011 C 
ATOM      4  C   UNL     1      33.861 -21.211 -19.593  0.00  0.00    +0.048 C 
ATOM      5  C   UNL     1      32.726 -19.944 -21.067  0.00  0.00    +0.057 C 
ATOM      6  C   UNL     1      36.160 -20.596 -19.999  0.00  0.00    +0.001 C 
ATOM      7  C   UNL     1      34.231 -22.113 -18.588  0.00  0.00    +0.015 C 
ATOM      8  C   UNL     1      36.545 -21.495 -18.998  0.00  0.00    +0.000 C 
ATOM      9  C   UNL     1      35.594 -22.242 -18.305  0.00  0.00    +0.001 C 
ATOM     10  H   UNL     1      31.767 -21.268 -19.758  0.00  0.00    +0.152 HD
ENDROOT
BRANCH   2  11
ATOM     11  C   UNL     1      34.623 -18.691 -22.197  0.00  0.00    +0.005 C 
BRANCH  11  12
ATOM     12  C   UNL     1      35.169 -17.417 -21.526  0.00  0.00    -0.073 C 
BRANCH  12  13
ATOM     13  N   UNL     1      34.337 -16.252 -21.812  0.00  0.00    +0.387 N 
ATOM     14  H   UNL     1      33.388 -16.576 -22.000  0.00  0.00    -0.080 HD
BRANCH  13  15
ATOM     15  C   UNL     1      34.831 -15.547 -22.997  0.00  0.00    -0.077 C 
ATOM     16  C   UNL     1      33.761 -15.463 -24.071  0.00  0.00    -0.025 C 
ENDBRANCH  13  15
BRANCH  13  17
ATOM     17  C   UNL     1      34.302 -15.350 -20.661  0.00  0.00    -0.077 C 
ATOM     18  C   UNL     1      32.915 -14.762 -20.465  0.00  0.00    -0.025 C 
ENDBRANCH  13  17
ENDBRANCH  12  13
ENDBRANCH  11  12
ENDBRANCH   2  11
TORSDOF 5
ENDMDL
MODEL 5
REMARK VINA RESULT:      -7.7      1.423      6.034
REMARK  Name = 6090
REMARK  5 active torsions:
REMARK  status: ('A' for Active; 'I' for Inactive)
REMARK    1  A    between atoms: C_2  and  C_11
REMARK    2  A    between atoms: C_11  and  C_12
REMARK    3  A    between atoms: C_12  and  N_13
REMARK    4  A    between atoms: N_13  and  C_15
REMARK    5  A    between atoms: N_13  and  C_17
REMARK                            x       y       z     vdW  Elec       q    Type
REMARK                         _______ _______ _______ _____ _____    ______ ____
ROOT
ATOM      1  N   UNL     1      34.212 -15.390 -21.700  0.00  0.00    -0.312 N 
ATOM      2  C   UNL     1      35.298 -17.326 -21.685  0.00  0.00    -0.008 C 
ATOM      3  C   UNL     1      34.905 -17.046 -23.024  0.00  0.00    +0.011 C 
ATOM      4  C   UNL     1      34.226 -15.826 -23.005  0.00  0.00    +0.048 C 
ATOM      5  C   UNL     1      34.858 -16.289 -20.895  0.00  0.00    +0.057 C 
ATOM      6  C   UNL     1      35.063 -17.716 -24.254  0.00  0.00    +0.001 C 
ATOM      7  C   UNL     1      33.693 -15.240 -24.159  0.00  0.00    +0.015 C 
ATOM      8  C   UNL     1      34.536 -17.142 -25.416  0.00  0.00    +0.000 C 
ATOM      9  C   UNL     1      33.863 -15.922 -25.368  0.00  0.00    +0.001 C 
ATOM     10  H   UNL     1      33.798 -14.553 -21.390  0.00  0.00    +0.152 HD
ENDROOT
BRANCH   2  11
ATOM     11  C   UNL     1      36.044 -18.512 -21.216  0.00  0.00    +0.005 C 
BRANCH  11  12
ATOM     12  C   UNL     1      35.209 -19.804 -21.265  0.00  0.00    -0.073 C 
BRANCH  12  13
ATOM     13  N   UNL     1      35.092 -20.426 -19.950  0.00  0.00    +0.387 N 
ATOM     14  H   UNL     1      35.254 -19.710 -19.242  0.00  0.00    -0.080 HD
BRANCH  13  15
ATOM     15  C   UNL     1      36.098 -21.477 -19.787  0.00  0.00    -0.077 C 
ATOM     16  C   UNL     1      36.431 -21.697 -18.322  0.00  0.00    -0.025 C 
ENDBRANCH  13  15
BRANCH  13  17
ATOM     17  C   UNL     1      33.749 -20.975 -19.758  0.00  0.00    -0.077 C 
ATOM     18  C   UNL     1      32.710 -20.160 -20.511  0.00  0.00    -0.025 C 
ENDBRANCH  13  17
ENDBRANCH  12  13
ENDBRANCH  11  12
ENDBRANCH   2  11
TORSDOF 5
ENDMDL
MODEL 6
REMARK VINA RESULT:      -7.7      1.283      5.939
REMARK  Name = 6090
REMARK  5 active torsions:
REMARK  status: ('A' for Active; 'I' for Inactive)
REMARK    1  A    between atoms: C_2  and  C_11
REMARK    2  A    between atoms: C_11  and  C_12
REMARK    3  A    between atoms: C_12  and  N_13
REMARK    4  A    between atoms: N_13  and  C_15
REMARK    5  A    between atoms: N_13  and  C_17
REMARK                            x       y       z     vdW  Elec       q    Type
REMARK                         _______ _______ _______ _____ _____    ______ ____
ROOT
ATOM      1  N   UNL     1      35.243 -17.127 -24.092  0.00  0.00    -0.312 N 
ATOM      2  C   UNL     1      35.646 -18.016 -22.099  0.00  0.00    -0.008 C 
ATOM      3  C   UNL     1      35.047 -16.740 -21.904  0.00  0.00    +0.011 C 
ATOM      4  C   UNL     1      34.805 -16.204 -23.170  0.00  0.00    +0.048 C 
ATOM      5  C   UNL     1      35.752 -18.225 -23.454  0.00  0.00    +0.057 C 
ATOM      6  C   UNL     1      34.687 -15.988 -20.768  0.00  0.00    +0.001 C 
ATOM      7  C   UNL     1      34.219 -14.946 -23.358  0.00  0.00    +0.015 C 
ATOM      8  C   UNL     1      34.100 -14.729 -20.940  0.00  0.00    +0.000 C 
ATOM      9  C   UNL     1      33.870 -14.219 -22.217  0.00  0.00    +0.001 C 
ATOM     10  H   UNL     1      35.198 -17.013 -25.068  0.00  0.00    +0.152 HD
ENDROOT
BRANCH   2  11
ATOM     11  C   UNL     1      36.078 -18.956 -21.044  0.00  0.00    +0.005 C 
BRANCH  11  12
ATOM     12  C   UNL     1      35.309 -20.289 -21.076  0.00  0.00    -0.073 C 
BRANCH  12  13
ATOM     13  N   UNL     1      34.889 -20.707 -19.742  0.00  0.00    +0.387 N 
ATOM     14  H   UNL     1      35.095 -19.951 -19.090  0.00  0.00    -0.080 HD
BRANCH  13  15
ATOM     15  C   UNL     1      35.629 -21.898 -19.321  0.00  0.00    -0.077 C 
ATOM     16  C   UNL     1      36.555 -21.586 -18.158  0.00  0.00    -0.025 C 
ENDBRANCH  13  15
BRANCH  13  17
ATOM     17  C   UNL     1      33.449 -20.967 -19.714  0.00  0.00    -0.077 C 
ATOM     18  C   UNL     1      32.690 -19.944 -20.542  0.00  0.00    -0.025 C 
ENDBRANCH  13  17
ENDBRANCH  12  13
ENDBRANCH  11  12
ENDBRANCH   2  11
TORSDOF 5
ENDMDL
MODEL 7
REMARK VINA RESULT:      -7.5      1.807      3.079
REMARK  Name = 6090
REMARK  5 active torsions:
REMARK  status: ('A' for Active; 'I' for Inactive)
REMARK    1  A    between atoms: C_2  and  C_11
REMARK    2  A    between atoms: C_11  and  C_12
REMARK    3  A    between atoms: C_12  and  N_13
REMARK    4  A    between atoms: N_13  and  C_15
REMARK    5  A    between atoms: N_13  and  C_17
REMARK                            x       y       z     vdW  Elec       q    Type
REMARK                         _______ _______ _______ _____ _____    ______ ____
ROOT
ATOM      1  N   UNL     1      36.713 -19.578 -20.623  0.00  0.00    -0.312 N 
ATOM      2  C   UNL     1      35.201 -18.471 -21.811  0.00  0.00    -0.008 C 
ATOM      3  C   UNL     1      34.531 -19.487 -21.074  0.00  0.00    +0.011 C 
ATOM      4  C   UNL     1      35.503 -20.166 -20.337  0.00  0.00    +0.048 C 
ATOM      5  C   UNL     1      36.541 -18.552 -21.512  0.00  0.00    +0.057 C 
ATOM      6  C   UNL     1      33.186 -19.894 -20.962  0.00  0.00    +0.001 C 
ATOM      7  C   UNL     1      35.197 -21.239 -19.490  0.00  0.00    +0.015 C 
ATOM      8  C   UNL     1      32.865 -20.965 -20.120  0.00  0.00    +0.000 C 
ATOM      9  C   UNL     1      33.856 -21.625 -19.395  0.00  0.00    +0.001 C 
ATOM     10  H   UNL     1      37.578 -19.855 -20.243  0.00  0.00    +0.152 HD
ENDROOT
BRANCH   2  11
ATOM     11  C   UNL     1      34.580 -17.498 -22.733  0.00  0.00    +0.005 C 
BRANCH  11  12
ATOM     12  C   UNL     1      34.605 -16.057 -22.192  0.00  0.00    -0.073 C 
BRANCH  12  13
ATOM     13  N   UNL     1      33.491 -15.265 -22.702  0.00  0.00    +0.387 N 
ATOM     14  H   UNL     1      32.762 -15.905 -23.018  0.00  0.00    -0.080 HD
BRANCH  13  15
ATOM     15  C   UNL     1      33.918 -14.449 -23.840  0.00  0.00    -0.077 C 
ATOM     16  C   UNL     1      33.386 -15.009 -25.148  0.00  0.00    -0.025 C 
ENDBRANCH  13  15
BRANCH  13  17
ATOM     17  C   UNL     1      32.938 -14.415 -21.647  0.00  0.00    -0.077 C 
ATOM     18  C   UNL     1      32.753 -15.194 -20.355  0.00  0.00    -0.025 C 
ENDBRANCH  13  17
ENDBRANCH  12  13
ENDBRANCH  11  12
ENDBRANCH   2  11
TORSDOF 5
ENDMDL
MODEL 8
REMARK VINA RESULT:      -7.3      2.912      5.173
REMARK  Name = 6090
REMARK  5 active torsions:
REMARK  status: ('A' for Active; 'I' for Inactive)
REMARK    1  A    between atoms: C_2  and  C_11
REMARK    2  A    between atoms: C_11  and  C_12
REMARK    3  A    between atoms: C_12  and  N_13
REMARK    4  A    between atoms: N_13  and  C_15
REMARK    5  A    between atoms: N_13  and  C_17
REMARK                            x       y       z     vdW  Elec       q    Type
REMARK                         _______ _______ _______ _____ _____    ______ ____
ROOT
ATOM      1  N   UNL     1      34.421 -17.430 -25.162  0.00  0.00    -0.312 N 
ATOM      2  C   UNL     1      34.303 -15.664 -23.824  0.00  0.00    -0.008 C 
ATOM      3  C   UNL     1      34.648 -16.798 -23.035  0.00  0.00    +0.011 C 
ATOM      4  C   UNL     1      34.716 -17.892 -23.900  0.00  0.00    +0.048 C 
ATOM      5  C   UNL     1      34.171 -16.085 -25.127  0.00  0.00    +0.057 C 
ATOM      6  C   UNL     1      34.912 -16.998 -21.665  0.00  0.00    +0.001 C 
ATOM      7  C   UNL     1      35.034 -19.183 -23.461  0.00  0.00    +0.015 C 
ATOM      8  C   UNL     1      35.230 -18.283 -21.212  0.00  0.00    +0.000 C 
ATOM      9  C   UNL     1      35.291 -19.357 -22.098  0.00  0.00    +0.001 C 
ATOM     10  H   UNL     1      34.394 -17.987 -25.973  0.00  0.00    +0.152 HD
ENDROOT
BRANCH   2  11
ATOM     11  C   UNL     1      34.118 -14.280 -23.341  0.00  0.00    +0.005 C 
BRANCH  11  12
ATOM     12  C   UNL     1      32.667 -13.784 -23.484  0.00  0.00    -0.073 C 
BRANCH  12  13
ATOM     13  N   UNL     1      32.094 -13.400 -22.198  0.00  0.00    +0.387 N 
ATOM     14  H   UNL     1      31.191 -13.864 -22.099  0.00  0.00    -0.080 HD
BRANCH  13  15
ATOM     15  C   UNL     1      31.881 -11.952 -22.143  0.00  0.00    -0.077 C 
ATOM     16  C   UNL     1      31.138 -11.555 -20.879  0.00  0.00    -0.025 C 
ENDBRANCH  13  15
BRANCH  13  17
ATOM     17  C   UNL     1      32.961 -13.828 -21.100  0.00  0.00    -0.077 C 
ATOM     18  C   UNL     1      32.356 -15.002 -20.349  0.00  0.00    -0.025 C 
ENDBRANCH  13  17
ENDBRANCH  12  13
ENDBRANCH  11  12
ENDBRANCH   2  11
TORSDOF 5
ENDMDL
MODEL 9
REMARK VINA RESULT:      -7.3      2.344      6.345
REMARK  Name = 6090
REMARK  5 active torsions:
REMARK  status: ('A' for Active; 'I' for Inactive)
REMARK    1  A    between atoms: C_2  and  C_11
REMARK    2  A    between atoms: C_11  and  C_12
REMARK    3  A    between atoms: C_12  and  N_13
REMARK    4  A    between atoms: N_13  and  C_15
REMARK    5  A    between atoms: N_13  and  C_17
REMARK                            x       y       z     vdW  Elec       q    Type
REMARK                         _______ _______ _______ _____ _____    ______ ____
ROOT
ATOM      1  N   UNL     1      34.128 -14.324 -23.761  0.00  0.00    -0.312 N 
ATOM      2  C   UNL     1      34.362 -15.534 -21.916  0.00  0.00    -0.008 C 
ATOM      3  C   UNL     1      33.475 -14.459 -21.632  0.00  0.00    +0.011 C 
ATOM      4  C   UNL     1      33.345 -13.715 -22.807  0.00  0.00    +0.048 C 
ATOM      5  C   UNL     1      34.746 -15.424 -23.232  0.00  0.00    +0.057 C 
ATOM      6  C   UNL     1      32.767 -14.046 -20.486  0.00  0.00    +0.001 C 
ATOM      7  C   UNL     1      32.540 -12.573 -22.893  0.00  0.00    +0.015 C 
ATOM      8  C   UNL     1      31.958 -12.906 -20.557  0.00  0.00    +0.000 C 
ATOM      9  C   UNL     1      31.847 -12.183 -21.743  0.00  0.00    +0.001 C 
ATOM     10  H   UNL     1      34.229 -14.012 -24.689  0.00  0.00    +0.152 HD
ENDROOT
BRANCH   2  11
ATOM     11  C   UNL     1      34.799 -16.586 -20.974  0.00  0.00    +0.005 C 
BRANCH  11  12
ATOM     12  C   UNL     1      35.502 -17.764 -21.674  0.00  0.00    -0.073 C 
BRANCH  12  13
ATOM     13  N   UNL     1      34.553 -18.783 -22.108  0.00  0.00    +0.387 N 
ATOM     14  H   UNL     1      33.658 -18.329 -22.292  0.00  0.00    -0.080 HD
BRANCH  13  15
ATOM     15  C   UNL     1      34.358 -19.785 -21.058  0.00  0.00    -0.077 C 
ATOM     16  C   UNL     1      32.890 -19.918 -20.691  0.00  0.00    -0.025 C 
ENDBRANCH  13  15
BRANCH  13  17
ATOM     17  C   UNL     1      35.013 -19.423 -23.341  0.00  0.00    -0.077 C 
ATOM     18  C   UNL     1      34.402 -18.760 -24.564  0.00  0.00    -0.025 C 
ENDBRANCH  13  17
ENDBRANCH  12  13
ENDBRANCH  11  12
ENDBRANCH   2  11
TORSDOF 5
ENDMDL
