MODEL 1
REMARK VINA RESULT:      -8.4      0.000      0.000
REMARK  Name = 5573
REMARK  10 active torsions:
REMARK  status: ('A' for Active; 'I' for Inactive)
REMARK    1  A    between atoms: O_1  and  C_3
REMARK    2  A    between atoms: O_1  and  C_16
REMARK    3  A    between atoms: C_3  and  C_4
REMARK    4  A    between atoms: C_7  and  O_10
REMARK    5  A    between atoms: C_8  and  O_12
REMARK    6  A    between atoms: C_9  and  O_14
REMARK    7  A    between atoms: C_16  and  C_17
REMARK    8  A    between atoms: C_17  and  C_18
REMARK    9  A    between atoms: C_17  and  N_24
REMARK   10  A    between atoms: C_17  and  C_28
REMARK                            x       y       z     vdW  Elec       q    Type
REMARK                         _______ _______ _______ _____ _____    ______ ____
ROOT
ATOM      1  O   UNL     1      33.387 -10.468 -23.530  0.00  0.00    -0.447 OA
ENDROOT
BRANCH   1   3
ATOM      2  O   UNL     1      33.963 -10.904 -25.716  0.00  0.00    -0.245 OA
ATOM      3  C   UNL     1      33.726 -11.270 -24.575  0.00  0.00    +0.341 C 
BRANCH   3   4
ATOM      4  C   UNL     1      33.772 -12.692 -24.150  0.00  0.00    +0.082 C 
ATOM      5  C   UNL     1      33.686 -13.707 -25.102  0.00  0.00    +0.047 C 
ATOM      6  C   UNL     1      33.904 -13.013 -22.799  0.00  0.00    +0.047 C 
ATOM      7  C   UNL     1      33.950 -14.349 -22.401  0.00  0.00    +0.176 C 
ATOM      8  C   UNL     1      33.732 -15.044 -24.704  0.00  0.00    +0.176 C 
ATOM      9  C   UNL     1      33.864 -15.364 -23.353  0.00  0.00    +0.206 C 
BRANCH   7  10
ATOM     10  O   UNL     1      34.080 -14.649 -21.078  0.00  0.00    -0.468 OA
ATOM     11  C   UNL     1      32.877 -14.808 -20.329  0.00  0.00    +0.253 C 
ENDBRANCH   7  10
BRANCH   8  12
ATOM     12  O   UNL     1      33.648 -16.026 -25.644  0.00  0.00    -0.468 OA
ATOM     13  C   UNL     1      32.650 -15.874 -26.652  0.00  0.00    +0.253 C 
ENDBRANCH   8  12
BRANCH   9  14
ATOM     14  O   UNL     1      33.907 -16.670 -22.963  0.00  0.00    -0.465 OA
ATOM     15  C   UNL     1      35.195 -17.272 -22.862  0.00  0.00    +0.253 C 
ENDBRANCH   9  14
ENDBRANCH   3   4
ENDBRANCH   1   3
BRANCH   1  16
ATOM     16  C   UNL     1      32.597  -9.326 -23.851  0.00  0.00    +0.194 C 
BRANCH  16  17
ATOM     17  C   UNL     1      32.260  -8.513 -22.573  0.00  0.00    +0.018 C 
BRANCH  17  18
ATOM     18  C   UNL     1      31.944  -9.457 -21.401  0.00  0.00    -0.037 C 
ATOM     19  C   UNL     1      32.321  -9.108 -20.104  0.00  0.00    -0.006 C 
ATOM     20  C   UNL     1      31.278 -10.661 -21.633  0.00  0.00    -0.006 C 
ATOM     21  C   UNL     1      32.034  -9.964 -19.040  0.00  0.00    -0.000 C 
ATOM     22  C   UNL     1      30.991 -11.516 -20.570  0.00  0.00    -0.000 C 
ATOM     23  C   UNL     1      31.369 -11.168 -19.274  0.00  0.00    -0.000 C 
ENDBRANCH  17  18
BRANCH  17  24
ATOM     24  N   UNL     1      31.131  -7.627 -22.921  0.00  0.00    +0.391 N 
ATOM     25  C   UNL     1      31.262  -6.357 -22.217  0.00  0.00    -0.100 C 
ATOM     26  C   UNL     1      31.085  -7.423 -24.363  0.00  0.00    -0.100 C 
ATOM     27  H   UNL     1      30.256  -8.063 -22.632  0.00  0.00    -0.079 HD
ENDBRANCH  17  24
BRANCH  17  28
ATOM     28  C   UNL     1      33.480  -7.606 -22.232  0.00  0.00    -0.011 C 
ATOM     29  C   UNL     1      34.585  -7.581 -23.286  0.00  0.00    -0.002 C 
ENDBRANCH  17  28
ENDBRANCH  16  17
ENDBRANCH   1  16
TORSDOF 10
ENDMDL
MODEL 2
REMARK VINA RESULT:      -8.3      0.018      2.325
REMARK  Name = 5573
REMARK  10 active torsions:
REMARK  status: ('A' for Active; 'I' for Inactive)
REMARK    1  A    between atoms: O_1  and  C_3
REMARK    2  A    between atoms: O_1  and  C_16
REMARK    3  A    between atoms: C_3  and  C_4
REMARK    4  A    between atoms: C_7  and  O_10
REMARK    5  A    between atoms: C_8  and  O_12
REMARK    6  A    between atoms: C_9  and  O_14
REMARK    7  A    between atoms: C_16  and  C_17
REMARK    8  A    between atoms: C_17  and  C_18
REMARK    9  A    between atoms: C_17  and  N_24
REMARK   10  A    between atoms: C_17  and  C_28
REMARK                            x       y       z     vdW  Elec       q    Type
REMARK                         _______ _______ _______ _____ _____    ______ ____
ROOT
ATOM      1  O   UNL     1      33.379 -10.482 -23.523  0.00  0.00    -0.447 OA
ENDROOT
BRANCH   1   3
ATOM      2  O   UNL     1      33.979 -10.911 -25.704  0.00  0.00    -0.245 OA
ATOM      3  C   UNL     1      33.732 -11.280 -24.566  0.00  0.00    +0.341 C 
BRANCH   3   4
ATOM      4  C   UNL     1      33.781 -12.703 -24.143  0.00  0.00    +0.082 C 
ATOM      5  C   UNL     1      33.910 -13.025 -22.792  0.00  0.00    +0.047 C 
ATOM      6  C   UNL     1      33.697 -13.718 -25.097  0.00  0.00    +0.047 C 
ATOM      7  C   UNL     1      33.741 -15.054 -24.699  0.00  0.00    +0.176 C 
ATOM      8  C   UNL     1      33.954 -14.361 -22.394  0.00  0.00    +0.176 C 
ATOM      9  C   UNL     1      33.870 -15.376 -23.348  0.00  0.00    +0.206 C 
BRANCH   7  10
ATOM     10  O   UNL     1      33.658 -16.035 -25.640  0.00  0.00    -0.468 OA
ATOM     11  C   UNL     1      32.652 -15.889 -26.641  0.00  0.00    +0.253 C 
ENDBRANCH   7  10
BRANCH   8  12
ATOM     12  O   UNL     1      34.079 -14.663 -21.072  0.00  0.00    -0.468 OA
ATOM     13  C   UNL     1      32.873 -14.843 -20.331  0.00  0.00    +0.253 C 
ENDBRANCH   8  12
BRANCH   9  14
ATOM     14  O   UNL     1      33.914 -16.682 -22.960  0.00  0.00    -0.465 OA
ATOM     15  C   UNL     1      35.203 -17.282 -22.855  0.00  0.00    +0.253 C 
ENDBRANCH   9  14
ENDBRANCH   3   4
ENDBRANCH   1   3
BRANCH   1  16
ATOM     16  C   UNL     1      32.604  -9.332 -23.853  0.00  0.00    +0.194 C 
BRANCH  16  17
ATOM     17  C   UNL     1      32.261  -8.516 -22.579  0.00  0.00    +0.018 C 
BRANCH  17  18
ATOM     18  C   UNL     1      31.939  -9.457 -21.406  0.00  0.00    -0.037 C 
ATOM     19  C   UNL     1      32.335  -9.119 -20.111  0.00  0.00    -0.006 C 
ATOM     20  C   UNL     1      31.249 -10.648 -21.635  0.00  0.00    -0.006 C 
ATOM     21  C   UNL     1      32.043  -9.972 -19.047  0.00  0.00    -0.000 C 
ATOM     22  C   UNL     1      30.957 -11.501 -20.571  0.00  0.00    -0.000 C 
ATOM     23  C   UNL     1      31.353 -11.163 -19.278  0.00  0.00    -0.000 C 
ENDBRANCH  17  18
BRANCH  17  24
ATOM     24  N   UNL     1      31.133  -7.631 -22.934  0.00  0.00    +0.391 N 
ATOM     25  C   UNL     1      31.255  -6.364 -22.224  0.00  0.00    -0.100 C 
ATOM     26  C   UNL     1      31.101  -7.422 -24.376  0.00  0.00    -0.100 C 
ATOM     27  H   UNL     1      30.256  -8.070 -22.655  0.00  0.00    -0.079 HD
ENDBRANCH  17  24
BRANCH  17  28
ATOM     28  C   UNL     1      33.479  -7.609 -22.233  0.00  0.00    -0.011 C 
ATOM     29  C   UNL     1      34.585  -7.580 -23.286  0.00  0.00    -0.002 C 
ENDBRANCH  17  28
ENDBRANCH  16  17
ENDBRANCH   1  16
TORSDOF 10
ENDMDL
MODEL 3
REMARK VINA RESULT:      -7.9      6.193      9.933
REMARK  Name = 5573
REMARK  10 active torsions:
REMARK  status: ('A' for Active; 'I' for Inactive)
REMARK    1  A    between atoms: O_1  and  C_3
REMARK    2  A    between atoms: O_1  and  C_16
REMARK    3  A    between atoms: C_3  and  C_4
REMARK    4  A    between atoms: C_7  and  O_10
REMARK    5  A    between atoms: C_8  and  O_12
REMARK    6  A    between atoms: C_9  and  O_14
REMARK    7  A    between atoms: C_16  and  C_17
REMARK    8  A    between atoms: C_17  and  C_18
REMARK    9  A    between atoms: C_17  and  N_24
REMARK   10  A    between atoms: C_17  and  C_28
REMARK                            x       y       z     vdW  Elec       q    Type
REMARK                         _______ _______ _______ _____ _____    ______ ____
ROOT
ATOM      1  O   UNL     1      34.466 -20.254 -20.927  0.00  0.00    -0.447 OA
ENDROOT
BRANCH   1   3
ATOM      2  O   UNL     1      32.224 -20.702 -20.660  0.00  0.00    -0.245 OA
ATOM      3  C   UNL     1      33.391 -20.822 -20.319  0.00  0.00    +0.341 C 
BRANCH   3   4
ATOM      4  C   UNL     1      33.818 -21.630 -19.149  0.00  0.00    +0.082 C 
ATOM      5  C   UNL     1      35.166 -21.691 -18.798  0.00  0.00    +0.047 C 
ATOM      6  C   UNL     1      32.870 -22.328 -18.400  0.00  0.00    +0.047 C 
ATOM      7  C   UNL     1      33.272 -23.086 -17.299  0.00  0.00    +0.176 C 
ATOM      8  C   UNL     1      35.568 -22.449 -17.698  0.00  0.00    +0.176 C 
ATOM      9  C   UNL     1      34.621 -23.146 -16.949  0.00  0.00    +0.206 C 
BRANCH   7  10
ATOM     10  O   UNL     1      32.337 -23.762 -16.575  0.00  0.00    -0.468 OA
ATOM     11  C   UNL     1      31.183 -23.031 -16.164  0.00  0.00    +0.253 C 
ENDBRANCH   7  10
BRANCH   8  12
ATOM     12  O   UNL     1      36.888 -22.499 -17.365  0.00  0.00    -0.468 OA
ATOM     13  C   UNL     1      37.392 -21.441 -16.553  0.00  0.00    +0.253 C 
ENDBRANCH   8  12
BRANCH   9  14
ATOM     14  O   UNL     1      35.013 -23.888 -15.874  0.00  0.00    -0.465 OA
ATOM     15  C   UNL     1      34.903 -23.277 -14.591  0.00  0.00    +0.253 C 
ENDBRANCH   9  14
ENDBRANCH   3   4
ENDBRANCH   1   3
BRANCH   1  16
ATOM     16  C   UNL     1      34.182 -19.442 -22.064  0.00  0.00    +0.194 C 
BRANCH  16  17
ATOM     17  C   UNL     1      35.056 -18.159 -22.056  0.00  0.00    +0.018 C 
BRANCH  17  18
ATOM     18  C   UNL     1      34.279 -16.981 -21.445  0.00  0.00    -0.037 C 
ATOM     19  C   UNL     1      32.907 -17.095 -21.216  0.00  0.00    -0.006 C 
ATOM     20  C   UNL     1      34.944 -15.800 -21.118  0.00  0.00    -0.006 C 
ATOM     21  C   UNL     1      32.202 -16.027 -20.661  0.00  0.00    -0.000 C 
ATOM     22  C   UNL     1      34.240 -14.731 -20.564  0.00  0.00    -0.000 C 
ATOM     23  C   UNL     1      32.869 -14.845 -20.335  0.00  0.00    -0.000 C 
ENDBRANCH  17  18
BRANCH  17  24
ATOM     24  N   UNL     1      35.465 -17.918 -23.454  0.00  0.00    +0.391 N 
ATOM     25  C   UNL     1      34.889 -18.937 -24.323  0.00  0.00    -0.100 C 
ATOM     26  C   UNL     1      35.052 -16.583 -23.869  0.00  0.00    -0.100 C 
ATOM     27  H   UNL     1      36.480 -17.975 -23.525  0.00  0.00    -0.079 HD
ENDBRANCH  17  24
BRANCH  17  28
ATOM     28  C   UNL     1      36.347 -18.449 -21.233  0.00  0.00    -0.011 C 
ATOM     29  C   UNL     1      37.600 -18.716 -22.065  0.00  0.00    -0.002 C 
ENDBRANCH  17  28
ENDBRANCH  16  17
ENDBRANCH   1  16
TORSDOF 10
ENDMDL
MODEL 4
REMARK VINA RESULT:      -7.9      6.177      9.904
REMARK  Name = 5573
REMARK  10 active torsions:
REMARK  status: ('A' for Active; 'I' for Inactive)
REMARK    1  A    between atoms: O_1  and  C_3
REMARK    2  A    between atoms: O_1  and  C_16
REMARK    3  A    between atoms: C_3  and  C_4
REMARK    4  A    between atoms: C_7  and  O_10
REMARK    5  A    between atoms: C_8  and  O_12
REMARK    6  A    between atoms: C_9  and  O_14
REMARK    7  A    between atoms: C_16  and  C_17
REMARK    8  A    between atoms: C_17  and  C_18
REMARK    9  A    between atoms: C_17  and  N_24
REMARK   10  A    between atoms: C_17  and  C_28
REMARK                            x       y       z     vdW  Elec       q    Type
REMARK                         _______ _______ _______ _____ _____    ______ ____
ROOT
ATOM      1  O   UNL     1      34.445 -20.164 -20.886  0.00  0.00    -0.447 OA
ENDROOT
BRANCH   1   3
ATOM      2  O   UNL     1      32.222 -20.734 -20.714  0.00  0.00    -0.245 OA
ATOM      3  C   UNL     1      33.380 -20.802 -20.332  0.00  0.00    +0.341 C 
BRANCH   3   4
ATOM      4  C   UNL     1      33.805 -21.617 -19.166  0.00  0.00    +0.082 C 
ATOM      5  C   UNL     1      32.858 -22.325 -18.428  0.00  0.00    +0.047 C 
ATOM      6  C   UNL     1      35.153 -21.676 -18.811  0.00  0.00    +0.047 C 
ATOM      7  C   UNL     1      35.553 -22.444 -17.717  0.00  0.00    +0.176 C 
ATOM      8  C   UNL     1      33.257 -23.093 -17.333  0.00  0.00    +0.176 C 
ATOM      9  C   UNL     1      34.605 -23.152 -16.978  0.00  0.00    +0.206 C 
BRANCH   7  10
ATOM     10  O   UNL     1      36.872 -22.494 -17.380  0.00  0.00    -0.468 OA
ATOM     11  C   UNL     1      37.380 -21.421 -16.589  0.00  0.00    +0.253 C 
ENDBRANCH   7  10
BRANCH   8  12
ATOM     12  O   UNL     1      32.322 -23.781 -16.620  0.00  0.00    -0.468 OA
ATOM     13  C   UNL     1      31.155 -23.064 -16.221  0.00  0.00    +0.253 C 
ENDBRANCH   8  12
BRANCH   9  14
ATOM     14  O   UNL     1      34.996 -23.901 -15.908  0.00  0.00    -0.465 OA
ATOM     15  C   UNL     1      34.906 -23.290 -14.623  0.00  0.00    +0.253 C 
ENDBRANCH   9  14
ENDBRANCH   3   4
ENDBRANCH   1   3
BRANCH   1  16
ATOM     16  C   UNL     1      34.176 -19.407 -22.063  0.00  0.00    +0.194 C 
BRANCH  16  17
ATOM     17  C   UNL     1      35.041 -18.119 -22.099  0.00  0.00    +0.018 C 
BRANCH  17  18
ATOM     18  C   UNL     1      34.268 -16.933 -21.499  0.00  0.00    -0.037 C 
ATOM     19  C   UNL     1      32.898 -17.044 -21.258  0.00  0.00    -0.006 C 
ATOM     20  C   UNL     1      34.935 -15.746 -21.194  0.00  0.00    -0.006 C 
ATOM     21  C   UNL     1      32.196 -15.968 -20.713  0.00  0.00    -0.000 C 
ATOM     22  C   UNL     1      34.233 -14.671 -20.650  0.00  0.00    -0.000 C 
ATOM     23  C   UNL     1      32.865 -14.782 -20.410  0.00  0.00    -0.000 C 
ENDBRANCH  17  18
BRANCH  17  24
ATOM     24  N   UNL     1      35.422 -17.905 -23.509  0.00  0.00    +0.391 N 
ATOM     25  C   UNL     1      34.856 -18.959 -24.342  0.00  0.00    -0.100 C 
ATOM     26  C   UNL     1      34.974 -16.591 -23.952  0.00  0.00    -0.100 C 
ATOM     27  H   UNL     1      36.438 -17.942 -23.595  0.00  0.00    -0.079 HD
ENDBRANCH  17  24
BRANCH  17  28
ATOM     28  C   UNL     1      36.348 -18.383 -21.294  0.00  0.00    -0.011 C 
ATOM     29  C   UNL     1      37.577 -18.710 -22.142  0.00  0.00    -0.002 C 
ENDBRANCH  17  28
ENDBRANCH  16  17
ENDBRANCH   1  16
TORSDOF 10
ENDMDL
MODEL 5
REMARK VINA RESULT:      -7.8      1.634      3.480
REMARK  Name = 5573
REMARK  10 active torsions:
REMARK  status: ('A' for Active; 'I' for Inactive)
REMARK    1  A    between atoms: O_1  and  C_3
REMARK    2  A    between atoms: O_1  and  C_16
REMARK    3  A    between atoms: C_3  and  C_4
REMARK    4  A    between atoms: C_7  and  O_10
REMARK    5  A    between atoms: C_8  and  O_12
REMARK    6  A    between atoms: C_9  and  O_14
REMARK    7  A    between atoms: C_16  and  C_17
REMARK    8  A    between atoms: C_17  and  C_18
REMARK    9  A    between atoms: C_17  and  N_24
REMARK   10  A    between atoms: C_17  and  C_28
REMARK                            x       y       z     vdW  Elec       q    Type
REMARK                         _______ _______ _______ _____ _____    ______ ____
ROOT
ATOM      1  O   UNL     1      32.281 -12.268 -22.649  0.00  0.00    -0.447 OA
ENDROOT
BRANCH   1   3
ATOM      2  O   UNL     1      32.301 -13.345 -20.615  0.00  0.00    -0.245 OA
ATOM      3  C   UNL     1      32.562 -13.297 -21.808  0.00  0.00    +0.341 C 
BRANCH   3   4
ATOM      4  C   UNL     1      33.251 -14.394 -22.534  0.00  0.00    +0.082 C 
ATOM      5  C   UNL     1      33.173 -14.466 -23.924  0.00  0.00    +0.047 C 
ATOM      6  C   UNL     1      33.978 -15.352 -21.825  0.00  0.00    +0.047 C 
ATOM      7  C   UNL     1      34.627 -16.381 -22.509  0.00  0.00    +0.176 C 
ATOM      8  C   UNL     1      33.822 -15.495 -24.608  0.00  0.00    +0.176 C 
ATOM      9  C   UNL     1      34.549 -16.452 -23.899  0.00  0.00    +0.206 C 
BRANCH   7  10
ATOM     10  O   UNL     1      35.333 -17.309 -21.805  0.00  0.00    -0.468 OA
ATOM     11  C   UNL     1      34.588 -18.350 -21.176  0.00  0.00    +0.253 C 
ENDBRANCH   7  10
BRANCH   8  12
ATOM     12  O   UNL     1      33.740 -15.554 -25.966  0.00  0.00    -0.468 OA
ATOM     13  C   UNL     1      33.002 -14.520 -26.616  0.00  0.00    +0.253 C 
ENDBRANCH   8  12
BRANCH   9  14
ATOM     14  O   UNL     1      35.182 -17.459 -24.566  0.00  0.00    -0.465 OA
ATOM     15  C   UNL     1      34.416 -18.626 -24.854  0.00  0.00    +0.253 C 
ENDBRANCH   9  14
ENDBRANCH   3   4
ENDBRANCH   1   3
BRANCH   1  16
ATOM     16  C   UNL     1      31.453 -11.236 -22.118  0.00  0.00    +0.194 C 
BRANCH  16  17
ATOM     17  C   UNL     1      32.022  -9.836 -22.472  0.00  0.00    +0.018 C 
BRANCH  17  18
ATOM     18  C   UNL     1      33.163  -9.961 -23.496  0.00  0.00    -0.037 C 
ATOM     19  C   UNL     1      34.215  -9.044 -23.482  0.00  0.00    -0.006 C 
ATOM     20  C   UNL     1      33.149 -10.991 -24.436  0.00  0.00    -0.006 C 
ATOM     21  C   UNL     1      35.250  -9.157 -24.410  0.00  0.00    -0.000 C 
ATOM     22  C   UNL     1      34.184 -11.104 -25.364  0.00  0.00    -0.000 C 
ATOM     23  C   UNL     1      35.234 -10.188 -25.351  0.00  0.00    -0.000 C 
ENDBRANCH  17  18
BRANCH  17  24
ATOM     24  N   UNL     1      32.453  -9.221 -21.200  0.00  0.00    +0.391 N 
ATOM     25  C   UNL     1      32.088  -7.810 -21.184  0.00  0.00    -0.100 C 
ATOM     26  C   UNL     1      31.854  -9.930 -20.077  0.00  0.00    -0.100 C 
ATOM     27  H   UNL     1      33.467  -9.289 -21.117  0.00  0.00    -0.079 HD
ENDBRANCH  17  24
BRANCH  17  28
ATOM     28  C   UNL     1      30.865  -8.966 -23.046  0.00  0.00    -0.011 C 
ATOM     29  C   UNL     1      31.281  -7.956 -24.114  0.00  0.00    -0.002 C 
ENDBRANCH  17  28
ENDBRANCH  16  17
ENDBRANCH   1  16
TORSDOF 10
ENDMDL
MODEL 6
REMARK VINA RESULT:      -7.8      1.631      3.995
REMARK  Name = 5573
REMARK  10 active torsions:
REMARK  status: ('A' for Active; 'I' for Inactive)
REMARK    1  A    between atoms: O_1  and  C_3
REMARK    2  A    between atoms: O_1  and  C_16
REMARK    3  A    between atoms: C_3  and  C_4
REMARK    4  A    between atoms: C_7  and  O_10
REMARK    5  A    between atoms: C_8  and  O_12
REMARK    6  A    between atoms: C_9  and  O_14
REMARK    7  A    between atoms: C_16  and  C_17
REMARK    8  A    between atoms: C_17  and  C_18
REMARK    9  A    between atoms: C_17  and  N_24
REMARK   10  A    between atoms: C_17  and  C_28
REMARK                            x       y       z     vdW  Elec       q    Type
REMARK                         _______ _______ _______ _____ _____    ______ ____
ROOT
ATOM      1  O   UNL     1      32.302 -12.161 -22.567  0.00  0.00    -0.447 OA
ENDROOT
BRANCH   1   3
ATOM      2  O   UNL     1      32.261 -13.318 -20.578  0.00  0.00    -0.245 OA
ATOM      3  C   UNL     1      32.547 -13.229 -21.762  0.00  0.00    +0.341 C 
BRANCH   3   4
ATOM      4  C   UNL     1      33.229 -14.309 -22.519  0.00  0.00    +0.082 C 
ATOM      5  C   UNL     1      34.026 -15.235 -21.846  0.00  0.00    +0.047 C 
ATOM      6  C   UNL     1      33.071 -14.400 -23.902  0.00  0.00    +0.047 C 
ATOM      7  C   UNL     1      33.710 -15.417 -24.612  0.00  0.00    +0.176 C 
ATOM      8  C   UNL     1      34.665 -16.252 -22.555  0.00  0.00    +0.176 C 
ATOM      9  C   UNL     1      34.507 -16.343 -23.939  0.00  0.00    +0.206 C 
BRANCH   7  10
ATOM     10  O   UNL     1      33.547 -15.494 -25.962  0.00  0.00    -0.468 OA
ATOM     11  C   UNL     1      33.058 -14.329 -26.624  0.00  0.00    +0.253 C 
ENDBRANCH   7  10
BRANCH   8  12
ATOM     12  O   UNL     1      35.440 -17.151 -21.887  0.00  0.00    -0.468 OA
ATOM     13  C   UNL     1      34.765 -18.192 -21.183  0.00  0.00    +0.253 C 
ENDBRANCH   8  12
BRANCH   9  14
ATOM     14  O   UNL     1      35.133 -17.335 -24.633  0.00  0.00    -0.465 OA
ATOM     15  C   UNL     1      34.393 -18.533 -24.859  0.00  0.00    +0.253 C 
ENDBRANCH   9  14
ENDBRANCH   3   4
ENDBRANCH   1   3
BRANCH   1  16
ATOM     16  C   UNL     1      31.481 -11.137 -22.012  0.00  0.00    +0.194 C 
BRANCH  16  17
ATOM     17  C   UNL     1      32.034  -9.732 -22.372  0.00  0.00    +0.018 C 
BRANCH  17  18
ATOM     18  C   UNL     1      33.169  -9.848 -23.404  0.00  0.00    -0.037 C 
ATOM     19  C   UNL     1      34.196  -8.904 -23.419  0.00  0.00    -0.006 C 
ATOM     20  C   UNL     1      33.172 -10.896 -24.324  0.00  0.00    -0.006 C 
ATOM     21  C   UNL     1      35.225  -9.008 -24.355  0.00  0.00    -0.000 C 
ATOM     22  C   UNL     1      34.201 -11.001 -25.260  0.00  0.00    -0.000 C 
ATOM     23  C   UNL     1      35.227 -10.057 -25.275  0.00  0.00    -0.000 C 
ENDBRANCH  17  18
BRANCH  17  24
ATOM     24  N   UNL     1      32.469  -9.111 -21.104  0.00  0.00    +0.391 N 
ATOM     25  C   UNL     1      32.043  -7.718 -21.063  0.00  0.00    -0.100 C 
ATOM     26  C   UNL     1      31.929  -9.857 -19.975  0.00  0.00    -0.100 C 
ATOM     27  H   UNL     1      33.487  -9.135 -21.046  0.00  0.00    -0.079 HD
ENDBRANCH  17  24
BRANCH  17  28
ATOM     28  C   UNL     1      30.865  -8.874 -22.938  0.00  0.00    -0.011 C 
ATOM     29  C   UNL     1      31.241  -7.944 -24.090  0.00  0.00    -0.002 C 
ENDBRANCH  17  28
ENDBRANCH  16  17
ENDBRANCH   1  16
TORSDOF 10
ENDMDL
MODEL 7
REMARK VINA RESULT:      -7.8      1.922      4.638
REMARK  Name = 5573
REMARK  10 active torsions:
REMARK  status: ('A' for Active; 'I' for Inactive)
REMARK    1  A    between atoms: O_1  and  C_3
REMARK    2  A    between atoms: O_1  and  C_16
REMARK    3  A    between atoms: C_3  and  C_4
REMARK    4  A    between atoms: C_7  and  O_10
REMARK    5  A    between atoms: C_8  and  O_12
REMARK    6  A    between atoms: C_9  and  O_14
REMARK    7  A    between atoms: C_16  and  C_17
REMARK    8  A    between atoms: C_17  and  C_18
REMARK    9  A    between atoms: C_17  and  N_24
REMARK   10  A    between atoms: C_17  and  C_28
REMARK                            x       y       z     vdW  Elec       q    Type
REMARK                         _______ _______ _______ _____ _____    ______ ____
ROOT
ATOM      1  O   UNL     1      31.626  -9.156 -22.210  0.00  0.00    -0.447 OA
ENDROOT
BRANCH   1   3
ATOM      2  O   UNL     1      31.594 -10.139 -20.129  0.00  0.00    -0.245 OA
ATOM      3  C   UNL     1      31.780 -10.185 -21.335  0.00  0.00    +0.341 C 
BRANCH   3   4
ATOM      4  C   UNL     1      32.218 -11.414 -22.044  0.00  0.00    +0.082 C 
ATOM      5  C   UNL     1      31.967 -12.668 -21.486  0.00  0.00    +0.047 C 
ATOM      6  C   UNL     1      32.878 -11.315 -23.269  0.00  0.00    +0.047 C 
ATOM      7  C   UNL     1      33.287 -12.471 -23.936  0.00  0.00    +0.176 C 
ATOM      8  C   UNL     1      32.375 -13.823 -22.153  0.00  0.00    +0.176 C 
ATOM      9  C   UNL     1      33.036 -13.724 -23.378  0.00  0.00    +0.206 C 
BRANCH   7  10
ATOM     10  O   UNL     1      33.930 -12.360 -25.132  0.00  0.00    -0.468 OA
ATOM     11  C   UNL     1      34.523 -11.099 -25.435  0.00  0.00    +0.253 C 
ENDBRANCH   7  10
BRANCH   8  12
ATOM     12  O   UNL     1      32.124 -15.041 -21.599  0.00  0.00    -0.468 OA
ATOM     13  C   UNL     1      32.761 -15.331 -20.355  0.00  0.00    +0.253 C 
ENDBRANCH   8  12
BRANCH   9  14
ATOM     14  O   UNL     1      33.437 -14.852 -24.029  0.00  0.00    -0.465 OA
ATOM     15  C   UNL     1      34.680 -15.423 -23.630  0.00  0.00    +0.253 C 
ENDBRANCH   9  14
ENDBRANCH   3   4
ENDBRANCH   1   3
BRANCH   1  16
ATOM     16  C   UNL     1      32.513  -8.054 -22.038  0.00  0.00    +0.194 C 
BRANCH  16  17
ATOM     17  C   UNL     1      31.957  -6.785 -22.739  0.00  0.00    +0.018 C 
BRANCH  17  18
ATOM     18  C   UNL     1      32.845  -6.395 -23.932  0.00  0.00    -0.037 C 
ATOM     19  C   UNL     1      34.076  -7.027 -24.121  0.00  0.00    -0.006 C 
ATOM     20  C   UNL     1      32.421  -5.413 -24.827  0.00  0.00    -0.006 C 
ATOM     21  C   UNL     1      34.881  -6.674 -25.203  0.00  0.00    -0.000 C 
ATOM     22  C   UNL     1      33.227  -5.060 -25.910  0.00  0.00    -0.000 C 
ATOM     23  C   UNL     1      34.456  -5.690 -26.098  0.00  0.00    -0.000 C 
ENDBRANCH  17  18
BRANCH  17  24
ATOM     24  N   UNL     1      31.882  -5.731 -21.707  0.00  0.00    +0.391 N 
ATOM     25  C   UNL     1      30.537  -5.168 -21.671  0.00  0.00    -0.100 C 
ATOM     26  C   UNL     1      32.255  -6.277 -20.409  0.00  0.00    -0.100 C 
ATOM     27  H   UNL     1      32.534  -4.982 -21.939  0.00  0.00    -0.079 HD
ENDBRANCH  17  24
BRANCH  17  28
ATOM     28  C   UNL     1      30.504  -7.083 -23.213  0.00  0.00    -0.011 C 
ATOM     29  C   UNL     1      30.395  -7.840 -24.535  0.00  0.00    -0.002 C 
ENDBRANCH  17  28
ENDBRANCH  16  17
ENDBRANCH   1  16
TORSDOF 10
ENDMDL
MODEL 8
REMARK VINA RESULT:      -7.7     10.272     14.735
REMARK  Name = 5573
REMARK  10 active torsions:
REMARK  status: ('A' for Active; 'I' for Inactive)
REMARK    1  A    between atoms: O_1  and  C_3
REMARK    2  A    between atoms: O_1  and  C_16
REMARK    3  A    between atoms: C_3  and  C_4
REMARK    4  A    between atoms: C_7  and  O_10
REMARK    5  A    between atoms: C_8  and  O_12
REMARK    6  A    between atoms: C_9  and  O_14
REMARK    7  A    between atoms: C_16  and  C_17
REMARK    8  A    between atoms: C_17  and  C_18
REMARK    9  A    between atoms: C_17  and  N_24
REMARK   10  A    between atoms: C_17  and  C_28
REMARK                            x       y       z     vdW  Elec       q    Type
REMARK                         _______ _______ _______ _____ _____    ______ ____
ROOT
ATOM      1  O   UNL     1      36.799 -23.562 -16.378  0.00  0.00    -0.447 OA
ENDROOT
BRANCH   1   3
ATOM      2  O   UNL     1      37.790 -21.487 -16.482  0.00  0.00    -0.245 OA
ATOM      3  C   UNL     1      36.935 -22.287 -16.830  0.00  0.00    +0.341 C 
BRANCH   3   4
ATOM      4  C   UNL     1      35.883 -21.971 -17.829  0.00  0.00    +0.082 C 
ATOM      5  C   UNL     1      34.566 -22.371 -17.605  0.00  0.00    +0.047 C 
ATOM      6  C   UNL     1      36.212 -21.272 -18.991  0.00  0.00    +0.047 C 
ATOM      7  C   UNL     1      35.223 -20.973 -19.928  0.00  0.00    +0.176 C 
ATOM      8  C   UNL     1      33.577 -22.072 -18.542  0.00  0.00    +0.176 C 
ATOM      9  C   UNL     1      33.906 -21.373 -19.704  0.00  0.00    +0.206 C 
BRANCH   7  10
ATOM     10  O   UNL     1      35.557 -20.290 -21.058  0.00  0.00    -0.468 OA
ATOM     11  C   UNL     1      36.277 -19.070 -20.889  0.00  0.00    +0.253 C 
ENDBRANCH   7  10
BRANCH   8  12
ATOM     12  O   UNL     1      32.294 -22.467 -18.312  0.00  0.00    -0.468 OA
ATOM     13  C   UNL     1      31.996 -22.976 -17.013  0.00  0.00    +0.253 C 
ENDBRANCH   8  12
BRANCH   9  14
ATOM     14  O   UNL     1      32.940 -21.082 -20.621  0.00  0.00    -0.465 OA
ATOM     15  C   UNL     1      32.449 -19.744 -20.642  0.00  0.00    +0.253 C 
ENDBRANCH   9  14
ENDBRANCH   3   4
ENDBRANCH   1   3
BRANCH   1  16
ATOM     16  C   UNL     1      37.535 -23.888 -15.201  0.00  0.00    +0.194 C 
BRANCH  16  17
ATOM     17  C   UNL     1      36.739 -24.881 -14.313  0.00  0.00    +0.018 C 
BRANCH  17  18
ATOM     18  C   UNL     1      36.614 -24.340 -12.879  0.00  0.00    -0.037 C 
ATOM     19  C   UNL     1      37.279 -23.168 -12.515  0.00  0.00    -0.006 C 
ATOM     20  C   UNL     1      35.834 -25.018 -11.942  0.00  0.00    -0.006 C 
ATOM     21  C   UNL     1      37.165 -22.677 -11.215  0.00  0.00    -0.000 C 
ATOM     22  C   UNL     1      35.720 -24.526 -10.641  0.00  0.00    -0.000 C 
ATOM     23  C   UNL     1      36.385 -23.356 -10.278  0.00  0.00    -0.000 C 
ENDBRANCH  17  18
BRANCH  17  24
ATOM     24  N   UNL     1      37.451 -26.173 -14.381  0.00  0.00    +0.391 N 
ATOM     25  C   UNL     1      36.878 -26.999 -15.438  0.00  0.00    -0.100 C 
ATOM     26  C   UNL     1      38.872 -25.947 -14.606  0.00  0.00    -0.100 C 
ATOM     27  H   UNL     1      37.342 -26.668 -13.496  0.00  0.00    -0.079 HD
ENDBRANCH  17  24
BRANCH  17  28
ATOM     28  C   UNL     1      35.331 -25.087 -14.945  0.00  0.00    -0.011 C 
ATOM     29  C   UNL     1      34.241 -24.153 -14.419  0.00  0.00    -0.002 C 
ENDBRANCH  17  28
ENDBRANCH  16  17
ENDBRANCH   1  16
TORSDOF 10
ENDMDL
MODEL 9
REMARK VINA RESULT:      -7.7     10.255     14.656
REMARK  Name = 5573
REMARK  10 active torsions:
REMARK  status: ('A' for Active; 'I' for Inactive)
REMARK    1  A    between atoms: O_1  and  C_3
REMARK    2  A    between atoms: O_1  and  C_16
REMARK    3  A    between atoms: C_3  and  C_4
REMARK    4  A    between atoms: C_7  and  O_10
REMARK    5  A    between atoms: C_8  and  O_12
REMARK    6  A    between atoms: C_9  and  O_14
REMARK    7  A    between atoms: C_16  and  C_17
REMARK    8  A    between atoms: C_17  and  C_18
REMARK    9  A    between atoms: C_17  and  N_24
REMARK   10  A    between atoms: C_17  and  C_28
REMARK                            x       y       z     vdW  Elec       q    Type
REMARK                         _______ _______ _______ _____ _____    ______ ____
ROOT
ATOM      1  O   UNL     1      36.822 -23.543 -16.386  0.00  0.00    -0.447 OA
ENDROOT
BRANCH   1   3
ATOM      2  O   UNL     1      37.808 -21.465 -16.481  0.00  0.00    -0.245 OA
ATOM      3  C   UNL     1      36.957 -22.266 -16.835  0.00  0.00    +0.341 C 
BRANCH   3   4
ATOM      4  C   UNL     1      35.908 -21.950 -17.837  0.00  0.00    +0.082 C 
ATOM      5  C   UNL     1      36.243 -21.259 -19.002  0.00  0.00    +0.047 C 
ATOM      6  C   UNL     1      34.589 -22.345 -17.616  0.00  0.00    +0.047 C 
ATOM      7  C   UNL     1      33.605 -22.049 -18.559  0.00  0.00    +0.176 C 
ATOM      8  C   UNL     1      35.259 -20.963 -19.946  0.00  0.00    +0.176 C 
ATOM      9  C   UNL     1      33.940 -21.358 -19.724  0.00  0.00    +0.206 C 
BRANCH   7  10
ATOM     10  O   UNL     1      32.320 -22.441 -18.331  0.00  0.00    -0.468 OA
ATOM     11  C   UNL     1      32.019 -22.950 -17.033  0.00  0.00    +0.253 C 
ENDBRANCH   7  10
BRANCH   8  12
ATOM     12  O   UNL     1      35.599 -20.289 -21.079  0.00  0.00    -0.468 OA
ATOM     13  C   UNL     1      36.061 -18.949 -20.922  0.00  0.00    +0.253 C 
ENDBRANCH   8  12
BRANCH   9  14
ATOM     14  O   UNL     1      32.977 -21.068 -20.645  0.00  0.00    -0.465 OA
ATOM     15  C   UNL     1      32.460 -19.740 -20.644  0.00  0.00    +0.253 C 
ENDBRANCH   9  14
ENDBRANCH   3   4
ENDBRANCH   1   3
BRANCH   1  16
ATOM     16  C   UNL     1      37.545 -23.867 -15.202  0.00  0.00    +0.194 C 
BRANCH  16  17
ATOM     17  C   UNL     1      36.741 -24.860 -14.321  0.00  0.00    +0.018 C 
BRANCH  17  18
ATOM     18  C   UNL     1      36.616 -24.327 -12.884  0.00  0.00    -0.037 C 
ATOM     19  C   UNL     1      35.836 -25.013 -11.952  0.00  0.00    -0.006 C 
ATOM     20  C   UNL     1      37.283 -23.160 -12.511  0.00  0.00    -0.006 C 
ATOM     21  C   UNL     1      35.723 -24.530 -10.648  0.00  0.00    -0.000 C 
ATOM     22  C   UNL     1      37.169 -22.677 -11.208  0.00  0.00    -0.000 C 
ATOM     23  C   UNL     1      36.390 -23.362 -10.277  0.00  0.00    -0.000 C 
ENDBRANCH  17  18
BRANCH  17  24
ATOM     24  N   UNL     1      37.444 -26.157 -14.396  0.00  0.00    +0.391 N 
ATOM     25  C   UNL     1      36.863 -26.976 -15.453  0.00  0.00    -0.100 C 
ATOM     26  C   UNL     1      38.866 -25.939 -14.626  0.00  0.00    -0.100 C 
ATOM     27  H   UNL     1      37.336 -26.653 -13.512  0.00  0.00    -0.079 HD
ENDBRANCH  17  24
BRANCH  17  28
ATOM     28  C   UNL     1      35.333 -25.053 -14.958  0.00  0.00    -0.011 C 
ATOM     29  C   UNL     1      34.253 -24.102 -14.444  0.00  0.00    -0.002 C 
ENDBRANCH  17  28
ENDBRANCH  16  17
ENDBRANCH   1  16
TORSDOF 10
ENDMDL
