MODEL 1
REMARK VINA RESULT:      -6.4      0.000      0.000
REMARK  Name = 2431
REMARK  3 active torsions:
REMARK  status: ('A' for Active; 'I' for Inactive)
REMARK    1  A    between atoms: C_2  and  C_8
REMARK    2  A    between atoms: C_8  and  N_9
REMARK    3  A    between atoms: N_9  and  C_12
REMARK                            x       y       z     vdW  Elec       q    Type
REMARK                         _______ _______ _______ _____ _____    ______ ____
ROOT
ATOM      1 BR   UNL     1      34.143 -16.170 -24.908  0.00  0.00    -0.049 Br
ATOM      2  C   UNL     1      34.563 -16.101 -22.057  0.00  0.00    -0.036 C 
ATOM      3  C   UNL     1      33.853 -15.573 -23.131  0.00  0.00    +0.029 C 
ATOM      4  C   UNL     1      34.327 -15.641 -20.764  0.00  0.00    -0.006 C 
ATOM      5  C   UNL     1      32.901 -14.579 -22.911  0.00  0.00    +0.006 C 
ATOM      6  C   UNL     1      33.375 -14.647 -20.544  0.00  0.00    -0.000 C 
ATOM      7  C   UNL     1      32.662 -14.115 -21.618  0.00  0.00    +0.000 C 
ENDROOT
BRANCH   2   8
ATOM      8  C   UNL     1      35.598 -17.172 -22.245  0.00  0.00    -0.045 C 
BRANCH   8   9
ATOM      9  N   UNL     1      35.077 -18.566 -21.927  0.00  0.00    +0.390 N 
ATOM     10  C   UNL     1      36.074 -19.288 -21.032  0.00  0.00    -0.095 C 
ATOM     11  C   UNL     1      34.898 -19.348 -23.221  0.00  0.00    -0.095 C 
BRANCH   9  12
ATOM     12  C   UNL     1      33.740 -18.457 -21.211  0.00  0.00    -0.073 C 
ATOM     13  C   UNL     1      33.316 -19.829 -20.734  0.00  0.00    -0.024 C 
ENDBRANCH   9  12
ENDBRANCH   8   9
ENDBRANCH   2   8
TORSDOF 3
ENDMDL
MODEL 2
REMARK VINA RESULT:      -6.2      1.627      2.386
REMARK  Name = 2431
REMARK  3 active torsions:
REMARK  status: ('A' for Active; 'I' for Inactive)
REMARK    1  A    between atoms: C_2  and  C_8
REMARK    2  A    between atoms: C_8  and  N_9
REMARK    3  A    between atoms: N_9  and  C_12
REMARK                            x       y       z     vdW  Elec       q    Type
REMARK                         _______ _______ _______ _____ _____    ______ ____
ROOT
ATOM      1 BR   UNL     1      34.160 -14.928 -20.796  0.00  0.00    -0.049 Br
ATOM      2  C   UNL     1      34.897 -16.497 -23.099  0.00  0.00    -0.036 C 
ATOM      3  C   UNL     1      34.180 -15.400 -22.633  0.00  0.00    +0.029 C 
ATOM      4  C   UNL     1      34.891 -16.817 -24.454  0.00  0.00    -0.006 C 
ATOM      5  C   UNL     1      33.451 -14.616 -23.527  0.00  0.00    +0.006 C 
ATOM      6  C   UNL     1      34.163 -16.034 -25.349  0.00  0.00    -0.000 C 
ATOM      7  C   UNL     1      33.442 -14.933 -24.885  0.00  0.00    +0.000 C 
ENDROOT
BRANCH   2   8
ATOM      8  C   UNL     1      35.694 -17.369 -22.174  0.00  0.00    -0.045 C 
BRANCH   8   9
ATOM      9  N   UNL     1      35.062 -18.735 -21.949  0.00  0.00    +0.390 N 
ATOM     10  C   UNL     1      35.932 -19.548 -21.001  0.00  0.00    -0.095 C 
ATOM     11  C   UNL     1      34.944 -19.465 -23.279  0.00  0.00    -0.095 C 
BRANCH   9  12
ATOM     12  C   UNL     1      33.678 -18.559 -21.342  0.00  0.00    -0.073 C 
ATOM     13  C   UNL     1      33.275 -19.838 -20.641  0.00  0.00    -0.024 C 
ENDBRANCH   9  12
ENDBRANCH   8   9
ENDBRANCH   2   8
TORSDOF 3
ENDMDL
MODEL 3
REMARK VINA RESULT:      -6.0      8.813     10.907
REMARK  Name = 2431
REMARK  3 active torsions:
REMARK  status: ('A' for Active; 'I' for Inactive)
REMARK    1  A    between atoms: C_2  and  C_8
REMARK    2  A    between atoms: C_8  and  N_9
REMARK    3  A    between atoms: N_9  and  C_12
REMARK                            x       y       z     vdW  Elec       q    Type
REMARK                         _______ _______ _______ _____ _____    ______ ____
ROOT
ATOM      1 BR   UNL     1      34.218 -24.208 -13.812  0.00  0.00    -0.049 Br
ATOM      2  C   UNL     1      36.767 -23.314 -14.819  0.00  0.00    -0.036 C 
ATOM      3  C   UNL     1      35.401 -23.412 -15.063  0.00  0.00    +0.029 C 
ATOM      4  C   UNL     1      37.610 -22.724 -15.757  0.00  0.00    -0.006 C 
ATOM      5  C   UNL     1      34.872 -22.916 -16.254  0.00  0.00    +0.006 C 
ATOM      6  C   UNL     1      37.081 -22.228 -16.949  0.00  0.00    -0.000 C 
ATOM      7  C   UNL     1      35.712 -22.324 -17.197  0.00  0.00    +0.000 C 
ENDROOT
BRANCH   2   8
ATOM      8  C   UNL     1      37.381 -23.834 -13.552  0.00  0.00    -0.045 C 
BRANCH   8   9
ATOM      9  N   UNL     1      37.867 -25.271 -13.671  0.00  0.00    +0.390 N 
ATOM     10  C   UNL     1      37.431 -25.845 -15.012  0.00  0.00    -0.095 C 
ATOM     11  C   UNL     1      37.270 -26.104 -12.546  0.00  0.00    -0.095 C 
BRANCH   9  12
ATOM     12  C   UNL     1      39.385 -25.303 -13.576  0.00  0.00    -0.073 C 
ATOM     13  C   UNL     1      39.969 -25.450 -14.964  0.00  0.00    -0.024 C 
ENDBRANCH   9  12
ENDBRANCH   8   9
ENDBRANCH   2   8
TORSDOF 3
ENDMDL
MODEL 4
REMARK VINA RESULT:      -5.9      2.624      5.240
REMARK  Name = 2431
REMARK  3 active torsions:
REMARK  status: ('A' for Active; 'I' for Inactive)
REMARK    1  A    between atoms: C_2  and  C_8
REMARK    2  A    between atoms: C_8  and  N_9
REMARK    3  A    between atoms: N_9  and  C_12
REMARK                            x       y       z     vdW  Elec       q    Type
REMARK                         _______ _______ _______ _____ _____    ______ ____
ROOT
ATOM      1 BR   UNL     1      34.581 -15.900 -20.698  0.00  0.00    -0.049 Br
ATOM      2  C   UNL     1      34.701 -16.106 -23.571  0.00  0.00    -0.036 C 
ATOM      3  C   UNL     1      34.626 -16.800 -22.367  0.00  0.00    +0.029 C 
ATOM      4  C   UNL     1      34.733 -16.795 -24.781  0.00  0.00    -0.006 C 
ATOM      5  C   UNL     1      34.583 -18.193 -22.372  0.00  0.00    +0.006 C 
ATOM      6  C   UNL     1      34.689 -18.189 -24.785  0.00  0.00    -0.000 C 
ATOM      7  C   UNL     1      34.615 -18.888 -23.581  0.00  0.00    +0.000 C 
ENDROOT
BRANCH   2   8
ATOM      8  C   UNL     1      34.750 -14.606 -23.616  0.00  0.00    -0.045 C 
BRANCH   8   9
ATOM      9  N   UNL     1      33.460 -13.982 -24.127  0.00  0.00    +0.390 N 
ATOM     10  C   UNL     1      33.701 -12.515 -24.455  0.00  0.00    -0.095 C 
ATOM     11  C   UNL     1      32.384 -14.092 -23.057  0.00  0.00    -0.095 C 
BRANCH   9  12
ATOM     12  C   UNL     1      33.005 -14.714 -25.381  0.00  0.00    -0.073 C 
ATOM     13  C   UNL     1      33.092 -13.776 -26.565  0.00  0.00    -0.024 C 
ENDBRANCH   9  12
ENDBRANCH   8   9
ENDBRANCH   2   8
TORSDOF 3
ENDMDL
MODEL 5
REMARK VINA RESULT:      -5.9      9.225     11.138
REMARK  Name = 2431
REMARK  3 active torsions:
REMARK  status: ('A' for Active; 'I' for Inactive)
REMARK    1  A    between atoms: C_2  and  C_8
REMARK    2  A    between atoms: C_8  and  N_9
REMARK    3  A    between atoms: N_9  and  C_12
REMARK                            x       y       z     vdW  Elec       q    Type
REMARK                         _______ _______ _______ _____ _____    ______ ____
ROOT
ATOM      1 BR   UNL     1      37.225 -22.386 -16.321  0.00  0.00    -0.049 Br
ATOM      2  C   UNL     1      35.892 -23.731 -14.148  0.00  0.00    -0.036 C 
ATOM      3  C   UNL     1      35.742 -23.103 -15.381  0.00  0.00    +0.029 C 
ATOM      4  C   UNL     1      34.784 -24.247 -13.481  0.00  0.00    -0.006 C 
ATOM      5  C   UNL     1      34.476 -22.992 -15.953  0.00  0.00    +0.006 C 
ATOM      6  C   UNL     1      33.517 -24.136 -14.053  0.00  0.00    -0.000 C 
ATOM      7  C   UNL     1      33.363 -23.508 -15.289  0.00  0.00    +0.000 C 
ENDROOT
BRANCH   2   8
ATOM      8  C   UNL     1      37.235 -23.873 -13.493  0.00  0.00    -0.045 C 
BRANCH   8   9
ATOM      9  N   UNL     1      37.810 -25.278 -13.612  0.00  0.00    +0.390 N 
ATOM     10  C   UNL     1      37.373 -25.894 -14.934  0.00  0.00    -0.095 C 
ATOM     11  C   UNL     1      37.301 -26.134 -12.461  0.00  0.00    -0.095 C 
BRANCH   9  12
ATOM     12  C   UNL     1      39.329 -25.210 -13.562  0.00  0.00    -0.073 C 
ATOM     13  C   UNL     1      39.881 -25.346 -14.964  0.00  0.00    -0.024 C 
ENDBRANCH   9  12
ENDBRANCH   8   9
ENDBRANCH   2   8
TORSDOF 3
ENDMDL
MODEL 6
REMARK VINA RESULT:      -5.9      2.374      4.978
REMARK  Name = 2431
REMARK  3 active torsions:
REMARK  status: ('A' for Active; 'I' for Inactive)
REMARK    1  A    between atoms: C_2  and  C_8
REMARK    2  A    between atoms: C_8  and  N_9
REMARK    3  A    between atoms: N_9  and  C_12
REMARK                            x       y       z     vdW  Elec       q    Type
REMARK                         _______ _______ _______ _____ _____    ______ ____
ROOT
ATOM      1 BR   UNL     1      34.607 -15.972 -20.570  0.00  0.00    -0.049 Br
ATOM      2  C   UNL     1      34.700 -16.114 -23.447  0.00  0.00    -0.036 C 
ATOM      3  C   UNL     1      34.639 -16.835 -22.259  0.00  0.00    +0.029 C 
ATOM      4  C   UNL     1      34.721 -16.777 -24.672  0.00  0.00    -0.006 C 
ATOM      5  C   UNL     1      34.599 -18.228 -22.294  0.00  0.00    +0.006 C 
ATOM      6  C   UNL     1      34.682 -18.170 -24.707  0.00  0.00    -0.000 C 
ATOM      7  C   UNL     1      34.621 -18.896 -23.518  0.00  0.00    +0.000 C 
ENDROOT
BRANCH   2   8
ATOM      8  C   UNL     1      34.744 -14.614 -23.459  0.00  0.00    -0.045 C 
BRANCH   8   9
ATOM      9  N   UNL     1      33.419 -13.981 -23.858  0.00  0.00    +0.390 N 
ATOM     10  C   UNL     1      32.998 -14.504 -25.224  0.00  0.00    -0.095 C 
ATOM     11  C   UNL     1      33.577 -12.469 -23.920  0.00  0.00    -0.095 C 
BRANCH   9  12
ATOM     12  C   UNL     1      32.357 -14.338 -22.829  0.00  0.00    -0.073 C 
ATOM     13  C   UNL     1      32.263 -13.230 -21.803  0.00  0.00    -0.024 C 
ENDBRANCH   9  12
ENDBRANCH   8   9
ENDBRANCH   2   8
TORSDOF 3
ENDMDL
MODEL 7
REMARK VINA RESULT:      -5.9      8.548     10.640
REMARK  Name = 2431
REMARK  3 active torsions:
REMARK  status: ('A' for Active; 'I' for Inactive)
REMARK    1  A    between atoms: C_2  and  C_8
REMARK    2  A    between atoms: C_8  and  N_9
REMARK    3  A    between atoms: N_9  and  C_12
REMARK                            x       y       z     vdW  Elec       q    Type
REMARK                         _______ _______ _______ _____ _____    ______ ____
ROOT
ATOM      1 BR   UNL     1      30.558  -5.306 -21.792  0.00  0.00    -0.049 Br
ATOM      2  C   UNL     1      32.635  -6.208 -23.576  0.00  0.00    -0.036 C 
ATOM      3  C   UNL     1      31.570  -5.331 -23.396  0.00  0.00    +0.029 C 
ATOM      4  C   UNL     1      33.358  -6.202 -24.766  0.00  0.00    -0.006 C 
ATOM      5  C   UNL     1      31.226  -4.440 -24.412  0.00  0.00    +0.006 C 
ATOM      6  C   UNL     1      33.014  -5.312 -25.782  0.00  0.00    -0.000 C 
ATOM      7  C   UNL     1      31.947  -4.431 -25.605  0.00  0.00    +0.000 C 
ENDROOT
BRANCH   2   8
ATOM      8  C   UNL     1      33.041  -7.185 -22.511  0.00  0.00    -0.045 C 
BRANCH   8   9
ATOM      9  N   UNL     1      32.469  -8.578 -22.730  0.00  0.00    +0.390 N 
ATOM     10  C   UNL     1      33.496  -9.442 -23.448  0.00  0.00    -0.095 C 
ATOM     11  C   UNL     1      31.208  -8.481 -23.576  0.00  0.00    -0.095 C 
BRANCH   9  12
ATOM     12  C   UNL     1      32.131  -9.204 -21.385  0.00  0.00    -0.073 C 
ATOM     13  C   UNL     1      32.492  -8.236 -20.279  0.00  0.00    -0.024 C 
ENDBRANCH   9  12
ENDBRANCH   8   9
ENDBRANCH   2   8
TORSDOF 3
ENDMDL
MODEL 8
REMARK VINA RESULT:      -5.8      1.992      4.244
REMARK  Name = 2431
REMARK  3 active torsions:
REMARK  status: ('A' for Active; 'I' for Inactive)
REMARK    1  A    between atoms: C_2  and  C_8
REMARK    2  A    between atoms: C_8  and  N_9
REMARK    3  A    between atoms: N_9  and  C_12
REMARK                            x       y       z     vdW  Elec       q    Type
REMARK                         _______ _______ _______ _____ _____    ______ ____
ROOT
ATOM      1 BR   UNL     1      33.341 -15.337 -25.848  0.00  0.00    -0.049 Br
ATOM      2  C   UNL     1      34.668 -16.222 -23.446  0.00  0.00    -0.036 C 
ATOM      3  C   UNL     1      34.209 -16.582 -24.710  0.00  0.00    +0.029 C 
ATOM      4  C   UNL     1      35.301 -17.159 -22.634  0.00  0.00    -0.006 C 
ATOM      5  C   UNL     1      34.386 -17.888 -25.166  0.00  0.00    +0.006 C 
ATOM      6  C   UNL     1      35.478 -18.465 -23.090  0.00  0.00    -0.000 C 
ATOM      7  C   UNL     1      35.019 -18.830 -24.356  0.00  0.00    +0.000 C 
ENDROOT
BRANCH   2   8
ATOM      8  C   UNL     1      34.500 -14.829 -22.913  0.00  0.00    -0.045 C 
BRANCH   8   9
ATOM      9  N   UNL     1      33.670 -14.775 -21.639  0.00  0.00    +0.390 N 
ATOM     10  C   UNL     1      34.590 -14.874 -20.430  0.00  0.00    -0.095 C 
ATOM     11  C   UNL     1      32.687 -15.937 -21.623  0.00  0.00    -0.095 C 
BRANCH   9  12
ATOM     12  C   UNL     1      32.904 -13.462 -21.587  0.00  0.00    -0.073 C 
ATOM     13  C   UNL     1      32.292 -13.188 -22.943  0.00  0.00    -0.024 C 
ENDBRANCH   9  12
ENDBRANCH   8   9
ENDBRANCH   2   8
TORSDOF 3
ENDMDL
MODEL 9
REMARK VINA RESULT:      -5.8      6.691      9.184
REMARK  Name = 2431
REMARK  3 active torsions:
REMARK  status: ('A' for Active; 'I' for Inactive)
REMARK    1  A    between atoms: C_2  and  C_8
REMARK    2  A    between atoms: C_8  and  N_9
REMARK    3  A    between atoms: N_9  and  C_12
REMARK                            x       y       z     vdW  Elec       q    Type
REMARK                         _______ _______ _______ _____ _____    ______ ____
ROOT
ATOM      1 BR   UNL     1      33.495 -10.675 -24.307  0.00  0.00    -0.049 Br
ATOM      2  C   UNL     1      32.530  -9.367 -21.926  0.00  0.00    -0.036 C 
ATOM      3  C   UNL     1      32.563 -10.548 -22.660  0.00  0.00    +0.029 C 
ATOM      4  C   UNL     1      31.837  -9.305 -20.720  0.00  0.00    -0.006 C 
ATOM      5  C   UNL     1      31.897 -11.678 -22.185  0.00  0.00    +0.006 C 
ATOM      6  C   UNL     1      31.171 -10.435 -20.245  0.00  0.00    -0.000 C 
ATOM      7  C   UNL     1      31.200 -11.621 -20.978  0.00  0.00    +0.000 C 
ENDROOT
BRANCH   2   8
ATOM      8  C   UNL     1      33.231  -8.126 -22.398  0.00  0.00    -0.045 C 
BRANCH   8   9
ATOM      9  N   UNL     1      32.292  -7.122 -23.051  0.00  0.00    +0.390 N 
ATOM     10  C   UNL     1      31.916  -6.047 -22.041  0.00  0.00    -0.095 C 
ATOM     11  C   UNL     1      31.034  -7.837 -23.521  0.00  0.00    -0.095 C 
BRANCH   9  12
ATOM     12  C   UNL     1      32.986  -6.479 -24.242  0.00  0.00    -0.073 C 
ATOM     13  C   UNL     1      34.413  -6.975 -24.315  0.00  0.00    -0.024 C 
ENDBRANCH   9  12
ENDBRANCH   8   9
ENDBRANCH   2   8
TORSDOF 3
ENDMDL
