MODEL 1
REMARK VINA RESULT:      -6.4      0.000      0.000
REMARK  Name = 439278
REMARK  8 active torsions:
REMARK  status: ('A' for Active; 'I' for Inactive)
REMARK    1  A    between atoms: C_1  and  C_3
REMARK    2  A    between atoms: C_1  and  O_6
REMARK    3  A    between atoms: C_1  and  C_13
REMARK    4  A    between atoms: C_3  and  O_4
REMARK    5  A    between atoms: O_6  and  P_7
REMARK    6  A    between atoms: P_7  and  O_9
REMARK    7  A    between atoms: P_7  and  O_11
REMARK    8  A    between atoms: C_13  and  O_14
REMARK                            x       y       z     vdW  Elec       q    Type
REMARK                         _______ _______ _______ _____ _____    ______ ____
ROOT
ATOM      1  C   UNL     1      37.716 -25.769 -14.374  0.00  0.00    +0.253 C 
ENDROOT
BRANCH   1   3
ATOM      2  O   UNL     1      37.044 -27.329 -16.120  0.00  0.00    -0.247 OA
ATOM      3  C   UNL     1      36.741 -26.536 -15.240  0.00  0.00    +0.344 C 
BRANCH   3   4
ATOM      4  O   UNL     1      35.459 -26.254 -14.893  0.00  0.00    -0.478 OA
ATOM      5  H   UNL     1      34.833 -26.034 -15.553  0.00  0.00    +0.295 HD
ENDBRANCH   3   4
ENDBRANCH   1   3
BRANCH   1   6
ATOM      6  O   UNL     1      38.877 -26.564 -14.185  0.00  0.00    -0.262 OA
BRANCH   6   7
ATOM      7  P   UNL     1      40.320 -25.910 -14.515  0.00  0.00    +0.474 P 
ATOM      8  O   UNL     1      40.575 -24.580 -13.868  0.00  0.00    -0.227 OA
BRANCH   7   9
ATOM      9  O   UNL     1      40.385 -25.917 -16.131  0.00  0.00    -0.303 OA
ATOM     10  H   UNL     1      40.580 -26.814 -16.443  0.00  0.00    +0.222 HD
ENDBRANCH   7   9
BRANCH   7  11
ATOM     11  O   UNL     1      41.351 -27.083 -14.096  0.00  0.00    -0.303 OA
ATOM     12  H   UNL     1      42.135 -27.043 -14.666  0.00  0.00    +0.222 HD
ENDBRANCH   7  11
ENDBRANCH   6   7
ENDBRANCH   1   6
BRANCH   1  13
ATOM     13  C   UNL     1      37.133 -25.387 -13.020  0.00  0.00    +0.179 C 
BRANCH  13  14
ATOM     14  O   UNL     1      36.909 -26.558 -12.242  0.00  0.00    -0.379 OA
ATOM     15  H   UNL     1      36.620 -26.305 -11.352  0.00  0.00    +0.211 HD
ENDBRANCH  13  14
ENDBRANCH   1  13
TORSDOF 8
ENDMDL
MODEL 2
REMARK VINA RESULT:      -6.2      1.727      3.317
REMARK  Name = 439278
REMARK  8 active torsions:
REMARK  status: ('A' for Active; 'I' for Inactive)
REMARK    1  A    between atoms: C_1  and  C_3
REMARK    2  A    between atoms: C_1  and  O_6
REMARK    3  A    between atoms: C_1  and  C_13
REMARK    4  A    between atoms: C_3  and  O_4
REMARK    5  A    between atoms: O_6  and  P_7
REMARK    6  A    between atoms: P_7  and  O_9
REMARK    7  A    between atoms: P_7  and  O_11
REMARK    8  A    between atoms: C_13  and  O_14
REMARK                            x       y       z     vdW  Elec       q    Type
REMARK                         _______ _______ _______ _____ _____    ______ ____
ROOT
ATOM      1  C   UNL     1      38.167 -24.632 -13.410  0.00  0.00    +0.253 C 
ENDROOT
BRANCH   1   3
ATOM      2  O   UNL     1      37.352 -24.650 -11.115  0.00  0.00    -0.247 OA
ATOM      3  C   UNL     1      38.059 -24.152 -11.979  0.00  0.00    +0.344 C 
BRANCH   3   4
ATOM      4  O   UNL     1      38.883 -23.096 -11.759  0.00  0.00    -0.478 OA
ATOM      5  H   UNL     1      38.528 -22.275 -11.481  0.00  0.00    +0.295 HD
ENDBRANCH   3   4
ENDBRANCH   1   3
BRANCH   1   6
ATOM      6  O   UNL     1      39.541 -24.700 -13.762  0.00  0.00    -0.262 OA
BRANCH   6   7
ATOM      7  P   UNL     1      40.069 -26.009 -14.553  0.00  0.00    +0.474 P 
ATOM      8  O   UNL     1      41.300 -26.644 -13.976  0.00  0.00    -0.227 OA
BRANCH   7   9
ATOM      9  O   UNL     1      40.202 -25.506 -16.084  0.00  0.00    -0.303 OA
ATOM     10  H   UNL     1      39.634 -24.733 -16.221  0.00  0.00    +0.222 HD
ENDBRANCH   7   9
BRANCH   7  11
ATOM     11  O   UNL     1      38.762 -26.960 -14.586  0.00  0.00    -0.303 OA
ATOM     12  H   UNL     1      38.979 -27.823 -14.198  0.00  0.00    +0.222 HD
ENDBRANCH   7  11
ENDBRANCH   6   7
ENDBRANCH   1   6
BRANCH   1  13
ATOM     13  C   UNL     1      37.431 -23.734 -14.394  0.00  0.00    +0.179 C 
BRANCH  13  14
ATOM     14  O   UNL     1      37.192 -24.440 -15.607  0.00  0.00    -0.379 OA
ATOM     15  H   UNL     1      37.641 -23.988 -16.338  0.00  0.00    +0.211 HD
ENDBRANCH  13  14
ENDBRANCH   1  13
TORSDOF 8
ENDMDL
MODEL 3
REMARK VINA RESULT:      -6.1      1.807      2.824
REMARK  Name = 439278
REMARK  8 active torsions:
REMARK  status: ('A' for Active; 'I' for Inactive)
REMARK    1  A    between atoms: C_1  and  C_3
REMARK    2  A    between atoms: C_1  and  O_6
REMARK    3  A    between atoms: C_1  and  C_13
REMARK    4  A    between atoms: C_3  and  O_4
REMARK    5  A    between atoms: O_6  and  P_7
REMARK    6  A    between atoms: P_7  and  O_9
REMARK    7  A    between atoms: P_7  and  O_11
REMARK    8  A    between atoms: C_13  and  O_14
REMARK                            x       y       z     vdW  Elec       q    Type
REMARK                         _______ _______ _______ _____ _____    ______ ____
ROOT
ATOM      1  C   UNL     1      37.552 -24.576 -13.233  0.00  0.00    +0.253 C 
ENDROOT
BRANCH   1   3
ATOM      2  O   UNL     1      36.402 -25.448 -11.272  0.00  0.00    -0.247 OA
ATOM      3  C   UNL     1      36.884 -25.631 -12.381  0.00  0.00    +0.344 C 
BRANCH   3   4
ATOM      4  O   UNL     1      36.856 -26.827 -13.023  0.00  0.00    -0.478 OA
ATOM      5  H   UNL     1      36.735 -26.857 -13.951  0.00  0.00    +0.295 HD
ENDBRANCH   3   4
ENDBRANCH   1   3
BRANCH   1   6
ATOM      6  O   UNL     1      38.940 -24.868 -13.312  0.00  0.00    -0.262 OA
BRANCH   6   7
ATOM      7  P   UNL     1      39.569 -25.232 -14.757  0.00  0.00    +0.474 P 
ATOM      8  O   UNL     1      41.008 -25.659 -14.732  0.00  0.00    -0.227 OA
BRANCH   7   9
ATOM      9  O   UNL     1      39.251 -23.926 -15.656  0.00  0.00    -0.303 OA
ATOM     10  H   UNL     1      39.178 -23.148 -15.082  0.00  0.00    +0.222 HD
ENDBRANCH   7   9
BRANCH   7  11
ATOM     11  O   UNL     1      38.538 -26.338 -15.329  0.00  0.00    -0.303 OA
ATOM     12  H   UNL     1      38.862 -27.227 -15.111  0.00  0.00    +0.222 HD
ENDBRANCH   7  11
ENDBRANCH   6   7
ENDBRANCH   1   6
BRANCH   1  13
ATOM     13  C   UNL     1      37.357 -23.165 -12.693  0.00  0.00    +0.179 C 
BRANCH  13  14
ATOM     14  O   UNL     1      38.252 -22.934 -11.611  0.00  0.00    -0.379 OA
ATOM     15  H   UNL     1      39.002 -23.545 -11.675  0.00  0.00    +0.211 HD
ENDBRANCH  13  14
ENDBRANCH   1  13
TORSDOF 8
ENDMDL
MODEL 4
REMARK VINA RESULT:      -6.0      2.503      3.833
REMARK  Name = 439278
REMARK  8 active torsions:
REMARK  status: ('A' for Active; 'I' for Inactive)
REMARK    1  A    between atoms: C_1  and  C_3
REMARK    2  A    between atoms: C_1  and  O_6
REMARK    3  A    between atoms: C_1  and  C_13
REMARK    4  A    between atoms: C_3  and  O_4
REMARK    5  A    between atoms: O_6  and  P_7
REMARK    6  A    between atoms: P_7  and  O_9
REMARK    7  A    between atoms: P_7  and  O_11
REMARK    8  A    between atoms: C_13  and  O_14
REMARK                            x       y       z     vdW  Elec       q    Type
REMARK                         _______ _______ _______ _____ _____    ______ ____
ROOT
ATOM      1  C   UNL     1      39.002 -25.300 -13.894  0.00  0.00    +0.253 C 
ENDROOT
BRANCH   1   3
ATOM      2  O   UNL     1      37.831 -27.271 -14.716  0.00  0.00    -0.247 OA
ATOM      3  C   UNL     1      37.988 -26.059 -14.722  0.00  0.00    +0.344 C 
BRANCH   3   4
ATOM      4  O   UNL     1      37.236 -25.208 -15.467  0.00  0.00    -0.478 OA
ATOM      5  H   UNL     1      37.381 -25.140 -16.390  0.00  0.00    +0.295 HD
ENDBRANCH   3   4
ENDBRANCH   1   3
BRANCH   1   6
ATOM      6  O   UNL     1      38.513 -23.985 -13.672  0.00  0.00    -0.262 OA
BRANCH   6   7
ATOM      7  P   UNL     1      37.613 -23.712 -12.355  0.00  0.00    +0.474 P 
ATOM      8  O   UNL     1      37.769 -24.725 -11.260  0.00  0.00    -0.227 OA
BRANCH   7   9
ATOM      9  O   UNL     1      36.114 -23.551 -12.941  0.00  0.00    -0.303 OA
ATOM     10  H   UNL     1      35.953 -22.622 -13.167  0.00  0.00    +0.222 HD
ENDBRANCH   7   9
BRANCH   7  11
ATOM     11  O   UNL     1      38.018 -22.199 -11.951  0.00  0.00    -0.303 OA
ATOM     12  H   UNL     1      37.633 -21.579 -12.590  0.00  0.00    +0.222 HD
ENDBRANCH   7  11
ENDBRANCH   6   7
ENDBRANCH   1   6
BRANCH   1  13
ATOM     13  C   UNL     1      40.373 -25.230 -14.554  0.00  0.00    +0.179 C 
BRANCH  13  14
ATOM     14  O   UNL     1      40.312 -25.799 -15.857  0.00  0.00    -0.379 OA
ATOM     15  H   UNL     1      40.626 -26.715 -15.826  0.00  0.00    +0.211 HD
ENDBRANCH  13  14
ENDBRANCH   1  13
TORSDOF 8
ENDMDL
MODEL 5
REMARK VINA RESULT:      -6.0      2.208      3.987
REMARK  Name = 439278
REMARK  8 active torsions:
REMARK  status: ('A' for Active; 'I' for Inactive)
REMARK    1  A    between atoms: C_1  and  C_3
REMARK    2  A    between atoms: C_1  and  O_6
REMARK    3  A    between atoms: C_1  and  C_13
REMARK    4  A    between atoms: C_3  and  O_4
REMARK    5  A    between atoms: O_6  and  P_7
REMARK    6  A    between atoms: P_7  and  O_9
REMARK    7  A    between atoms: P_7  and  O_11
REMARK    8  A    between atoms: C_13  and  O_14
REMARK                            x       y       z     vdW  Elec       q    Type
REMARK                         _______ _______ _______ _____ _____    ______ ____
ROOT
ATOM      1  C   UNL     1      38.790 -25.546 -14.342  0.00  0.00    +0.253 C 
ENDROOT
BRANCH   1   3
ATOM      2  O   UNL     1      41.019 -26.459 -13.987  0.00  0.00    -0.247 OA
ATOM      3  C   UNL     1      40.172 -26.012 -14.745  0.00  0.00    +0.344 C 
BRANCH   3   4
ATOM      4  O   UNL     1      40.349 -25.898 -16.086  0.00  0.00    -0.478 OA
ATOM      5  H   UNL     1      41.036 -26.373 -16.510  0.00  0.00    +0.295 HD
ENDBRANCH   3   4
ENDBRANCH   1   3
BRANCH   1   6
ATOM      6  O   UNL     1      38.830 -25.129 -12.985  0.00  0.00    -0.262 OA
BRANCH   6   7
ATOM      7  P   UNL     1      37.729 -24.058 -12.476  0.00  0.00    +0.474 P 
ATOM      8  O   UNL     1      36.904 -23.433 -13.562  0.00  0.00    -0.227 OA
BRANCH   7   9
ATOM      9  O   UNL     1      38.586 -23.024 -11.576  0.00  0.00    -0.303 OA
ATOM     10  H   UNL     1      39.529 -23.127 -11.774  0.00  0.00    +0.222 HD
ENDBRANCH   7   9
BRANCH   7  11
ATOM     11  O   UNL     1      36.890 -24.900 -11.379  0.00  0.00    -0.303 OA
ATOM     12  H   UNL     1      37.500 -25.279 -10.726  0.00  0.00    +0.222 HD
ENDBRANCH   7  11
ENDBRANCH   6   7
ENDBRANCH   1   6
BRANCH   1  13
ATOM     13  C   UNL     1      37.727 -26.623 -14.515  0.00  0.00    +0.179 C 
BRANCH  13  14
ATOM     14  O   UNL     1      37.387 -26.751 -15.891  0.00  0.00    -0.379 OA
ATOM     15  H   UNL     1      36.696 -27.422 -15.993  0.00  0.00    +0.211 HD
ENDBRANCH  13  14
ENDBRANCH   1  13
TORSDOF 8
ENDMDL
MODEL 6
REMARK VINA RESULT:      -6.0      2.364      3.797
REMARK  Name = 439278
REMARK  8 active torsions:
REMARK  status: ('A' for Active; 'I' for Inactive)
REMARK    1  A    between atoms: C_1  and  C_3
REMARK    2  A    between atoms: C_1  and  O_6
REMARK    3  A    between atoms: C_1  and  C_13
REMARK    4  A    between atoms: C_3  and  O_4
REMARK    5  A    between atoms: O_6  and  P_7
REMARK    6  A    between atoms: P_7  and  O_9
REMARK    7  A    between atoms: P_7  and  O_11
REMARK    8  A    between atoms: C_13  and  O_14
REMARK                            x       y       z     vdW  Elec       q    Type
REMARK                         _______ _______ _______ _____ _____    ______ ____
ROOT
ATOM      1  C   UNL     1      36.680 -24.581 -12.733  0.00  0.00    +0.253 C 
ENDROOT
BRANCH   1   3
ATOM      2  O   UNL     1      35.353 -25.155 -10.772  0.00  0.00    -0.247 OA
ATOM      3  C   UNL     1      35.494 -24.501 -11.796  0.00  0.00    +0.344 C 
BRANCH   3   4
ATOM      4  O   UNL     1      34.601 -23.573 -12.224  0.00  0.00    -0.478 OA
ATOM      5  H   UNL     1      34.525 -22.755 -11.775  0.00  0.00    +0.295 HD
ENDBRANCH   3   4
ENDBRANCH   1   3
BRANCH   1   6
ATOM      6  O   UNL     1      36.895 -25.942 -13.076  0.00  0.00    -0.262 OA
BRANCH   6   7
ATOM      7  P   UNL     1      37.290 -26.297 -14.604  0.00  0.00    +0.474 P 
ATOM      8  O   UNL     1      38.627 -26.957 -14.776  0.00  0.00    -0.227 OA
BRANCH   7   9
ATOM      9  O   UNL     1      37.106 -24.893 -15.385  0.00  0.00    -0.303 OA
ATOM     10  H   UNL     1      37.669 -24.219 -14.976  0.00  0.00    +0.222 HD
ENDBRANCH   7   9
BRANCH   7  11
ATOM     11  O   UNL     1      36.027 -27.172 -15.107  0.00  0.00    -0.303 OA
ATOM     12  H   UNL     1      35.303 -26.578 -15.363  0.00  0.00    +0.222 HD
ENDBRANCH   7  11
ENDBRANCH   6   7
ENDBRANCH   1   6
BRANCH   1  13
ATOM     13  C   UNL     1      37.952 -23.999 -12.131  0.00  0.00    +0.179 C 
BRANCH  13  14
ATOM     14  O   UNL     1      37.620 -22.986 -11.188  0.00  0.00    -0.379 OA
ATOM     15  H   UNL     1      37.804 -23.306 -10.291  0.00  0.00    +0.211 HD
ENDBRANCH  13  14
ENDBRANCH   1  13
TORSDOF 8
ENDMDL
MODEL 7
REMARK VINA RESULT:      -5.7      1.882      3.971
REMARK  Name = 439278
REMARK  8 active torsions:
REMARK  status: ('A' for Active; 'I' for Inactive)
REMARK    1  A    between atoms: C_1  and  C_3
REMARK    2  A    between atoms: C_1  and  O_6
REMARK    3  A    between atoms: C_1  and  C_13
REMARK    4  A    between atoms: C_3  and  O_4
REMARK    5  A    between atoms: O_6  and  P_7
REMARK    6  A    between atoms: P_7  and  O_9
REMARK    7  A    between atoms: P_7  and  O_11
REMARK    8  A    between atoms: C_13  and  O_14
REMARK                            x       y       z     vdW  Elec       q    Type
REMARK                         _______ _______ _______ _____ _____    ______ ____
ROOT
ATOM      1  C   UNL     1      38.974 -25.751 -13.767  0.00  0.00    +0.253 C 
ENDROOT
BRANCH   1   3
ATOM      2  O   UNL     1      41.149 -26.750 -14.219  0.00  0.00    -0.247 OA
ATOM      3  C   UNL     1      40.433 -25.760 -14.167  0.00  0.00    +0.344 C 
BRANCH   3   4
ATOM      4  O   UNL     1      40.853 -24.512 -14.497  0.00  0.00    -0.478 OA
ATOM      5  H   UNL     1      41.769 -24.322 -14.541  0.00  0.00    +0.295 HD
ENDBRANCH   3   4
ENDBRANCH   1   3
BRANCH   1   6
ATOM      6  O   UNL     1      38.182 -25.672 -14.943  0.00  0.00    -0.262 OA
BRANCH   6   7
ATOM      7  P   UNL     1      36.833 -26.562 -15.024  0.00  0.00    +0.474 P 
ATOM      8  O   UNL     1      36.678 -27.363 -16.283  0.00  0.00    -0.227 OA
BRANCH   7   9
ATOM      9  O   UNL     1      35.652 -25.497 -14.730  0.00  0.00    -0.303 OA
ATOM     10  H   UNL     1      35.112 -25.809 -13.988  0.00  0.00    +0.222 HD
ENDBRANCH   7   9
BRANCH   7  11
ATOM     11  O   UNL     1      36.896 -27.433 -13.663  0.00  0.00    -0.303 OA
ATOM     12  H   UNL     1      36.580 -26.895 -12.920  0.00  0.00    +0.222 HD
ENDBRANCH   7  11
ENDBRANCH   6   7
ENDBRANCH   1   6
BRANCH   1  13
ATOM     13  C   UNL     1      38.622 -24.600 -12.835  0.00  0.00    +0.179 C 
BRANCH  13  14
ATOM     14  O   UNL     1      37.999 -23.554 -13.573  0.00  0.00    -0.379 OA
ATOM     15  H   UNL     1      38.111 -23.717 -14.522  0.00  0.00    +0.211 HD
ENDBRANCH  13  14
ENDBRANCH   1  13
TORSDOF 8
ENDMDL
MODEL 8
REMARK VINA RESULT:      -5.7      2.450      4.309
REMARK  Name = 439278
REMARK  8 active torsions:
REMARK  status: ('A' for Active; 'I' for Inactive)
REMARK    1  A    between atoms: C_1  and  C_3
REMARK    2  A    between atoms: C_1  and  O_6
REMARK    3  A    between atoms: C_1  and  C_13
REMARK    4  A    between atoms: C_3  and  O_4
REMARK    5  A    between atoms: O_6  and  P_7
REMARK    6  A    between atoms: P_7  and  O_9
REMARK    7  A    between atoms: P_7  and  O_11
REMARK    8  A    between atoms: C_13  and  O_14
REMARK                            x       y       z     vdW  Elec       q    Type
REMARK                         _______ _______ _______ _____ _____    ______ ____
ROOT
ATOM      1  C   UNL     1      37.095 -25.144 -13.903  0.00  0.00    +0.253 C 
ENDROOT
BRANCH   1   3
ATOM      2  O   UNL     1      38.900 -26.635 -14.573  0.00  0.00    -0.247 OA
ATOM      3  C   UNL     1      38.527 -25.624 -13.996  0.00  0.00    +0.344 C 
BRANCH   3   4
ATOM      4  O   UNL     1      39.369 -24.761 -13.372  0.00  0.00    -0.478 OA
ATOM      5  H   UNL     1      39.654 -24.936 -12.497  0.00  0.00    +0.295 HD
ENDBRANCH   3   4
ENDBRANCH   1   3
BRANCH   1   6
ATOM      6  O   UNL     1      36.546 -25.590 -12.672  0.00  0.00    -0.262 OA
BRANCH   6   7
ATOM      7  P   UNL     1      36.057 -24.481 -11.601  0.00  0.00    +0.474 P 
ATOM      8  O   UNL     1      35.300 -25.027 -10.425  0.00  0.00    -0.227 OA
BRANCH   7   9
ATOM      9  O   UNL     1      35.253 -23.404 -12.501  0.00  0.00    -0.303 OA
ATOM     10  H   UNL     1      35.791 -23.161 -13.270  0.00  0.00    +0.222 HD
ENDBRANCH   7   9
BRANCH   7  11
ATOM     11  O   UNL     1      37.428 -23.709 -11.232  0.00  0.00    -0.303 OA
ATOM     12  H   UNL     1      37.446 -23.517 -10.281  0.00  0.00    +0.222 HD
ENDBRANCH   7  11
ENDBRANCH   6   7
ENDBRANCH   1   6
BRANCH   1  13
ATOM     13  C   UNL     1      36.229 -25.633 -15.057  0.00  0.00    +0.179 C 
BRANCH  13  14
ATOM     14  O   UNL     1      36.084 -27.047 -14.986  0.00  0.00    -0.379 OA
ATOM     15  H   UNL     1      35.142 -27.277 -15.006  0.00  0.00    +0.211 HD
ENDBRANCH  13  14
ENDBRANCH   1  13
TORSDOF 8
ENDMDL
MODEL 9
REMARK VINA RESULT:      -5.5      1.381      2.276
REMARK  Name = 439278
REMARK  8 active torsions:
REMARK  status: ('A' for Active; 'I' for Inactive)
REMARK    1  A    between atoms: C_1  and  C_3
REMARK    2  A    between atoms: C_1  and  O_6
REMARK    3  A    between atoms: C_1  and  C_13
REMARK    4  A    between atoms: C_3  and  O_4
REMARK    5  A    between atoms: O_6  and  P_7
REMARK    6  A    between atoms: P_7  and  O_9
REMARK    7  A    between atoms: P_7  and  O_11
REMARK    8  A    between atoms: C_13  and  O_14
REMARK                            x       y       z     vdW  Elec       q    Type
REMARK                         _______ _______ _______ _____ _____    ______ ____
ROOT
ATOM      1  C   UNL     1      37.849 -25.178 -14.919  0.00  0.00    +0.253 C 
ENDROOT
BRANCH   1   3
ATOM      2  O   UNL     1      37.242 -27.187 -13.682  0.00  0.00    -0.247 OA
ATOM      3  C   UNL     1      37.017 -26.398 -14.588  0.00  0.00    +0.344 C 
BRANCH   3   4
ATOM      4  O   UNL     1      35.949 -26.495 -15.421  0.00  0.00    -0.478 OA
ATOM      5  H   UNL     1      35.080 -26.447 -15.075  0.00  0.00    +0.295 HD
ENDBRANCH   3   4
ENDBRANCH   1   3
BRANCH   1   6
ATOM      6  O   UNL     1      38.956 -25.131 -14.031  0.00  0.00    -0.262 OA
BRANCH   6   7
ATOM      7  P   UNL     1      40.400 -25.616 -14.576  0.00  0.00    +0.474 P 
ATOM      8  O   UNL     1      40.984 -26.797 -13.857  0.00  0.00    -0.227 OA
BRANCH   7   9
ATOM      9  O   UNL     1      41.297 -24.271 -14.541  0.00  0.00    -0.303 OA
ATOM     10  H   UNL     1      41.412 -23.983 -13.622  0.00  0.00    +0.222 HD
ENDBRANCH   7   9
BRANCH   7  11
ATOM     11  O   UNL     1      40.131 -25.842 -16.154  0.00  0.00    -0.303 OA
ATOM     12  H   UNL     1      40.111 -26.793 -16.347  0.00  0.00    +0.222 HD
ENDBRANCH   7  11
ENDBRANCH   6   7
ENDBRANCH   1   6
BRANCH   1  13
ATOM     13  C   UNL     1      37.061 -23.878 -14.822  0.00  0.00    +0.179 C 
BRANCH  13  14
ATOM     14  O   UNL     1      36.344 -23.657 -16.032  0.00  0.00    -0.379 OA
ATOM     15  H   UNL     1      35.736 -22.911 -15.916  0.00  0.00    +0.211 HD
ENDBRANCH  13  14
ENDBRANCH   1  13
TORSDOF 8
ENDMDL
