MODEL 1
REMARK VINA RESULT:     -11.2      0.000      0.000
REMARK  Name = 11609586
REMARK  6 active torsions:
REMARK  status: ('A' for Active; 'I' for Inactive)
REMARK    1  A    between atoms: N_1  and  C_3
REMARK    2  A    between atoms: N_1  and  C_17
REMARK    3  A    between atoms: C_6  and  N_9
REMARK    4  A    between atoms: N_9  and  C_12
REMARK    5  A    between atoms: C_17  and  C_18
REMARK    6  A    between atoms: C_18  and  C_20
REMARK                            x       y       z     vdW  Elec       q    Type
REMARK                         _______ _______ _______ _____ _____    ______ ____
ROOT
ATOM      1  N   UNL     1      35.327 -16.544 -23.367  0.00  0.00    -0.332 N 
ATOM      2  H   UNL     1      36.209 -16.241 -23.684  0.00  0.00    +0.147 HD
ENDROOT
BRANCH   1   3
ATOM      3  C   UNL     1      34.400 -15.578 -22.996  0.00  0.00    +0.045 C 
ATOM      4  C   UNL     1      33.881 -14.678 -23.943  0.00  0.00    +0.016 C 
ATOM      5  C   UNL     1      33.959 -15.478 -21.664  0.00  0.00    +0.016 C 
ATOM      6  C   UNL     1      32.524 -13.624 -22.245  0.00  0.00    +0.048 C 
ATOM      7  C   UNL     1      32.951 -13.708 -23.570  0.00  0.00    +0.016 C 
ATOM      8  C   UNL     1      33.028 -14.509 -21.292  0.00  0.00    +0.016 C 
BRANCH   6   9
ATOM      9  N   UNL     1      31.581 -12.644 -21.869  0.00  0.00    -0.312 N 
ATOM     10  H   UNL     1      30.670 -12.827 -22.192  0.00  0.00    +0.152 HD
BRANCH   9  12
ATOM     11  N   UNL     1      31.902  -9.094 -19.637  0.00  0.00    -0.242 NA
ATOM     12  C   UNL     1      31.689 -11.455 -21.121  0.00  0.00    +0.051 C 
ATOM     13  C   UNL     1      31.864 -10.237 -21.768  0.00  0.00    +0.035 C 
ATOM     14  C   UNL     1      31.619 -11.493 -19.732  0.00  0.00    +0.035 C 
ATOM     15  C   UNL     1      31.964  -9.096 -20.988  0.00  0.00    +0.100 C 
ATOM     16  C   UNL     1      31.730 -10.297 -19.044  0.00  0.00    +0.100 C 
ENDBRANCH   9  12
ENDBRANCH   6   9
ENDBRANCH   1   3
BRANCH   1  17
ATOM     17  C   UNL     1      35.075 -17.958 -23.316  0.00  0.00    +0.092 C 
BRANCH  17  18
ATOM     18  C   UNL     1      35.598 -18.594 -22.016  0.00  0.00    +0.049 C 
BRANCH  18  20
ATOM     19  N   UNL     1      32.672 -20.317 -20.672  0.00  0.00    -0.312 N 
ATOM     20  C   UNL     1      34.603 -19.431 -21.313  0.00  0.00    -0.005 C 
ATOM     21  C   UNL     1      34.872 -20.411 -20.318  0.00  0.00    +0.011 C 
ATOM     22  C   UNL     1      33.644 -20.953 -19.932  0.00  0.00    +0.048 C 
ATOM     23  C   UNL     1      33.242 -19.396 -21.508  0.00  0.00    +0.058 C 
ATOM     24  C   UNL     1      36.046 -20.893 -19.706  0.00  0.00    +0.001 C 
ATOM     25  C   UNL     1      33.531 -21.954 -18.962  0.00  0.00    +0.015 C 
ATOM     26  C   UNL     1      35.948 -21.895 -18.733  0.00  0.00    +0.000 C 
ATOM     27  C   UNL     1      34.709 -22.416 -18.369  0.00  0.00    +0.001 C 
ATOM     28  H   UNL     1      31.706 -20.498 -20.608  0.00  0.00    +0.152 HD
ENDBRANCH  18  20
ENDBRANCH  17  18
ENDBRANCH   1  17
TORSDOF 6
ENDMDL
MODEL 2
REMARK VINA RESULT:     -11.1      0.993      1.775
REMARK  Name = 11609586
REMARK  6 active torsions:
REMARK  status: ('A' for Active; 'I' for Inactive)
REMARK    1  A    between atoms: N_1  and  C_3
REMARK    2  A    between atoms: N_1  and  C_17
REMARK    3  A    between atoms: C_6  and  N_9
REMARK    4  A    between atoms: N_9  and  C_12
REMARK    5  A    between atoms: C_17  and  C_18
REMARK    6  A    between atoms: C_18  and  C_20
REMARK                            x       y       z     vdW  Elec       q    Type
REMARK                         _______ _______ _______ _____ _____    ______ ____
ROOT
ATOM      1  N   UNL     1      35.355 -16.378 -23.538  0.00  0.00    -0.332 N 
ATOM      2  H   UNL     1      36.254 -16.064 -23.792  0.00  0.00    +0.147 HD
ENDROOT
BRANCH   1   3
ATOM      3  C   UNL     1      34.424 -15.430 -23.134  0.00  0.00    +0.045 C 
ATOM      4  C   UNL     1      33.615 -14.770 -24.075  0.00  0.00    +0.016 C 
ATOM      5  C   UNL     1      34.267 -15.109 -21.774  0.00  0.00    +0.016 C 
ATOM      6  C   UNL     1      32.537 -13.513 -22.315  0.00  0.00    +0.048 C 
ATOM      7  C   UNL     1      32.679 -13.818 -23.669  0.00  0.00    +0.016 C 
ATOM      8  C   UNL     1      33.332 -14.159 -21.367  0.00  0.00    +0.016 C 
BRANCH   6   9
ATOM      9  N   UNL     1      31.590 -12.552 -21.905  0.00  0.00    -0.312 N 
ATOM     10  H   UNL     1      30.678 -12.730 -22.231  0.00  0.00    +0.152 HD
BRANCH   9  12
ATOM     11  N   UNL     1      31.895  -9.075 -19.559  0.00  0.00    -0.242 NA
ATOM     12  C   UNL     1      31.692 -11.387 -21.119  0.00  0.00    +0.051 C 
ATOM     13  C   UNL     1      31.571 -11.465 -19.736  0.00  0.00    +0.035 C 
ATOM     14  C   UNL     1      31.914 -10.153 -21.723  0.00  0.00    +0.035 C 
ATOM     15  C   UNL     1      31.680 -10.291 -19.007  0.00  0.00    +0.100 C 
ATOM     16  C   UNL     1      32.008  -9.039 -20.906  0.00  0.00    +0.100 C 
ENDBRANCH   9  12
ENDBRANCH   6   9
ENDBRANCH   1   3
BRANCH   1  17
ATOM     17  C   UNL     1      35.085 -17.788 -23.609  0.00  0.00    +0.092 C 
BRANCH  17  18
ATOM     18  C   UNL     1      34.312 -18.293 -22.378  0.00  0.00    +0.049 C 
BRANCH  18  20
ATOM     19  N   UNL     1      36.866 -19.823 -20.263  0.00  0.00    -0.312 N 
ATOM     20  C   UNL     1      35.133 -19.076 -21.431  0.00  0.00    -0.005 C 
ATOM     21  C   UNL     1      34.682 -20.132 -20.591  0.00  0.00    +0.011 C 
ATOM     22  C   UNL     1      35.789 -20.584 -19.868  0.00  0.00    +0.048 C 
ATOM     23  C   UNL     1      36.480 -18.910 -21.206  0.00  0.00    +0.058 C 
ATOM     24  C   UNL     1      33.434 -20.751 -20.375  0.00  0.00    +0.001 C 
ATOM     25  C   UNL     1      35.710 -21.625 -18.938  0.00  0.00    +0.015 C 
ATOM     26  C   UNL     1      33.341 -21.794 -19.446  0.00  0.00    +0.000 C 
ATOM     27  C   UNL     1      34.463 -22.223 -18.740  0.00  0.00    +0.001 C 
ATOM     28  H   UNL     1      37.783 -19.921 -19.917  0.00  0.00    +0.152 HD
ENDBRANCH  18  20
ENDBRANCH  17  18
ENDBRANCH   1  17
TORSDOF 6
ENDMDL
MODEL 3
REMARK VINA RESULT:     -11.0      3.893      7.471
REMARK  Name = 11609586
REMARK  6 active torsions:
REMARK  status: ('A' for Active; 'I' for Inactive)
REMARK    1  A    between atoms: N_1  and  C_3
REMARK    2  A    between atoms: N_1  and  C_17
REMARK    3  A    between atoms: C_6  and  N_9
REMARK    4  A    between atoms: N_9  and  C_12
REMARK    5  A    between atoms: C_17  and  C_18
REMARK    6  A    between atoms: C_18  and  C_20
REMARK                            x       y       z     vdW  Elec       q    Type
REMARK                         _______ _______ _______ _____ _____    ______ ____
ROOT
ATOM      1  N   UNL     1      33.108 -22.455 -18.696  0.00  0.00    -0.332 N 
ATOM      2  H   UNL     1      32.124 -22.497 -18.726  0.00  0.00    +0.147 HD
ENDROOT
BRANCH   1   3
ATOM      3  C   UNL     1      33.744 -21.500 -19.478  0.00  0.00    +0.045 C 
ATOM      4  C   UNL     1      33.001 -20.537 -20.184  0.00  0.00    +0.016 C 
ATOM      5  C   UNL     1      35.146 -21.474 -19.584  0.00  0.00    +0.016 C 
ATOM      6  C   UNL     1      35.032 -19.567 -21.062  0.00  0.00    +0.048 C 
ATOM      7  C   UNL     1      33.641 -19.579 -20.970  0.00  0.00    +0.016 C 
ATOM      8  C   UNL     1      35.785 -20.515 -20.369  0.00  0.00    +0.016 C 
BRANCH   6   9
ATOM      9  N   UNL     1      35.678 -18.596 -21.855  0.00  0.00    -0.312 N 
ATOM     10  H   UNL     1      36.641 -18.510 -21.671  0.00  0.00    +0.152 HD
BRANCH   9  12
ATOM     11  N   UNL     1      34.295 -15.991 -24.853  0.00  0.00    -0.242 NA
ATOM     12  C   UNL     1      35.215 -17.723 -22.859  0.00  0.00    +0.051 C 
ATOM     13  C   UNL     1      34.985 -18.198 -24.145  0.00  0.00    +0.035 C 
ATOM     14  C   UNL     1      34.985 -16.382 -22.569  0.00  0.00    +0.035 C 
ATOM     15  C   UNL     1      34.529 -17.300 -25.098  0.00  0.00    +0.100 C 
ATOM     16  C   UNL     1      34.529 -15.566 -23.591  0.00  0.00    +0.100 C 
ENDBRANCH   9  12
ENDBRANCH   6   9
ENDBRANCH   1   3
BRANCH   1  17
ATOM     17  C   UNL     1      33.799 -23.385 -17.845  0.00  0.00    +0.092 C 
BRANCH  17  18
ATOM     18  C   UNL     1      33.863 -22.898 -16.386  0.00  0.00    +0.049 C 
BRANCH  18  20
ATOM     19  N   UNL     1      32.479 -25.055 -13.784  0.00  0.00    -0.312 N 
ATOM     20  C   UNL     1      33.053 -23.702 -15.447  0.00  0.00    -0.005 C 
ATOM     21  C   UNL     1      31.635 -23.824 -15.442  0.00  0.00    +0.011 C 
ATOM     22  C   UNL     1      31.301 -24.679 -14.389  0.00  0.00    +0.048 C 
ATOM     23  C   UNL     1      33.542 -24.470 -14.417  0.00  0.00    +0.058 C 
ATOM     24  C   UNL     1      30.601 -23.289 -16.235  0.00  0.00    +0.001 C 
ATOM     25  C   UNL     1      29.979 -25.025 -14.088  0.00  0.00    +0.015 C 
ATOM     26  C   UNL     1      29.274 -23.627 -15.945  0.00  0.00    +0.000 C 
ATOM     27  C   UNL     1      28.970 -24.482 -14.887  0.00  0.00    +0.001 C 
ATOM     28  H   UNL     1      32.547 -25.658 -13.009  0.00  0.00    +0.152 HD
ENDBRANCH  18  20
ENDBRANCH  17  18
ENDBRANCH   1  17
TORSDOF 6
ENDMDL
MODEL 4
REMARK VINA RESULT:     -10.8      4.066      7.370
REMARK  Name = 11609586
REMARK  6 active torsions:
REMARK  status: ('A' for Active; 'I' for Inactive)
REMARK    1  A    between atoms: N_1  and  C_3
REMARK    2  A    between atoms: N_1  and  C_17
REMARK    3  A    between atoms: C_6  and  N_9
REMARK    4  A    between atoms: N_9  and  C_12
REMARK    5  A    between atoms: C_17  and  C_18
REMARK    6  A    between atoms: C_18  and  C_20
REMARK                            x       y       z     vdW  Elec       q    Type
REMARK                         _______ _______ _______ _____ _____    ______ ____
ROOT
ATOM      1  N   UNL     1      32.969 -22.430 -18.452  0.00  0.00    -0.332 N 
ATOM      2  H   UNL     1      32.002 -22.295 -18.324  0.00  0.00    +0.147 HD
ENDROOT
BRANCH   1   3
ATOM      3  C   UNL     1      33.643 -21.557 -19.296  0.00  0.00    +0.045 C 
ATOM      4  C   UNL     1      35.036 -21.650 -19.462  0.00  0.00    +0.016 C 
ATOM      5  C   UNL     1      32.948 -20.561 -20.005  0.00  0.00    +0.016 C 
ATOM      6  C   UNL     1      35.008 -19.792 -21.006  0.00  0.00    +0.048 C 
ATOM      7  C   UNL     1      35.713 -20.773 -20.310  0.00  0.00    +0.016 C 
ATOM      8  C   UNL     1      33.625 -19.685 -20.853  0.00  0.00    +0.016 C 
BRANCH   6   9
ATOM      9  N   UNL     1      35.692 -18.907 -21.865  0.00  0.00    -0.312 N 
ATOM     10  H   UNL     1      36.668 -18.903 -21.734  0.00  0.00    +0.152 HD
BRANCH   9  12
ATOM     11  N   UNL     1      34.383 -16.279 -24.875  0.00  0.00    -0.242 NA
ATOM     12  C   UNL     1      35.254 -18.026 -22.873  0.00  0.00    +0.051 C 
ATOM     13  C   UNL     1      34.942 -18.512 -24.138  0.00  0.00    +0.035 C 
ATOM     14  C   UNL     1      35.130 -16.666 -22.609  0.00  0.00    +0.035 C 
ATOM     15  C   UNL     1      34.515 -17.606 -25.096  0.00  0.00    +0.100 C 
ATOM     16  C   UNL     1      34.694 -15.843 -23.634  0.00  0.00    +0.100 C 
ENDBRANCH   9  12
ENDBRANCH   6   9
ENDBRANCH   1   3
BRANCH   1  17
ATOM     17  C   UNL     1      33.599 -23.518 -17.754  0.00  0.00    +0.092 C 
BRANCH  17  18
ATOM     18  C   UNL     1      33.908 -23.165 -16.288  0.00  0.00    +0.049 C 
BRANCH  18  20
ATOM     19  N   UNL     1      37.448 -22.495 -15.697  0.00  0.00    -0.312 N 
ATOM     20  C   UNL     1      35.348 -23.163 -15.960  0.00  0.00    -0.005 C 
ATOM     21  C   UNL     1      36.100 -24.253 -15.439  0.00  0.00    +0.011 C 
ATOM     22  C   UNL     1      37.415 -23.807 -15.283  0.00  0.00    +0.048 C 
ATOM     23  C   UNL     1      36.205 -22.097 -16.108  0.00  0.00    +0.058 C 
ATOM     24  C   UNL     1      35.789 -25.580 -15.084  0.00  0.00    +0.001 C 
ATOM     25  C   UNL     1      38.436 -24.625 -14.788  0.00  0.00    +0.015 C 
ATOM     26  C   UNL     1      36.801 -26.410 -14.587  0.00  0.00    +0.000 C 
ATOM     27  C   UNL     1      38.104 -25.937 -14.442  0.00  0.00    +0.001 C 
ATOM     28  H   UNL     1      38.251 -21.924 -15.698  0.00  0.00    +0.152 HD
ENDBRANCH  18  20
ENDBRANCH  17  18
ENDBRANCH   1  17
TORSDOF 6
ENDMDL
MODEL 5
REMARK VINA RESULT:     -10.8      2.646      9.113
REMARK  Name = 11609586
REMARK  6 active torsions:
REMARK  status: ('A' for Active; 'I' for Inactive)
REMARK    1  A    between atoms: N_1  and  C_3
REMARK    2  A    between atoms: N_1  and  C_17
REMARK    3  A    between atoms: C_6  and  N_9
REMARK    4  A    between atoms: N_9  and  C_12
REMARK    5  A    between atoms: C_17  and  C_18
REMARK    6  A    between atoms: C_18  and  C_20
REMARK                            x       y       z     vdW  Elec       q    Type
REMARK                         _______ _______ _______ _____ _____    ______ ____
ROOT
ATOM      1  N   UNL     1      35.196 -19.058 -21.468  0.00  0.00    -0.332 N 
ATOM      2  H   UNL     1      35.795 -18.386 -21.068  0.00  0.00    +0.147 HD
ENDROOT
BRANCH   1   3
ATOM      3  C   UNL     1      34.739 -20.089 -20.657  0.00  0.00    +0.045 C 
ATOM      4  C   UNL     1      33.369 -20.227 -20.374  0.00  0.00    +0.016 C 
ATOM      5  C   UNL     1      35.636 -21.018 -20.100  0.00  0.00    +0.016 C 
ATOM      6  C   UNL     1      33.813 -22.176 -19.016  0.00  0.00    +0.048 C 
ATOM      7  C   UNL     1      32.910 -21.263 -19.559  0.00  0.00    +0.016 C 
ATOM      8  C   UNL     1      35.177 -22.053 -19.286  0.00  0.00    +0.016 C 
BRANCH   6   9
ATOM      9  N   UNL     1      33.349 -23.223 -18.194  0.00  0.00    -0.312 N 
ATOM     10  H   UNL     1      33.301 -24.094 -18.651  0.00  0.00    +0.152 HD
BRANCH   9  12
ATOM     11  N   UNL     1      32.124 -23.357 -14.174  0.00  0.00    -0.242 NA
ATOM     12  C   UNL     1      32.938 -23.268 -16.847  0.00  0.00    +0.051 C 
ATOM     13  C   UNL     1      33.866 -23.521 -15.843  0.00  0.00    +0.035 C 
ATOM     14  C   UNL     1      31.603 -23.060 -16.515  0.00  0.00    +0.035 C 
ATOM     15  C   UNL     1      33.413 -23.555 -14.533  0.00  0.00    +0.100 C 
ATOM     16  C   UNL     1      31.252 -23.114 -15.177  0.00  0.00    +0.100 C 
ENDBRANCH   9  12
ENDBRANCH   6   9
ENDBRANCH   1   3
BRANCH   1  17
ATOM     17  C   UNL     1      34.848 -18.915 -22.855  0.00  0.00    +0.092 C 
BRANCH  17  18
ATOM     18  C   UNL     1      35.512 -17.683 -23.496  0.00  0.00    +0.049 C 
BRANCH  18  20
ATOM     19  N   UNL     1      33.329 -14.982 -24.625  0.00  0.00    -0.312 N 
ATOM     20  C   UNL     1      34.601 -16.534 -23.677  0.00  0.00    -0.005 C 
ATOM     21  C   UNL     1      34.036 -15.731 -22.647  0.00  0.00    +0.011 C 
ATOM     22  C   UNL     1      33.242 -14.764 -23.269  0.00  0.00    +0.048 C 
ATOM     23  C   UNL     1      34.148 -16.048 -24.881  0.00  0.00    +0.058 C 
ATOM     24  C   UNL     1      34.124 -15.732 -21.241  0.00  0.00    +0.001 C 
ATOM     25  C   UNL     1      32.530 -13.797 -22.552  0.00  0.00    +0.015 C 
ATOM     26  C   UNL     1      33.416 -14.770 -20.511  0.00  0.00    +0.000 C 
ATOM     27  C   UNL     1      32.631 -13.818 -21.159  0.00  0.00    +0.001 C 
ATOM     28  H   UNL     1      32.869 -14.448 -25.313  0.00  0.00    +0.152 HD
ENDBRANCH  18  20
ENDBRANCH  17  18
ENDBRANCH   1  17
TORSDOF 6
ENDMDL
MODEL 6
REMARK VINA RESULT:     -10.7      2.988      9.570
REMARK  Name = 11609586
REMARK  6 active torsions:
REMARK  status: ('A' for Active; 'I' for Inactive)
REMARK    1  A    between atoms: N_1  and  C_3
REMARK    2  A    between atoms: N_1  and  C_17
REMARK    3  A    between atoms: C_6  and  N_9
REMARK    4  A    between atoms: N_9  and  C_12
REMARK    5  A    between atoms: C_17  and  C_18
REMARK    6  A    between atoms: C_18  and  C_20
REMARK                            x       y       z     vdW  Elec       q    Type
REMARK                         _______ _______ _______ _____ _____    ______ ____
ROOT
ATOM      1  N   UNL     1      35.854 -19.052 -21.339  0.00  0.00    -0.332 N 
ATOM      2  H   UNL     1      36.676 -19.282 -21.831  0.00  0.00    +0.147 HD
ENDROOT
BRANCH   1   3
ATOM      3  C   UNL     1      35.227 -20.055 -20.610  0.00  0.00    +0.045 C 
ATOM      4  C   UNL     1      35.982 -21.012 -19.909  0.00  0.00    +0.016 C 
ATOM      5  C   UNL     1      33.825 -20.136 -20.556  0.00  0.00    +0.016 C 
ATOM      6  C   UNL     1      33.960 -22.084 -19.134  0.00  0.00    +0.048 C 
ATOM      7  C   UNL     1      35.352 -22.019 -19.177  0.00  0.00    +0.016 C 
ATOM      8  C   UNL     1      33.196 -21.142 -19.823  0.00  0.00    +0.016 C 
BRANCH   6   9
ATOM      9  N   UNL     1      33.325 -23.101 -18.392  0.00  0.00    -0.312 N 
ATOM     10  H   UNL     1      33.048 -23.874 -18.934  0.00  0.00    +0.152 HD
BRANCH   9  12
ATOM     11  N   UNL     1      32.378 -23.479 -14.312  0.00  0.00    -0.242 NA
ATOM     12  C   UNL     1      33.007 -23.228 -17.025  0.00  0.00    +0.051 C 
ATOM     13  C   UNL     1      34.010 -23.482 -16.096  0.00  0.00    +0.035 C 
ATOM     14  C   UNL     1      31.689 -23.099 -16.597  0.00  0.00    +0.035 C 
ATOM     15  C   UNL     1      33.647 -23.598 -14.763  0.00  0.00    +0.100 C 
ATOM     16  C   UNL     1      31.430 -23.231 -15.243  0.00  0.00    +0.100 C 
ENDBRANCH   9  12
ENDBRANCH   6   9
ENDBRANCH   1   3
BRANCH   1  17
ATOM     17  C   UNL     1      35.374 -17.699 -21.419  0.00  0.00    +0.092 C 
BRANCH  17  18
ATOM     18  C   UNL     1      34.851 -17.351 -22.824  0.00  0.00    +0.049 C 
BRANCH  18  20
ATOM     19  N   UNL     1      34.296 -13.747 -22.625  0.00  0.00    -0.312 N 
ATOM     20  C   UNL     1      34.540 -15.919 -23.012  0.00  0.00    -0.005 C 
ATOM     21  C   UNL     1      34.032 -15.310 -24.194  0.00  0.00    +0.011 C 
ATOM     22  C   UNL     1      33.888 -13.947 -23.924  0.00  0.00    +0.048 C 
ATOM     23  C   UNL     1      34.691 -14.932 -22.065  0.00  0.00    +0.058 C 
ATOM     24  C   UNL     1      33.680 -15.788 -25.471  0.00  0.00    +0.001 C 
ATOM     25  C   UNL     1      33.408 -13.036 -24.871  0.00  0.00    +0.015 C 
ATOM     26  C   UNL     1      33.199 -14.888 -26.429  0.00  0.00    +0.000 C 
ATOM     27  C   UNL     1      33.066 -13.533 -26.131  0.00  0.00    +0.001 C 
ATOM     28  H   UNL     1      34.302 -12.877 -22.163  0.00  0.00    +0.152 HD
ENDBRANCH  18  20
ENDBRANCH  17  18
ENDBRANCH   1  17
TORSDOF 6
ENDMDL
MODEL 7
REMARK VINA RESULT:     -10.6      2.454      9.406
REMARK  Name = 11609586
REMARK  6 active torsions:
REMARK  status: ('A' for Active; 'I' for Inactive)
REMARK    1  A    between atoms: N_1  and  C_3
REMARK    2  A    between atoms: N_1  and  C_17
REMARK    3  A    between atoms: C_6  and  N_9
REMARK    4  A    between atoms: N_9  and  C_12
REMARK    5  A    between atoms: C_17  and  C_18
REMARK    6  A    between atoms: C_18  and  C_20
REMARK                            x       y       z     vdW  Elec       q    Type
REMARK                         _______ _______ _______ _____ _____    ______ ____
ROOT
ATOM      1  N   UNL     1      35.613 -18.914 -21.447  0.00  0.00    -0.332 N 
ATOM      2  H   UNL     1      36.595 -18.864 -21.499  0.00  0.00    +0.147 HD
ENDROOT
BRANCH   1   3
ATOM      3  C   UNL     1      35.050 -19.940 -20.699  0.00  0.00    +0.045 C 
ATOM      4  C   UNL     1      35.864 -20.863 -20.018  0.00  0.00    +0.016 C 
ATOM      5  C   UNL     1      33.654 -20.080 -20.604  0.00  0.00    +0.016 C 
ATOM      6  C   UNL     1      33.911 -22.016 -19.183  0.00  0.00    +0.048 C 
ATOM      7  C   UNL     1      35.298 -21.893 -19.267  0.00  0.00    +0.016 C 
ATOM      8  C   UNL     1      33.089 -21.109 -19.852  0.00  0.00    +0.016 C 
BRANCH   6   9
ATOM      9  N   UNL     1      33.341 -23.057 -18.421  0.00  0.00    -0.312 N 
ATOM     10  H   UNL     1      33.121 -23.859 -18.948  0.00  0.00    +0.152 HD
BRANCH   9  12
ATOM     11  N   UNL     1      32.391 -23.406 -14.339  0.00  0.00    -0.242 NA
ATOM     12  C   UNL     1      33.023 -23.174 -17.054  0.00  0.00    +0.051 C 
ATOM     13  C   UNL     1      31.701 -23.077 -16.633  0.00  0.00    +0.035 C 
ATOM     14  C   UNL     1      34.029 -23.386 -16.117  0.00  0.00    +0.035 C 
ATOM     15  C   UNL     1      31.439 -23.199 -15.278  0.00  0.00    +0.100 C 
ATOM     16  C   UNL     1      33.663 -23.495 -14.785  0.00  0.00    +0.100 C 
ENDBRANCH   9  12
ENDBRANCH   6   9
ENDBRANCH   1   3
BRANCH   1  17
ATOM     17  C   UNL     1      34.847 -17.921 -22.150  0.00  0.00    +0.092 C 
BRANCH  17  18
ATOM     18  C   UNL     1      34.814 -16.576 -21.401  0.00  0.00    +0.049 C 
BRANCH  18  20
ATOM     19  N   UNL     1      33.965 -14.073 -23.920  0.00  0.00    -0.312 N 
ATOM     20  C   UNL     1      34.316 -15.448 -22.213  0.00  0.00    -0.005 C 
ATOM     21  C   UNL     1      33.438 -14.414 -21.780  0.00  0.00    +0.011 C 
ATOM     22  C   UNL     1      33.235 -13.565 -22.869  0.00  0.00    +0.048 C 
ATOM     23  C   UNL     1      34.621 -15.209 -23.533  0.00  0.00    +0.058 C 
ATOM     24  C   UNL     1      32.796 -14.119 -20.561  0.00  0.00    +0.001 C 
ATOM     25  C   UNL     1      32.418 -12.431 -22.801  0.00  0.00    +0.015 C 
ATOM     26  C   UNL     1      31.976 -12.987 -20.478  0.00  0.00    +0.000 C 
ATOM     27  C   UNL     1      31.791 -12.158 -21.583  0.00  0.00    +0.001 C 
ATOM     28  H   UNL     1      34.010 -13.675 -24.820  0.00  0.00    +0.152 HD
ENDBRANCH  18  20
ENDBRANCH  17  18
ENDBRANCH   1  17
TORSDOF 6
ENDMDL
MODEL 8
REMARK VINA RESULT:     -10.5      2.049      9.711
REMARK  Name = 11609586
REMARK  6 active torsions:
REMARK  status: ('A' for Active; 'I' for Inactive)
REMARK    1  A    between atoms: N_1  and  C_3
REMARK    2  A    between atoms: N_1  and  C_17
REMARK    3  A    between atoms: C_6  and  N_9
REMARK    4  A    between atoms: N_9  and  C_12
REMARK    5  A    between atoms: C_17  and  C_18
REMARK    6  A    between atoms: C_18  and  C_20
REMARK                            x       y       z     vdW  Elec       q    Type
REMARK                         _______ _______ _______ _____ _____    ______ ____
ROOT
ATOM      1  N   UNL     1      33.756 -14.803 -24.476  0.00  0.00    -0.332 N 
ATOM      2  H   UNL     1      33.896 -14.825 -25.451  0.00  0.00    +0.147 HD
ENDROOT
BRANCH   1   3
ATOM      3  C   UNL     1      34.285 -15.839 -23.718  0.00  0.00    +0.045 C 
ATOM      4  C   UNL     1      34.626 -17.066 -24.315  0.00  0.00    +0.016 C 
ATOM      5  C   UNL     1      34.494 -15.686 -22.336  0.00  0.00    +0.016 C 
ATOM      6  C   UNL     1      35.359 -17.936 -22.183  0.00  0.00    +0.048 C 
ATOM      7  C   UNL     1      35.157 -18.106 -23.552  0.00  0.00    +0.016 C 
ATOM      8  C   UNL     1      35.026 -16.725 -21.574  0.00  0.00    +0.016 C 
BRANCH   6   9
ATOM      9  N   UNL     1      35.898 -18.988 -21.413  0.00  0.00    -0.312 N 
ATOM     10  H   UNL     1      36.882 -19.018 -21.419  0.00  0.00    +0.152 HD
BRANCH   9  12
ATOM     11  N   UNL     1      34.129 -22.021 -19.099  0.00  0.00    -0.242 NA
ATOM     12  C   UNL     1      35.305 -20.004 -20.638  0.00  0.00    +0.051 C 
ATOM     13  C   UNL     1      36.102 -20.898 -19.932  0.00  0.00    +0.035 C 
ATOM     14  C   UNL     1      33.920 -20.118 -20.576  0.00  0.00    +0.035 C 
ATOM     15  C   UNL     1      35.471 -21.879 -19.183  0.00  0.00    +0.100 C 
ATOM     16  C   UNL     1      33.387 -21.133 -19.799  0.00  0.00    +0.100 C 
ENDBRANCH   9  12
ENDBRANCH   6   9
ENDBRANCH   1   3
BRANCH   1  17
ATOM     17  C   UNL     1      33.016 -13.702 -23.923  0.00  0.00    +0.092 C 
BRANCH  17  18
ATOM     18  C   UNL     1      33.792 -12.376 -24.017  0.00  0.00    +0.049 C 
BRANCH  18  20
ATOM     19  N   UNL     1      31.710 -10.056 -22.115  0.00  0.00    -0.312 N 
ATOM     20  C   UNL     1      33.124 -11.239 -23.350  0.00  0.00    -0.005 C 
ATOM     21  C   UNL     1      33.498  -9.869 -23.435  0.00  0.00    +0.011 C 
ATOM     22  C   UNL     1      32.594  -9.148 -22.651  0.00  0.00    +0.048 C 
ATOM     23  C   UNL     1      32.022 -11.322 -22.532  0.00  0.00    +0.058 C 
ATOM     24  C   UNL     1      34.520  -9.169 -24.106  0.00  0.00    +0.001 C 
ATOM     25  C   UNL     1      32.663  -7.758 -22.504  0.00  0.00    +0.015 C 
ATOM     26  C   UNL     1      34.601  -7.779 -23.968  0.00  0.00    +0.000 C 
ATOM     27  C   UNL     1      33.686  -7.086 -23.178  0.00  0.00    +0.001 C 
ATOM     28  H   UNL     1      30.960  -9.829 -21.518  0.00  0.00    +0.152 HD
ENDBRANCH  18  20
ENDBRANCH  17  18
ENDBRANCH   1  17
TORSDOF 6
ENDMDL
MODEL 9
REMARK VINA RESULT:     -10.5      3.892     10.843
REMARK  Name = 11609586
REMARK  6 active torsions:
REMARK  status: ('A' for Active; 'I' for Inactive)
REMARK    1  A    between atoms: N_1  and  C_3
REMARK    2  A    between atoms: N_1  and  C_17
REMARK    3  A    between atoms: C_6  and  N_9
REMARK    4  A    between atoms: N_9  and  C_12
REMARK    5  A    between atoms: C_17  and  C_18
REMARK    6  A    between atoms: C_18  and  C_20
REMARK                            x       y       z     vdW  Elec       q    Type
REMARK                         _______ _______ _______ _____ _____    ______ ____
ROOT
ATOM      1  N   UNL     1      35.438 -21.401 -20.204  0.00  0.00    -0.332 N 
ATOM      2  H   UNL     1      35.776 -21.992 -20.916  0.00  0.00    +0.147 HD
ENDROOT
BRANCH   1   3
ATOM      3  C   UNL     1      35.504 -21.854 -18.893  0.00  0.00    +0.045 C 
ATOM      4  C   UNL     1      34.418 -22.532 -18.311  0.00  0.00    +0.016 C 
ATOM      5  C   UNL     1      36.658 -21.646 -18.117  0.00  0.00    +0.016 C 
ATOM      6  C   UNL     1      35.639 -22.773 -16.240  0.00  0.00    +0.048 C 
ATOM      7  C   UNL     1      34.485 -22.987 -16.994  0.00  0.00    +0.016 C 
ATOM      8  C   UNL     1      36.725 -22.102 -16.801  0.00  0.00    +0.016 C 
BRANCH   6   9
ATOM      9  N   UNL     1      35.706 -23.235 -14.909  0.00  0.00    -0.312 N 
ATOM     10  H   UNL     1      35.230 -22.662 -14.266  0.00  0.00    +0.152 HD
BRANCH   9  12
ATOM     11  N   UNL     1      37.544 -26.583 -13.149  0.00  0.00    -0.242 NA
ATOM     12  C   UNL     1      36.322 -24.357 -14.319  0.00  0.00    +0.051 C 
ATOM     13  C   UNL     1      36.434 -25.546 -15.030  0.00  0.00    +0.035 C 
ATOM     14  C   UNL     1      36.821 -24.280 -13.023  0.00  0.00    +0.035 C 
ATOM     15  C   UNL     1      37.048 -26.621 -14.407  0.00  0.00    +0.100 C 
ATOM     16  C   UNL     1      37.418 -25.410 -12.490  0.00  0.00    +0.100 C 
ENDBRANCH   9  12
ENDBRANCH   6   9
ENDBRANCH   1   3
BRANCH   1  17
ATOM     17  C   UNL     1      34.907 -20.120 -20.584  0.00  0.00    +0.092 C 
BRANCH  17  18
ATOM     18  C   UNL     1      36.015 -19.120 -20.959  0.00  0.00    +0.049 C 
BRANCH  18  20
ATOM     19  N   UNL     1      35.297 -17.311 -24.049  0.00  0.00    -0.312 N 
ATOM     20  C   UNL     1      35.639 -18.181 -22.036  0.00  0.00    -0.005 C 
ATOM     21  C   UNL     1      35.105 -16.872 -21.871  0.00  0.00    +0.011 C 
ATOM     22  C   UNL     1      34.900 -16.348 -23.149  0.00  0.00    +0.048 C 
ATOM     23  C   UNL     1      35.745 -18.422 -23.386  0.00  0.00    +0.058 C 
ATOM     24  C   UNL     1      34.776 -16.080 -20.754  0.00  0.00    +0.001 C 
ATOM     25  C   UNL     1      34.380 -15.068 -23.367  0.00  0.00    +0.015 C 
ATOM     26  C   UNL     1      34.255 -14.796 -20.956  0.00  0.00    +0.000 C 
ATOM     27  C   UNL     1      34.060 -14.300 -22.244  0.00  0.00    +0.001 C 
ATOM     28  H   UNL     1      35.264 -17.216 -25.029  0.00  0.00    +0.152 HD
ENDBRANCH  18  20
ENDBRANCH  17  18
ENDBRANCH   1  17
TORSDOF 6
ENDMDL
