MODEL 1
REMARK VINA RESULT:      -9.8      0.000      0.000
REMARK  Name = 16058650
REMARK  4 active torsions:
REMARK  status: ('A' for Active; 'I' for Inactive)
REMARK    1  A    between atoms: C_4  and  C_16
REMARK    2  A    between atoms: C_5  and  N_32
REMARK    3  A    between atoms: C_11  and  C_22
REMARK    4  A    between atoms: C_25  and  S_28
REMARK                            x       y       z     vdW  Elec       q    Type
REMARK                         _______ _______ _______ _____ _____    ______ ____
ROOT
ATOM      1  N   UNL     1      35.779 -20.338 -21.029  0.00  0.00    -0.299 N 
ATOM      2  N   UNL     1      33.951 -21.667 -20.259  0.00  0.00    -0.234 NA
ATOM      3  N   UNL     1      34.073 -22.750 -18.111  0.00  0.00    -0.248 NA
ATOM      4  C   UNL     1      35.286 -17.674 -22.029  0.00  0.00    +0.008 C 
ATOM      5  C   UNL     1      34.377 -18.877 -22.408  0.00  0.00    -0.041 C 
ATOM      6  C   UNL     1      36.000 -17.929 -20.682  0.00  0.00    +0.024 C 
ATOM      7  C   UNL     1      35.167 -20.200 -22.356  0.00  0.00    +0.070 C 
ATOM      8  C   UNL     1      36.726 -19.274 -20.691  0.00  0.00    +0.092 C 
ATOM      9  C   UNL     1      35.198 -21.148 -20.058  0.00  0.00    +0.111 C 
ATOM     10  C   UNL     1      35.914 -21.410 -18.890  0.00  0.00    +0.106 C 
ATOM     11  C   UNL     1      35.302 -22.217 -17.953  0.00  0.00    +0.063 C 
ATOM     12  C   UNL     1      33.463 -22.439 -19.270  0.00  0.00    +0.251 C 
ENDROOT
BRANCH   4  16
ATOM     13  F   UNL     1      35.356 -15.799 -24.157  0.00  0.00    -0.204 F 
ATOM     14  F   UNL     1      32.377 -14.463 -19.769  0.00  0.00    -0.202 F 
ATOM     15  F   UNL     1      32.533 -12.750 -21.894  0.00  0.00    -0.202 F 
ATOM     16  C   UNL     1      34.544 -16.347 -21.995  0.00  0.00    +0.005 C 
ATOM     17  C   UNL     1      34.627 -15.478 -23.080  0.00  0.00    +0.138 C 
ATOM     18  C   UNL     1      33.787 -16.010 -20.877  0.00  0.00    +0.030 C 
ATOM     19  C   UNL     1      33.106 -14.793 -20.844  0.00  0.00    +0.167 C 
ATOM     20  C   UNL     1      33.946 -14.261 -23.046  0.00  0.00    +0.061 C 
ATOM     21  C   UNL     1      33.185 -13.919 -21.927  0.00  0.00    +0.170 C 
ENDBRANCH   4  16
BRANCH  11  22
ATOM     22  C   UNL     1      35.959 -22.549 -16.711  0.00  0.00    +0.015 C 
ATOM     23  C   UNL     1      35.250 -23.189 -15.692  0.00  0.00    +0.020 C 
ATOM     24  C   UNL     1      37.305 -22.228 -16.523  0.00  0.00    +0.001 C 
ATOM     25  C   UNL     1      35.885 -23.507 -14.492  0.00  0.00    +0.106 C 
ATOM     26  C   UNL     1      37.941 -22.547 -15.322  0.00  0.00    +0.001 C 
ATOM     27  C   UNL     1      37.230 -23.187 -14.307  0.00  0.00    +0.018 C 
BRANCH  25  28
ATOM     28  S   UNL     1      34.998 -24.310 -13.219  0.00  0.00    +0.010 S 
ATOM     29  O   UNL     1      35.588 -25.627 -13.024  0.00  0.00    -0.169 OA
ATOM     30  O   UNL     1      34.867 -23.402 -12.089  0.00  0.00    -0.169 OA
ATOM     31  C   UNL     1      33.367 -24.537 -13.894  0.00  0.00    +0.182 C 
ENDBRANCH  25  28
ENDBRANCH  11  22
BRANCH   5  32
ATOM     32  N   UNL     1      33.810 -18.696 -23.748  0.00  0.00    +0.383 N 
ATOM     33  H   UNL     1      34.556 -18.748 -24.441  0.00  0.00    -0.089 HD
ATOM     34  H   UNL     1      33.356 -17.784 -23.804  0.00  0.00    -0.089 HD
ATOM     35  H   UNL     1      33.125 -19.429 -23.929  0.00  0.00    -0.089 HD
ENDBRANCH   5  32
TORSDOF 4
ENDMDL
MODEL 2
REMARK VINA RESULT:      -9.6      8.577     13.001
REMARK  Name = 16058650
REMARK  4 active torsions:
REMARK  status: ('A' for Active; 'I' for Inactive)
REMARK    1  A    between atoms: C_4  and  C_16
REMARK    2  A    between atoms: C_5  and  N_32
REMARK    3  A    between atoms: C_11  and  C_22
REMARK    4  A    between atoms: C_25  and  S_28
REMARK                            x       y       z     vdW  Elec       q    Type
REMARK                         _______ _______ _______ _____ _____    ______ ____
ROOT
ATOM      1  N   UNL     1      32.792 -12.591 -24.264  0.00  0.00    -0.299 N 
ATOM      2  N   UNL     1      34.621 -11.144 -24.775  0.00  0.00    -0.234 NA
ATOM      3  N   UNL     1      34.703  -8.930 -23.827  0.00  0.00    -0.248 NA
ATOM      4  C   UNL     1      33.313 -15.291 -23.382  0.00  0.00    +0.008 C 
ATOM      5  C   UNL     1      34.096 -14.645 -24.559  0.00  0.00    -0.041 C 
ATOM      6  C   UNL     1      32.757 -14.207 -22.431  0.00  0.00    +0.024 C 
ATOM      7  C   UNL     1      33.242 -13.570 -25.262  0.00  0.00    +0.070 C 
ATOM      8  C   UNL     1      31.958 -13.156 -23.202  0.00  0.00    +0.092 C 
ATOM      9  C   UNL     1      33.441 -11.368 -24.125  0.00  0.00    +0.111 C 
ATOM     10  C   UNL     1      32.860 -10.393 -23.315  0.00  0.00    +0.106 C 
ATOM     11  C   UNL     1      33.536  -9.194 -23.204  0.00  0.00    +0.063 C 
ATOM     12  C   UNL     1      35.182  -9.934 -24.585  0.00  0.00    +0.251 C 
ENDROOT
BRANCH   4  16
ATOM     13  F   UNL     1      34.460 -14.757 -20.843  0.00  0.00    -0.204 F 
ATOM     14  F   UNL     1      35.295 -19.736 -22.944  0.00  0.00    -0.202 F 
ATOM     15  F   UNL     1      36.341 -19.085 -20.505  0.00  0.00    -0.202 F 
ATOM     16  C   UNL     1      34.129 -16.312 -22.605  0.00  0.00    +0.005 C 
ATOM     17  C   UNL     1      34.660 -15.975 -21.363  0.00  0.00    +0.138 C 
ATOM     18  C   UNL     1      34.340 -17.578 -23.142  0.00  0.00    +0.030 C 
ATOM     19  C   UNL     1      35.088 -18.516 -22.431  0.00  0.00    +0.167 C 
ATOM     20  C   UNL     1      35.408 -16.913 -20.652  0.00  0.00    +0.061 C 
ATOM     21  C   UNL     1      35.622 -18.185 -21.186  0.00  0.00    +0.170 C 
ENDBRANCH   4  16
BRANCH  11  22
ATOM     22  C   UNL     1      33.020  -8.120 -22.389  0.00  0.00    +0.015 C 
ATOM     23  C   UNL     1      32.441  -7.000 -22.990  0.00  0.00    +0.020 C 
ATOM     24  C   UNL     1      33.099  -8.195 -20.997  0.00  0.00    +0.001 C 
ATOM     25  C   UNL     1      31.944  -5.962 -22.203  0.00  0.00    +0.106 C 
ATOM     26  C   UNL     1      32.601  -7.157 -20.209  0.00  0.00    +0.001 C 
ATOM     27  C   UNL     1      32.024  -6.040 -20.812  0.00  0.00    +0.018 C 
BRANCH  25  28
ATOM     28  S   UNL     1      31.218  -4.563 -22.956  0.00  0.00    +0.010 S 
ATOM     29  O   UNL     1      29.964  -4.284 -22.269  0.00  0.00    -0.169 OA
ATOM     30  O   UNL     1      32.223  -3.517 -23.079  0.00  0.00    -0.169 OA
ATOM     31  C   UNL     1      30.827  -5.103 -24.605  0.00  0.00    +0.182 C 
ENDBRANCH  25  28
ENDBRANCH  11  22
BRANCH   5  32
ATOM     32  N   UNL     1      34.501 -15.663 -25.532  0.00  0.00    +0.383 N 
ATOM     33  H   UNL     1      34.142 -15.415 -26.453  0.00  0.00    -0.089 HD
ATOM     34  H   UNL     1      34.125 -16.569 -25.253  0.00  0.00    -0.089 HD
ATOM     35  H   UNL     1      35.520 -15.714 -25.566  0.00  0.00    -0.089 HD
ENDBRANCH   5  32
TORSDOF 4
ENDMDL
MODEL 3
REMARK VINA RESULT:      -9.6      1.260      1.833
REMARK  Name = 16058650
REMARK  4 active torsions:
REMARK  status: ('A' for Active; 'I' for Inactive)
REMARK    1  A    between atoms: C_4  and  C_16
REMARK    2  A    between atoms: C_5  and  N_32
REMARK    3  A    between atoms: C_11  and  C_22
REMARK    4  A    between atoms: C_25  and  S_28
REMARK                            x       y       z     vdW  Elec       q    Type
REMARK                         _______ _______ _______ _____ _____    ______ ____
ROOT
ATOM      1  N   UNL     1      35.662 -19.813 -21.598  0.00  0.00    -0.299 N 
ATOM      2  N   UNL     1      33.878 -21.220 -20.865  0.00  0.00    -0.234 NA
ATOM      3  N   UNL     1      34.036 -22.355 -18.746  0.00  0.00    -0.248 NA
ATOM      4  C   UNL     1      35.082 -17.142 -22.531  0.00  0.00    +0.008 C 
ATOM      5  C   UNL     1      34.213 -18.363 -22.941  0.00  0.00    -0.041 C 
ATOM      6  C   UNL     1      35.803 -17.407 -21.190  0.00  0.00    +0.024 C 
ATOM      7  C   UNL     1      35.047 -19.661 -22.923  0.00  0.00    +0.070 C 
ATOM      8  C   UNL     1      36.574 -18.727 -21.232  0.00  0.00    +0.092 C 
ATOM      9  C   UNL     1      35.108 -20.666 -20.649  0.00  0.00    +0.111 C 
ATOM     10  C   UNL     1      35.832 -20.935 -19.488  0.00  0.00    +0.106 C 
ATOM     11  C   UNL     1      35.247 -21.786 -18.573  0.00  0.00    +0.063 C 
ATOM     12  C   UNL     1      33.416 -22.034 -19.897  0.00  0.00    +0.251 C 
ENDROOT
BRANCH   4  16
ATOM     13  F   UNL     1      32.989 -16.683 -20.671  0.00  0.00    -0.204 F 
ATOM     14  F   UNL     1      34.166 -12.617 -24.133  0.00  0.00    -0.202 F 
ATOM     15  F   UNL     1      32.174 -12.312 -22.287  0.00  0.00    -0.202 F 
ATOM     16  C   UNL     1      34.297 -15.841 -22.463  0.00  0.00    +0.005 C 
ATOM     17  C   UNL     1      33.283 -15.691 -21.521  0.00  0.00    +0.138 C 
ATOM     18  C   UNL     1      34.599 -14.808 -23.345  0.00  0.00    +0.030 C 
ATOM     19  C   UNL     1      33.881 -13.614 -23.285  0.00  0.00    +0.167 C 
ATOM     20  C   UNL     1      32.565 -14.496 -21.461  0.00  0.00    +0.061 C 
ATOM     21  C   UNL     1      32.864 -13.457 -22.343  0.00  0.00    +0.170 C 
ENDBRANCH   4  16
BRANCH  11  22
ATOM     22  C   UNL     1      35.914 -22.127 -17.339  0.00  0.00    +0.015 C 
ATOM     23  C   UNL     1      35.342 -23.055 -16.466  0.00  0.00    +0.020 C 
ATOM     24  C   UNL     1      37.133 -21.530 -17.013  0.00  0.00    +0.001 C 
ATOM     25  C   UNL     1      35.986 -23.384 -15.274  0.00  0.00    +0.106 C 
ATOM     26  C   UNL     1      37.778 -21.859 -15.820  0.00  0.00    +0.001 C 
ATOM     27  C   UNL     1      37.204 -22.786 -14.951  0.00  0.00    +0.018 C 
BRANCH  25  28
ATOM     28  S   UNL     1      35.270 -24.547 -14.185  0.00  0.00    +0.010 S 
ATOM     29  O   UNL     1      33.844 -24.613 -14.474  0.00  0.00    -0.169 OA
ATOM     30  O   UNL     1      36.068 -25.764 -14.202  0.00  0.00    -0.169 OA
ATOM     31  C   UNL     1      35.467 -23.820 -12.573  0.00  0.00    +0.182 C 
ENDBRANCH  25  28
ENDBRANCH  11  22
BRANCH   5  32
ATOM     32  N   UNL     1      33.641 -18.166 -24.276  0.00  0.00    +0.383 N 
ATOM     33  H   UNL     1      32.699 -18.555 -24.302  0.00  0.00    -0.089 HD
ATOM     34  H   UNL     1      34.223 -18.638 -24.968  0.00  0.00    -0.089 HD
ATOM     35  H   UNL     1      33.604 -17.169 -24.486  0.00  0.00    -0.089 HD
ENDBRANCH   5  32
TORSDOF 4
ENDMDL
MODEL 4
REMARK VINA RESULT:      -9.5     11.170     16.226
REMARK  Name = 16058650
REMARK  4 active torsions:
REMARK  status: ('A' for Active; 'I' for Inactive)
REMARK    1  A    between atoms: C_4  and  C_16
REMARK    2  A    between atoms: C_5  and  N_32
REMARK    3  A    between atoms: C_11  and  C_22
REMARK    4  A    between atoms: C_25  and  S_28
REMARK                            x       y       z     vdW  Elec       q    Type
REMARK                         _______ _______ _______ _____ _____    ______ ____
ROOT
ATOM      1  N   UNL     1      33.333  -8.359 -23.188  0.00  0.00    -0.299 N 
ATOM      2  N   UNL     1      31.201  -7.427 -23.724  0.00  0.00    -0.234 NA
ATOM      3  N   UNL     1      31.064  -5.448 -25.092  0.00  0.00    -0.248 NA
ATOM      4  C   UNL     1      33.798 -11.181 -23.590  0.00  0.00    +0.008 C 
ATOM      5  C   UNL     1      32.481 -10.645 -22.961  0.00  0.00    -0.041 C 
ATOM      6  C   UNL     1      34.460 -10.103 -24.478  0.00  0.00    +0.024 C 
ATOM      7  C   UNL     1      32.723  -9.302 -22.242  0.00  0.00    +0.070 C 
ATOM      8  C   UNL     1      34.630  -8.789 -23.713  0.00  0.00    +0.092 C 
ATOM      9  C   UNL     1      32.563  -7.389 -23.822  0.00  0.00    +0.111 C 
ATOM     10  C   UNL     1      33.212  -6.391 -24.550  0.00  0.00    +0.106 C 
ATOM     11  C   UNL     1      32.411  -5.449 -25.163  0.00  0.00    +0.063 C 
ATOM     12  C   UNL     1      30.533  -6.450 -24.368  0.00  0.00    +0.251 C 
ENDROOT
BRANCH   4  16
ATOM     13  F   UNL     1      34.026 -13.756 -22.421  0.00  0.00    -0.204 F 
ATOM     14  F   UNL     1      32.851 -13.548 -27.758  0.00  0.00    -0.202 F 
ATOM     15  F   UNL     1      33.098 -15.963 -26.502  0.00  0.00    -0.202 F 
ATOM     16  C   UNL     1      33.609 -12.471 -24.373  0.00  0.00    +0.005 C 
ATOM     17  C   UNL     1      33.737 -13.698 -23.728  0.00  0.00    +0.138 C 
ATOM     18  C   UNL     1      33.311 -12.415 -25.730  0.00  0.00    +0.030 C 
ATOM     19  C   UNL     1      33.137 -13.597 -26.451  0.00  0.00    +0.167 C 
ATOM     20  C   UNL     1      33.563 -14.880 -24.448  0.00  0.00    +0.061 C 
ATOM     21  C   UNL     1      33.263 -14.829 -25.810  0.00  0.00    +0.170 C 
ENDBRANCH   4  16
BRANCH  11  22
ATOM     22  C   UNL     1      32.985  -4.375 -25.940  0.00  0.00    +0.015 C 
ATOM     23  C   UNL     1      34.015  -4.638 -26.845  0.00  0.00    +0.020 C 
ATOM     24  C   UNL     1      32.513  -3.070 -25.787  0.00  0.00    +0.001 C 
ATOM     25  C   UNL     1      34.570  -3.601 -27.594  0.00  0.00    +0.106 C 
ATOM     26  C   UNL     1      33.068  -2.032 -26.536  0.00  0.00    +0.001 C 
ATOM     27  C   UNL     1      34.096  -2.298 -27.440  0.00  0.00    +0.018 C 
BRANCH  25  28
ATOM     28  S   UNL     1      35.856  -3.932 -28.728  0.00  0.00    +0.010 S 
ATOM     29  O   UNL     1      36.851  -4.753 -28.052  0.00  0.00    -0.169 OA
ATOM     30  O   UNL     1      35.275  -4.389 -29.982  0.00  0.00    -0.169 OA
ATOM     31  C   UNL     1      36.586  -2.340 -29.045  0.00  0.00    +0.182 C 
ENDBRANCH  25  28
ENDBRANCH  11  22
BRANCH   5  32
ATOM     32  N   UNL     1      31.929 -11.616 -22.012  0.00  0.00    +0.383 N 
ATOM     33  H   UNL     1      31.401 -12.325 -22.521  0.00  0.00    -0.089 HD
ATOM     34  H   UNL     1      31.311 -11.138 -21.357  0.00  0.00    -0.089 HD
ATOM     35  H   UNL     1      32.690 -12.061 -21.499  0.00  0.00    -0.089 HD
ENDBRANCH   5  32
TORSDOF 4
ENDMDL
MODEL 5
REMARK VINA RESULT:      -9.0      2.220      3.302
REMARK  Name = 16058650
REMARK  4 active torsions:
REMARK  status: ('A' for Active; 'I' for Inactive)
REMARK    1  A    between atoms: C_4  and  C_16
REMARK    2  A    between atoms: C_5  and  N_32
REMARK    3  A    between atoms: C_11  and  C_22
REMARK    4  A    between atoms: C_25  and  S_28
REMARK                            x       y       z     vdW  Elec       q    Type
REMARK                         _______ _______ _______ _____ _____    ______ ____
ROOT
ATOM      1  N   UNL     1      33.986 -22.491 -19.201  0.00  0.00    -0.299 N 
ATOM      2  N   UNL     1      32.236 -22.506 -17.577  0.00  0.00    -0.234 NA
ATOM      3  N   UNL     1      32.700 -23.203 -15.317  0.00  0.00    -0.248 NA
ATOM      4  C   UNL     1      34.412 -20.137 -20.819  0.00  0.00    +0.008 C 
ATOM      5  C   UNL     1      32.989 -20.690 -20.529  0.00  0.00    -0.041 C 
ATOM      6  C   UNL     1      35.403 -20.567 -19.713  0.00  0.00    +0.024 C 
ATOM      7  C   UNL     1      33.031 -22.212 -20.281  0.00  0.00    +0.070 C 
ATOM      8  C   UNL     1      35.360 -22.079 -19.494  0.00  0.00    +0.092 C 
ATOM      9  C   UNL     1      33.544 -22.726 -17.903  0.00  0.00    +0.111 C 
ATOM     10  C   UNL     1      34.461 -23.187 -16.959  0.00  0.00    +0.106 C 
ATOM     11  C   UNL     1      33.982 -23.407 -15.683  0.00  0.00    +0.063 C 
ATOM     12  C   UNL     1      31.893 -22.759 -16.299  0.00  0.00    +0.251 C 
ENDROOT
BRANCH   4  16
ATOM     13  F   UNL     1      36.631 -18.755 -21.920  0.00  0.00    -0.204 F 
ATOM     14  F   UNL     1      32.321 -15.738 -20.426  0.00  0.00    -0.202 F 
ATOM     15  F   UNL     1      34.528 -14.537 -21.503  0.00  0.00    -0.202 F 
ATOM     16  C   UNL     1      34.445 -18.628 -21.004  0.00  0.00    +0.005 C 
ATOM     17  C   UNL     1      35.572 -18.022 -21.553  0.00  0.00    +0.138 C 
ATOM     18  C   UNL     1      33.347 -17.863 -20.623  0.00  0.00    +0.030 C 
ATOM     19  C   UNL     1      33.375 -16.479 -20.793  0.00  0.00    +0.167 C 
ATOM     20  C   UNL     1      35.600 -16.637 -21.723  0.00  0.00    +0.061 C 
ATOM     21  C   UNL     1      34.501 -15.866 -21.342  0.00  0.00    +0.170 C 
ENDBRANCH   4  16
BRANCH  11  22
ATOM     22  C   UNL     1      34.851 -23.884 -14.632  0.00  0.00    +0.015 C 
ATOM     23  C   UNL     1      36.030 -24.560 -14.951  0.00  0.00    +0.020 C 
ATOM     24  C   UNL     1      34.513 -23.672 -13.294  0.00  0.00    +0.001 C 
ATOM     25  C   UNL     1      36.868 -25.022 -13.936  0.00  0.00    +0.106 C 
ATOM     26  C   UNL     1      35.351 -24.132 -12.278  0.00  0.00    +0.001 C 
ATOM     27  C   UNL     1      36.529 -24.808 -12.599  0.00  0.00    +0.018 C 
BRANCH  25  28
ATOM     28  S   UNL     1      38.344 -25.865 -14.335  0.00  0.00    +0.010 S 
ATOM     29  O   UNL     1      39.053 -26.141 -13.094  0.00  0.00    -0.169 OA
ATOM     30  O   UNL     1      38.033 -26.957 -15.247  0.00  0.00    -0.169 OA
ATOM     31  C   UNL     1      39.296 -24.677 -15.255  0.00  0.00    +0.182 C 
ENDBRANCH  25  28
ENDBRANCH  11  22
BRANCH   5  32
ATOM     32  N   UNL     1      32.084 -20.400 -21.646  0.00  0.00    +0.383 N 
ATOM     33  H   UNL     1      31.372 -21.127 -21.703  0.00  0.00    -0.089 HD
ATOM     34  H   UNL     1      32.616 -20.376 -22.516  0.00  0.00    -0.089 HD
ATOM     35  H   UNL     1      31.637 -19.496 -21.495  0.00  0.00    -0.089 HD
ENDBRANCH   5  32
TORSDOF 4
ENDMDL
MODEL 6
REMARK VINA RESULT:      -8.9      1.640      2.040
REMARK  Name = 16058650
REMARK  4 active torsions:
REMARK  status: ('A' for Active; 'I' for Inactive)
REMARK    1  A    between atoms: C_4  and  C_16
REMARK    2  A    between atoms: C_5  and  N_32
REMARK    3  A    between atoms: C_11  and  C_22
REMARK    4  A    between atoms: C_25  and  S_28
REMARK                            x       y       z     vdW  Elec       q    Type
REMARK                         _______ _______ _______ _____ _____    ______ ____
ROOT
ATOM      1  N   UNL     1      35.812 -20.981 -20.442  0.00  0.00    -0.299 N 
ATOM      2  N   UNL     1      33.848 -22.206 -19.857  0.00  0.00    -0.234 NA
ATOM      3  N   UNL     1      33.666 -23.214 -17.676  0.00  0.00    -0.248 NA
ATOM      4  C   UNL     1      35.559 -18.338 -21.579  0.00  0.00    +0.008 C 
ATOM      5  C   UNL     1      34.650 -19.517 -22.026  0.00  0.00    -0.041 C 
ATOM      6  C   UNL     1      36.096 -18.571 -20.148  0.00  0.00    +0.024 C 
ATOM      7  C   UNL     1      35.370 -20.868 -21.837  0.00  0.00    +0.070 C 
ATOM      8  C   UNL     1      36.758 -19.944 -20.026  0.00  0.00    +0.092 C 
ATOM      9  C   UNL     1      35.084 -21.730 -19.523  0.00  0.00    +0.111 C 
ATOM     10  C   UNL     1      35.644 -21.978 -18.270  0.00  0.00    +0.106 C 
ATOM     11  C   UNL     1      34.890 -22.725 -17.388  0.00  0.00    +0.063 C 
ATOM     12  C   UNL     1      33.212 -22.922 -18.909  0.00  0.00    +0.251 C 
ENDROOT
BRANCH   4  16
ATOM     13  F   UNL     1      35.892 -16.587 -23.786  0.00  0.00    -0.204 F 
ATOM     14  F   UNL     1      32.620 -14.892 -19.744  0.00  0.00    -0.202 F 
ATOM     15  F   UNL     1      33.030 -13.306 -21.932  0.00  0.00    -0.202 F 
ATOM     16  C   UNL     1      34.878 -16.982 -21.677  0.00  0.00    +0.005 C 
ATOM     17  C   UNL     1      35.091 -16.178 -22.793  0.00  0.00    +0.138 C 
ATOM     18  C   UNL     1      34.047 -16.554 -20.646  0.00  0.00    +0.030 C 
ATOM     19  C   UNL     1      33.421 -15.310 -20.734  0.00  0.00    +0.167 C 
ATOM     20  C   UNL     1      34.464 -14.935 -22.880  0.00  0.00    +0.061 C 
ATOM     21  C   UNL     1      33.629 -14.501 -21.850  0.00  0.00    +0.170 C 
ENDBRANCH   4  16
BRANCH  11  22
ATOM     22  C   UNL     1      35.379 -23.037 -16.066  0.00  0.00    +0.015 C 
ATOM     23  C   UNL     1      36.665 -23.556 -15.899  0.00  0.00    +0.020 C 
ATOM     24  C   UNL     1      34.568 -22.822 -14.950  0.00  0.00    +0.001 C 
ATOM     25  C   UNL     1      37.136 -23.859 -14.622  0.00  0.00    +0.106 C 
ATOM     26  C   UNL     1      35.039 -23.124 -13.672  0.00  0.00    +0.001 C 
ATOM     27  C   UNL     1      36.324 -23.643 -13.508  0.00  0.00    +0.018 C 
BRANCH  25  28
ATOM     28  S   UNL     1      38.745 -24.506 -14.414  0.00  0.00    +0.010 S 
ATOM     29  O   UNL     1      39.573 -24.008 -15.504  0.00  0.00    -0.169 OA
ATOM     30  O   UNL     1      39.164 -24.297 -13.035  0.00  0.00    -0.169 OA
ATOM     31  C   UNL     1      38.547 -26.260 -14.636  0.00  0.00    +0.182 C 
ENDBRANCH  25  28
ENDBRANCH  11  22
BRANCH   5  32
ATOM     32  N   UNL     1      34.256 -19.363 -23.429  0.00  0.00    +0.383 N 
ATOM     33  H   UNL     1      34.469 -18.415 -23.739  0.00  0.00    -0.089 HD
ATOM     34  H   UNL     1      33.254 -19.533 -23.522  0.00  0.00    -0.089 HD
ATOM     35  H   UNL     1      34.769 -20.032 -24.002  0.00  0.00    -0.089 HD
ENDBRANCH   5  32
TORSDOF 4
ENDMDL
MODEL 7
REMARK VINA RESULT:      -7.9     10.588     14.503
REMARK  Name = 16058650
REMARK  4 active torsions:
REMARK  status: ('A' for Active; 'I' for Inactive)
REMARK    1  A    between atoms: C_4  and  C_16
REMARK    2  A    between atoms: C_5  and  N_32
REMARK    3  A    between atoms: C_11  and  C_22
REMARK    4  A    between atoms: C_25  and  S_28
REMARK                            x       y       z     vdW  Elec       q    Type
REMARK                         _______ _______ _______ _____ _____    ______ ____
ROOT
ATOM      1  N   UNL     1      30.875  -5.956 -23.393  0.00  0.00    -0.299 N 
ATOM      2  N   UNL     1      32.175  -6.090 -21.395  0.00  0.00    -0.234 NA
ATOM      3  N   UNL     1      32.753  -8.243 -20.480  0.00  0.00    -0.248 NA
ATOM      4  C   UNL     1      31.765  -4.273 -25.565  0.00  0.00    +0.008 C 
ATOM      5  C   UNL     1      31.821  -3.804 -24.084  0.00  0.00    -0.041 C 
ATOM      6  C   UNL     1      31.794  -5.816 -25.653  0.00  0.00    +0.024 C 
ATOM      7  C   UNL     1      30.731  -4.502 -23.245  0.00  0.00    +0.070 C 
ATOM      8  C   UNL     1      30.716  -6.438 -24.767  0.00  0.00    +0.092 C 
ATOM      9  C   UNL     1      31.508  -6.712 -22.412  0.00  0.00    +0.111 C 
ATOM     10  C   UNL     1      31.442  -8.103 -22.494  0.00  0.00    +0.106 C 
ATOM     11  C   UNL     1      32.082  -8.816 -21.501  0.00  0.00    +0.063 C 
ATOM     12  C   UNL     1      32.759  -6.897 -20.488  0.00  0.00    +0.251 C 
ENDROOT
BRANCH   4  16
ATOM     13  F   UNL     1      31.496  -1.788 -26.908  0.00  0.00    -0.204 F 
ATOM     14  F   UNL     1      36.233  -4.448 -27.535  0.00  0.00    -0.202 F 
ATOM     15  F   UNL     1      35.838  -2.043 -28.771  0.00  0.00    -0.202 F 
ATOM     16  C   UNL     1      32.861  -3.670 -26.429  0.00  0.00    +0.005 C 
ATOM     17  C   UNL     1      32.654  -2.445 -27.057  0.00  0.00    +0.138 C 
ATOM     18  C   UNL     1      34.065  -4.349 -26.587  0.00  0.00    +0.030 C 
ATOM     19  C   UNL     1      35.072  -3.798 -27.378  0.00  0.00    +0.167 C 
ATOM     20  C   UNL     1      33.662  -1.893 -27.849  0.00  0.00    +0.061 C 
ATOM     21  C   UNL     1      34.871  -2.571 -28.009  0.00  0.00    +0.170 C 
ENDBRANCH   4  16
BRANCH  11  22
ATOM     22  C   UNL     1      32.074 -10.260 -21.495  0.00  0.00    +0.015 C 
ATOM     23  C   UNL     1      32.620 -10.968 -22.568  0.00  0.00    +0.020 C 
ATOM     24  C   UNL     1      31.519 -10.953 -20.418  0.00  0.00    +0.001 C 
ATOM     25  C   UNL     1      32.610 -12.363 -22.563  0.00  0.00    +0.106 C 
ATOM     26  C   UNL     1      31.509 -12.348 -20.412  0.00  0.00    +0.001 C 
ATOM     27  C   UNL     1      32.055 -13.053 -21.485  0.00  0.00    +0.018 C 
BRANCH  25  28
ATOM     28  S   UNL     1      33.295 -13.247 -23.905  0.00  0.00    +0.010 S 
ATOM     29  O   UNL     1      34.424 -14.018 -23.404  0.00  0.00    -0.169 OA
ATOM     30  O   UNL     1      32.222 -13.921 -24.623  0.00  0.00    -0.169 OA
ATOM     31  C   UNL     1      33.931 -11.986 -24.986  0.00  0.00    +0.182 C 
ENDBRANCH  25  28
ENDBRANCH  11  22
BRANCH   5  32
ATOM     32  N   UNL     1      31.652  -2.350 -23.995  0.00  0.00    +0.383 N 
ATOM     33  H   UNL     1      30.786  -2.139 -23.500  0.00  0.00    -0.089 HD
ATOM     34  H   UNL     1      31.613  -1.954 -24.934  0.00  0.00    -0.089 HD
ATOM     35  H   UNL     1      32.441  -1.947 -23.488  0.00  0.00    -0.089 HD
ENDBRANCH   5  32
TORSDOF 4
ENDMDL
MODEL 8
REMARK VINA RESULT:      -7.8      1.685      2.211
REMARK  Name = 16058650
REMARK  4 active torsions:
REMARK  status: ('A' for Active; 'I' for Inactive)
REMARK    1  A    between atoms: C_4  and  C_16
REMARK    2  A    between atoms: C_5  and  N_32
REMARK    3  A    between atoms: C_11  and  C_22
REMARK    4  A    between atoms: C_25  and  S_28
REMARK                            x       y       z     vdW  Elec       q    Type
REMARK                         _______ _______ _______ _____ _____    ______ ____
ROOT
ATOM      1  N   UNL     1      34.481 -22.042 -19.689  0.00  0.00    -0.299 N 
ATOM      2  N   UNL     1      33.064 -22.261 -17.780  0.00  0.00    -0.234 NA
ATOM      3  N   UNL     1      33.987 -22.988 -15.676  0.00  0.00    -0.248 NA
ATOM      4  C   UNL     1      34.415 -19.608 -21.243  0.00  0.00    +0.008 C 
ATOM      5  C   UNL     1      33.117 -20.292 -20.729  0.00  0.00    -0.041 C 
ATOM      6  C   UNL     1      35.623 -19.986 -20.354  0.00  0.00    +0.024 C 
ATOM      7  C   UNL     1      33.325 -21.812 -20.565  0.00  0.00    +0.070 C 
ATOM      8  C   UNL     1      35.741 -21.503 -20.204  0.00  0.00    +0.092 C 
ATOM      9  C   UNL     1      34.304 -22.357 -18.345  0.00  0.00    +0.111 C 
ATOM     10  C   UNL     1      35.412 -22.766 -17.604  0.00  0.00    +0.106 C 
ATOM     11  C   UNL     1      35.193 -23.068 -16.275  0.00  0.00    +0.063 C 
ATOM     12  C   UNL     1      32.981 -22.584 -16.475  0.00  0.00    +0.251 C 
ENDROOT
BRANCH   4  16
ATOM     13  F   UNL     1      36.022 -18.049 -22.985  0.00  0.00    -0.204 F 
ATOM     14  F   UNL     1      32.345 -15.377 -19.945  0.00  0.00    -0.202 F 
ATOM     15  F   UNL     1      33.959 -14.000 -21.668  0.00  0.00    -0.202 F 
ATOM     16  C   UNL     1      34.294 -18.097 -21.359  0.00  0.00    +0.005 C 
ATOM     17  C   UNL     1      35.119 -17.401 -22.238  0.00  0.00    +0.138 C 
ATOM     18  C   UNL     1      33.357 -17.420 -20.584  0.00  0.00    +0.030 C 
ATOM     19  C   UNL     1      33.244 -16.034 -20.690  0.00  0.00    +0.167 C 
ATOM     20  C   UNL     1      35.005 -16.014 -22.343  0.00  0.00    +0.061 C 
ATOM     21  C   UNL     1      34.067 -15.331 -21.569  0.00  0.00    +0.170 C 
ENDBRANCH   4  16
BRANCH  11  22
ATOM     22  C   UNL     1      36.274 -23.501 -15.421  0.00  0.00    +0.015 C 
ATOM     23  C   UNL     1      36.007 -23.954 -14.127  0.00  0.00    +0.020 C 
ATOM     24  C   UNL     1      37.590 -23.466 -15.885  0.00  0.00    +0.001 C 
ATOM     25  C   UNL     1      37.051 -24.370 -13.302  0.00  0.00    +0.106 C 
ATOM     26  C   UNL     1      38.635 -23.883 -15.060  0.00  0.00    +0.001 C 
ATOM     27  C   UNL     1      38.365 -24.335 -13.768  0.00  0.00    +0.018 C 
BRANCH  25  28
ATOM     28  S   UNL     1      36.715 -24.939 -11.685  0.00  0.00    +0.010 S 
ATOM     29  O   UNL     1      36.915 -26.381 -11.666  0.00  0.00    -0.169 OA
ATOM     30  O   UNL     1      37.425 -24.098 -10.731  0.00  0.00    -0.169 OA
ATOM     31  C   UNL     1      34.978 -24.625 -11.459  0.00  0.00    +0.182 C 
ENDBRANCH  25  28
ENDBRANCH  11  22
BRANCH   5  32
ATOM     32  N   UNL     1      32.004 -20.046 -21.651  0.00  0.00    +0.383 N 
ATOM     33  H   UNL     1      31.950 -20.806 -22.328  0.00  0.00    -0.089 HD
ATOM     34  H   UNL     1      32.156 -19.164 -22.140  0.00  0.00    -0.089 HD
ATOM     35  H   UNL     1      31.131 -19.996 -21.124  0.00  0.00    -0.089 HD
ENDBRANCH   5  32
TORSDOF 4
ENDMDL
MODEL 9
REMARK VINA RESULT:      -7.3      5.963      9.762
REMARK  Name = 16058650
REMARK  4 active torsions:
REMARK  status: ('A' for Active; 'I' for Inactive)
REMARK    1  A    between atoms: C_4  and  C_16
REMARK    2  A    between atoms: C_5  and  N_32
REMARK    3  A    between atoms: C_11  and  C_22
REMARK    4  A    between atoms: C_25  and  S_28
REMARK                            x       y       z     vdW  Elec       q    Type
REMARK                         _______ _______ _______ _____ _____    ______ ____
ROOT
ATOM      1  N   UNL     1      33.936 -21.897 -19.906  0.00  0.00    -0.299 N 
ATOM      2  N   UNL     1      36.077 -20.904 -19.544  0.00  0.00    -0.234 NA
ATOM      3  N   UNL     1      36.537 -18.697 -20.392  0.00  0.00    -0.248 NA
ATOM      4  C   UNL     1      32.504 -23.052 -17.680  0.00  0.00    +0.008 C 
ATOM      5  C   UNL     1      34.029 -23.276 -17.882  0.00  0.00    -0.041 C 
ATOM      6  C   UNL     1      32.045 -21.745 -18.365  0.00  0.00    +0.024 C 
ATOM      7  C   UNL     1      34.403 -23.185 -19.376  0.00  0.00    +0.070 C 
ATOM      8  C   UNL     1      32.486 -21.707 -19.828  0.00  0.00    +0.092 C 
ATOM      9  C   UNL     1      34.816 -20.831 -20.063  0.00  0.00    +0.111 C 
ATOM     10  C   UNL     1      34.379 -19.702 -20.755  0.00  0.00    +0.106 C 
ATOM     11  C   UNL     1      35.283 -18.667 -20.889  0.00  0.00    +0.063 C 
ATOM     12  C   UNL     1      36.863 -19.829 -19.741  0.00  0.00    +0.251 C 
ENDROOT
BRANCH   4  16
ATOM     13  F   UNL     1      29.829 -22.641 -16.829  0.00  0.00    -0.204 F 
ATOM     14  F   UNL     1      33.568 -23.499 -12.931  0.00  0.00    -0.202 F 
ATOM     15  F   UNL     1      30.951 -23.090 -12.255  0.00  0.00    -0.202 F 
ATOM     16  C   UNL     1      32.083 -23.062 -16.218  0.00  0.00    +0.005 C 
ATOM     17  C   UNL     1      30.750 -22.853 -15.879  0.00  0.00    +0.138 C 
ATOM     18  C   UNL     1      33.037 -23.281 -15.229  0.00  0.00    +0.030 C 
ATOM     19  C   UNL     1      32.653 -23.291 -13.888  0.00  0.00    +0.167 C 
ATOM     20  C   UNL     1      30.366 -22.863 -14.538  0.00  0.00    +0.061 C 
ATOM     21  C   UNL     1      31.319 -23.082 -13.542  0.00  0.00    +0.170 C 
ENDBRANCH   4  16
BRANCH  11  22
ATOM     22  C   UNL     1      34.929 -17.454 -21.588  0.00  0.00    +0.015 C 
ATOM     23  C   UNL     1      34.730 -17.474 -22.970  0.00  0.00    +0.020 C 
ATOM     24  C   UNL     1      34.787 -16.256 -20.885  0.00  0.00    +0.001 C 
ATOM     25  C   UNL     1      34.391 -16.302 -23.645  0.00  0.00    +0.106 C 
ATOM     26  C   UNL     1      34.447 -15.083 -21.560  0.00  0.00    +0.001 C 
ATOM     27  C   UNL     1      34.248 -15.106 -22.940  0.00  0.00    +0.018 C 
BRANCH  25  28
ATOM     28  S   UNL     1      34.140 -16.329 -25.373  0.00  0.00    +0.010 S 
ATOM     29  O   UNL     1      35.433 -16.144 -26.017  0.00  0.00    -0.169 OA
ATOM     30  O   UNL     1      33.322 -17.484 -25.714  0.00  0.00    -0.169 OA
ATOM     31  C   UNL     1      33.156 -14.883 -25.699  0.00  0.00    +0.182 C 
ENDBRANCH  25  28
ENDBRANCH  11  22
BRANCH   5  32
ATOM     32  N   UNL     1      34.435 -24.582 -17.354  0.00  0.00    +0.383 N 
ATOM     33  H   UNL     1      35.245 -24.920 -17.872  0.00  0.00    -0.089 HD
ATOM     34  H   UNL     1      33.665 -25.244 -17.455  0.00  0.00    -0.089 HD
ATOM     35  H   UNL     1      34.676 -24.489 -16.367  0.00  0.00    -0.089 HD
ENDBRANCH   5  32
TORSDOF 4
ENDMDL
