MODEL 1
REMARK VINA RESULT:      -8.8      0.000      0.000
REMARK  Name = 17753820
REMARK  13 active torsions:
REMARK  status: ('A' for Active; 'I' for Inactive)
REMARK    1  A    between atoms: C_1  and  C_3
REMARK    2  A    between atoms: C_1  and  C_16
REMARK    3  A    between atoms: C_3  and  C_4
REMARK    4  A    between atoms: C_4  and  C_6
REMARK    5  A    between atoms: C_6  and  O_7
REMARK    6  A    between atoms: C_6  and  C_9
REMARK    7  A    between atoms: C_9  and  C_10
REMARK    8  A    between atoms: C_16  and  C_17
REMARK    9  A    between atoms: C_17  and  C_18
REMARK   10  A    between atoms: C_18  and  N_19
REMARK   11  A    between atoms: C_18  and  C_23
REMARK   12  A    between atoms: C_23  and  C_26
REMARK   13  A    between atoms: C_26  and  O_27
REMARK                            x       y       z     vdW  Elec       q    Type
REMARK                         _______ _______ _______ _____ _____    ______ ____
ROOT
ATOM      1  C   UNL     1      33.288 -13.813 -23.721  0.00  0.00    +0.000 C 
ATOM      2  C   UNL     1      33.808 -12.684 -24.620  0.00  0.00    +0.000 C 
ENDROOT
BRANCH   1   3
ATOM      3  C   UNL     1      34.444 -14.600 -23.059  0.00  0.00    +0.002 C 
BRANCH   3   4
ATOM      4  C   UNL     1      34.028 -15.737 -22.095  0.00  0.00    +0.028 C 
ATOM      5  C   UNL     1      34.515 -15.482 -20.665  0.00  0.00    +0.003 C 
BRANCH   4   6
ATOM      6  C   UNL     1      34.492 -17.128 -22.605  0.00  0.00    +0.120 C 
BRANCH   6   7
ATOM      7  O   UNL     1      35.087 -16.932 -23.892  0.00  0.00    -0.353 OA
ATOM      8  C   UNL     1      34.553 -17.834 -24.845  0.00  0.00    +0.174 C 
ENDBRANCH   6   7
BRANCH   6   9
ATOM      9  C   UNL     1      35.500 -17.843 -21.689  0.00  0.00    +0.056 C 
BRANCH   9  10
ATOM     10  C   UNL     1      34.906 -19.063 -21.019  0.00  0.00    -0.020 C 
ATOM     11  C   UNL     1      33.521 -19.201 -20.926  0.00  0.00    -0.004 C 
ATOM     12  C   UNL     1      35.742 -20.048 -20.495  0.00  0.00    -0.004 C 
ATOM     13  C   UNL     1      32.973 -20.324 -20.308  0.00  0.00    -0.000 C 
ATOM     14  C   UNL     1      35.193 -21.172 -19.877  0.00  0.00    -0.000 C 
ATOM     15  C   UNL     1      33.808 -21.310 -19.784  0.00  0.00    -0.000 C 
ENDBRANCH   9  10
ENDBRANCH   6   9
ENDBRANCH   4   6
ENDBRANCH   3   4
ENDBRANCH   1   3
BRANCH   1  16
ATOM     16  C   UNL     1      32.332 -13.205 -22.664  0.00  0.00    -0.002 C 
BRANCH  16  17
ATOM     17  C   UNL     1      32.305 -11.669 -22.668  0.00  0.00    -0.021 C 
BRANCH  17  18
ATOM     18  C   UNL     1      31.757 -11.016 -21.376  0.00  0.00    -0.055 C 
BRANCH  18  19
ATOM     19  N   UNL     1      30.391 -11.501 -21.137  0.00  0.00    +0.382 N 
ATOM     20  H   UNL     1      29.991 -11.007 -20.339  0.00  0.00    -0.089 HD
ATOM     21  H   UNL     1      30.415 -12.501 -20.940  0.00  0.00    -0.089 HD
ATOM     22  H   UNL     1      29.821 -11.330 -21.965  0.00  0.00    -0.089 HD
ENDBRANCH  18  19
BRANCH  18  23
ATOM     23  C   UNL     1      31.798  -9.466 -21.384  0.00  0.00    +0.079 C 
ATOM     24  C   UNL     1      32.741  -8.894 -22.446  0.00  0.00    +0.009 C 
BRANCH  23  26
ATOM     25  O   UNL     1      32.666  -7.792 -19.846  0.00  0.00    -0.250 OA
ATOM     26  C   UNL     1      32.267  -8.935 -20.038  0.00  0.00    +0.311 C 
BRANCH  26  27
ATOM     27  O   UNL     1      32.226  -9.874 -19.059  0.00  0.00    -0.480 OA
ATOM     28  H   UNL     1      31.448  -9.983 -18.548  0.00  0.00    +0.295 HD
ENDBRANCH  26  27
ENDBRANCH  23  26
ENDBRANCH  18  23
ENDBRANCH  17  18
ENDBRANCH  16  17
ENDBRANCH   1  16
TORSDOF 13
ENDMDL
MODEL 2
REMARK VINA RESULT:      -8.8      3.058      8.633
REMARK  Name = 17753820
REMARK  13 active torsions:
REMARK  status: ('A' for Active; 'I' for Inactive)
REMARK    1  A    between atoms: C_1  and  C_3
REMARK    2  A    between atoms: C_1  and  C_16
REMARK    3  A    between atoms: C_3  and  C_4
REMARK    4  A    between atoms: C_4  and  C_6
REMARK    5  A    between atoms: C_6  and  O_7
REMARK    6  A    between atoms: C_6  and  C_9
REMARK    7  A    between atoms: C_9  and  C_10
REMARK    8  A    between atoms: C_16  and  C_17
REMARK    9  A    between atoms: C_17  and  C_18
REMARK   10  A    between atoms: C_18  and  N_19
REMARK   11  A    between atoms: C_18  and  C_23
REMARK   12  A    between atoms: C_23  and  C_26
REMARK   13  A    between atoms: C_26  and  O_27
REMARK                            x       y       z     vdW  Elec       q    Type
REMARK                         _______ _______ _______ _____ _____    ______ ____
ROOT
ATOM      1  C   UNL     1      34.972 -17.549 -23.430  0.00  0.00    +0.000 C 
ATOM      2  C   UNL     1      34.591 -17.537 -24.916  0.00  0.00    +0.000 C 
ENDROOT
BRANCH   1   3
ATOM      3  C   UNL     1      34.018 -16.674 -22.583  0.00  0.00    +0.002 C 
BRANCH   3   4
ATOM      4  C   UNL     1      34.621 -15.368 -22.010  0.00  0.00    +0.028 C 
ATOM      5  C   UNL     1      34.539 -15.324 -20.480  0.00  0.00    +0.003 C 
BRANCH   4   6
ATOM      6  C   UNL     1      33.977 -14.105 -22.642  0.00  0.00    +0.120 C 
BRANCH   6   7
ATOM      7  O   UNL     1      34.234 -14.158 -24.049  0.00  0.00    -0.353 OA
ATOM      8  C   UNL     1      33.032 -14.049 -24.793  0.00  0.00    +0.174 C 
ENDBRANCH   6   7
BRANCH   6   9
ATOM      9  C   UNL     1      32.462 -13.974 -22.412  0.00  0.00    +0.056 C 
BRANCH   9  10
ATOM     10  C   UNL     1      32.097 -12.697 -21.688  0.00  0.00    -0.020 C 
ATOM     11  C   UNL     1      31.909 -11.518 -22.408  0.00  0.00    -0.004 C 
ATOM     12  C   UNL     1      31.949 -12.699 -20.302  0.00  0.00    -0.004 C 
ATOM     13  C   UNL     1      31.572 -10.340 -21.741  0.00  0.00    -0.000 C 
ATOM     14  C   UNL     1      31.613 -11.521 -19.635  0.00  0.00    -0.000 C 
ATOM     15  C   UNL     1      31.424 -10.341 -20.355  0.00  0.00    -0.000 C 
ENDBRANCH   9  10
ENDBRANCH   6   9
ENDBRANCH   4   6
ENDBRANCH   3   4
ENDBRANCH   1   3
BRANCH   1  16
ATOM     16  C   UNL     1      34.990 -19.017 -22.934  0.00  0.00    -0.002 C 
BRANCH  16  17
ATOM     17  C   UNL     1      34.947 -19.152 -21.405  0.00  0.00    -0.021 C 
BRANCH  17  18
ATOM     18  C   UNL     1      34.036 -20.284 -20.869  0.00  0.00    -0.055 C 
BRANCH  18  19
ATOM     19  N   UNL     1      32.709 -19.730 -20.570  0.00  0.00    +0.382 N 
ATOM     20  H   UNL     1      32.402 -19.148 -21.348  0.00  0.00    -0.089 HD
ATOM     21  H   UNL     1      32.760 -19.166 -19.722  0.00  0.00    -0.089 HD
ATOM     22  H   UNL     1      32.046 -20.493 -20.432  0.00  0.00    -0.089 HD
ENDBRANCH  18  19
BRANCH  18  23
ATOM     23  C   UNL     1      34.613 -21.030 -19.638  0.00  0.00    +0.079 C 
ATOM     24  C   UNL     1      36.066 -21.473 -19.827  0.00  0.00    +0.009 C 
BRANCH  23  26
ATOM     25  O   UNL     1      34.149 -23.419 -19.632  0.00  0.00    -0.250 OA
ATOM     26  C   UNL     1      33.801 -22.281 -19.339  0.00  0.00    +0.311 C 
BRANCH  26  27
ATOM     27  O   UNL     1      32.620 -22.008 -18.729  0.00  0.00    -0.480 OA
ATOM     28  H   UNL     1      32.266 -22.608 -18.103  0.00  0.00    +0.295 HD
ENDBRANCH  26  27
ENDBRANCH  23  26
ENDBRANCH  18  23
ENDBRANCH  17  18
ENDBRANCH  16  17
ENDBRANCH   1  16
TORSDOF 13
ENDMDL
MODEL 3
REMARK VINA RESULT:      -8.5      3.207      8.964
REMARK  Name = 17753820
REMARK  13 active torsions:
REMARK  status: ('A' for Active; 'I' for Inactive)
REMARK    1  A    between atoms: C_1  and  C_3
REMARK    2  A    between atoms: C_1  and  C_16
REMARK    3  A    between atoms: C_3  and  C_4
REMARK    4  A    between atoms: C_4  and  C_6
REMARK    5  A    between atoms: C_6  and  O_7
REMARK    6  A    between atoms: C_6  and  C_9
REMARK    7  A    between atoms: C_9  and  C_10
REMARK    8  A    between atoms: C_16  and  C_17
REMARK    9  A    between atoms: C_17  and  C_18
REMARK   10  A    between atoms: C_18  and  N_19
REMARK   11  A    between atoms: C_18  and  C_23
REMARK   12  A    between atoms: C_23  and  C_26
REMARK   13  A    between atoms: C_26  and  O_27
REMARK                            x       y       z     vdW  Elec       q    Type
REMARK                         _______ _______ _______ _____ _____    ______ ____
ROOT
ATOM      1  C   UNL     1      35.194 -18.221 -23.384  0.00  0.00    +0.000 C 
ATOM      2  C   UNL     1      34.659 -19.122 -24.505  0.00  0.00    +0.000 C 
ENDROOT
BRANCH   1   3
ATOM      3  C   UNL     1      35.288 -16.743 -23.830  0.00  0.00    +0.002 C 
BRANCH   3   4
ATOM      4  C   UNL     1      33.943 -15.998 -24.008  0.00  0.00    +0.028 C 
ATOM      5  C   UNL     1      33.648 -15.694 -25.481  0.00  0.00    +0.003 C 
BRANCH   4   6
ATOM      6  C   UNL     1      33.873 -14.709 -23.146  0.00  0.00    +0.120 C 
BRANCH   6   7
ATOM      7  O   UNL     1      34.954 -14.768 -22.208  0.00  0.00    -0.353 OA
ATOM      8  C   UNL     1      34.473 -14.904 -20.882  0.00  0.00    +0.174 C 
ENDBRANCH   6   7
BRANCH   6   9
ATOM      9  C   UNL     1      33.970 -13.398 -23.943  0.00  0.00    +0.056 C 
BRANCH   9  10
ATOM     10  C   UNL     1      33.124 -12.296 -23.345  0.00  0.00    -0.020 C 
ATOM     11  C   UNL     1      33.339 -10.971 -23.723  0.00  0.00    -0.004 C 
ATOM     12  C   UNL     1      32.130 -12.605 -22.417  0.00  0.00    -0.004 C 
ATOM     13  C   UNL     1      32.559  -9.954 -23.171  0.00  0.00    -0.000 C 
ATOM     14  C   UNL     1      31.351 -11.588 -21.866  0.00  0.00    -0.000 C 
ATOM     15  C   UNL     1      31.564 -10.262 -22.244  0.00  0.00    -0.000 C 
ENDBRANCH   9  10
ENDBRANCH   6   9
ENDBRANCH   4   6
ENDBRANCH   3   4
ENDBRANCH   1   3
BRANCH   1  16
ATOM     16  C   UNL     1      34.286 -18.385 -22.140  0.00  0.00    -0.002 C 
BRANCH  16  17
ATOM     17  C   UNL     1      34.891 -19.281 -21.049  0.00  0.00    -0.021 C 
BRANCH  17  18
ATOM     18  C   UNL     1      34.020 -20.490 -20.630  0.00  0.00    -0.055 C 
BRANCH  18  19
ATOM     19  N   UNL     1      32.643 -20.032 -20.404  0.00  0.00    +0.382 N 
ATOM     20  H   UNL     1      32.484 -19.168 -20.920  0.00  0.00    -0.089 HD
ATOM     21  H   UNL     1      32.500 -19.865 -19.408  0.00  0.00    -0.089 HD
ATOM     22  H   UNL     1      31.990 -20.747 -20.726  0.00  0.00    -0.089 HD
ENDBRANCH  18  19
BRANCH  18  23
ATOM     23  C   UNL     1      34.556 -21.258 -19.394  0.00  0.00    +0.079 C 
ATOM     24  C   UNL     1      36.030 -21.651 -19.522  0.00  0.00    +0.009 C 
BRANCH  23  26
ATOM     25  O   UNL     1      34.104 -23.640 -19.605  0.00  0.00    -0.250 OA
ATOM     26  C   UNL     1      33.769 -22.542 -19.177  0.00  0.00    +0.311 C 
BRANCH  26  27
ATOM     27  O   UNL     1      32.626 -22.344 -18.473  0.00  0.00    -0.480 OA
ATOM     28  H   UNL     1      32.106 -21.580 -18.629  0.00  0.00    +0.295 HD
ENDBRANCH  26  27
ENDBRANCH  23  26
ENDBRANCH  18  23
ENDBRANCH  17  18
ENDBRANCH  16  17
ENDBRANCH   1  16
TORSDOF 13
ENDMDL
MODEL 4
REMARK VINA RESULT:      -8.5      4.792     10.040
REMARK  Name = 17753820
REMARK  13 active torsions:
REMARK  status: ('A' for Active; 'I' for Inactive)
REMARK    1  A    between atoms: C_1  and  C_3
REMARK    2  A    between atoms: C_1  and  C_16
REMARK    3  A    between atoms: C_3  and  C_4
REMARK    4  A    between atoms: C_4  and  C_6
REMARK    5  A    between atoms: C_6  and  O_7
REMARK    6  A    between atoms: C_6  and  C_9
REMARK    7  A    between atoms: C_9  and  C_10
REMARK    8  A    between atoms: C_16  and  C_17
REMARK    9  A    between atoms: C_17  and  C_18
REMARK   10  A    between atoms: C_18  and  N_19
REMARK   11  A    between atoms: C_18  and  C_23
REMARK   12  A    between atoms: C_23  and  C_26
REMARK   13  A    between atoms: C_26  and  O_27
REMARK                            x       y       z     vdW  Elec       q    Type
REMARK                         _______ _______ _______ _____ _____    ______ ____
ROOT
ATOM      1  C   UNL     1      35.088 -20.832 -20.385  0.00  0.00    +0.000 C 
ATOM      2  C   UNL     1      33.644 -20.911 -19.873  0.00  0.00    +0.000 C 
ENDROOT
BRANCH   1   3
ATOM      3  C   UNL     1      35.447 -19.411 -20.877  0.00  0.00    +0.002 C 
BRANCH   3   4
ATOM      4  C   UNL     1      34.503 -18.800 -21.941  0.00  0.00    +0.028 C 
ATOM      5  C   UNL     1      34.810 -19.323 -23.348  0.00  0.00    +0.003 C 
BRANCH   4   6
ATOM      6  C   UNL     1      34.515 -17.248 -21.905  0.00  0.00    +0.120 C 
BRANCH   6   7
ATOM      7  O   UNL     1      35.074 -16.857 -20.646  0.00  0.00    -0.353 OA
ATOM      8  C   UNL     1      34.565 -15.601 -20.228  0.00  0.00    +0.174 C 
ENDBRANCH   6   7
BRANCH   6   9
ATOM      9  C   UNL     1      35.318 -16.586 -23.038  0.00  0.00    +0.056 C 
BRANCH   9  10
ATOM     10  C   UNL     1      34.447 -15.754 -23.952  0.00  0.00    -0.020 C 
ATOM     11  C   UNL     1      34.051 -16.263 -25.189  0.00  0.00    -0.004 C 
ATOM     12  C   UNL     1      34.039 -14.480 -23.559  0.00  0.00    -0.004 C 
ATOM     13  C   UNL     1      33.248 -15.496 -26.033  0.00  0.00    -0.000 C 
ATOM     14  C   UNL     1      33.236 -13.714 -24.403  0.00  0.00    -0.000 C 
ATOM     15  C   UNL     1      32.839 -14.222 -25.640  0.00  0.00    -0.000 C 
ENDBRANCH   9  10
ENDBRANCH   6   9
ENDBRANCH   4   6
ENDBRANCH   3   4
ENDBRANCH   1   3
BRANCH   1  16
ATOM     16  C   UNL     1      36.041 -21.303 -19.257  0.00  0.00    -0.002 C 
BRANCH  16  17
ATOM     17  C   UNL     1      35.331 -22.072 -18.132  0.00  0.00    -0.021 C 
BRANCH  17  18
ATOM     18  C   UNL     1      36.011 -21.984 -16.744  0.00  0.00    -0.055 C 
BRANCH  18  19
ATOM     19  N   UNL     1      37.187 -21.110 -16.841  0.00  0.00    +0.382 N 
ATOM     20  H   UNL     1      38.033 -21.664 -16.712  0.00  0.00    -0.089 HD
ATOM     21  H   UNL     1      37.137 -20.392 -16.118  0.00  0.00    -0.089 HD
ATOM     22  H   UNL     1      37.206 -20.668 -17.760  0.00  0.00    -0.089 HD
ENDBRANCH  18  19
BRANCH  18  23
ATOM     23  C   UNL     1      36.394 -23.360 -16.140  0.00  0.00    +0.079 C 
ATOM     24  C   UNL     1      35.269 -23.991 -15.315  0.00  0.00    +0.009 C 
BRANCH  23  26
ATOM     25  O   UNL     1      37.549 -22.802 -14.071  0.00  0.00    -0.250 OA
ATOM     26  C   UNL     1      37.599 -23.225 -15.220  0.00  0.00    +0.311 C 
BRANCH  26  27
ATOM     27  O   UNL     1      38.759 -23.601 -15.816  0.00  0.00    -0.480 OA
ATOM     28  H   UNL     1      39.212 -24.365 -15.519  0.00  0.00    +0.295 HD
ENDBRANCH  26  27
ENDBRANCH  23  26
ENDBRANCH  18  23
ENDBRANCH  17  18
ENDBRANCH  16  17
ENDBRANCH   1  16
TORSDOF 13
ENDMDL
MODEL 5
REMARK VINA RESULT:      -8.5      2.138      2.359
REMARK  Name = 17753820
REMARK  13 active torsions:
REMARK  status: ('A' for Active; 'I' for Inactive)
REMARK    1  A    between atoms: C_1  and  C_3
REMARK    2  A    between atoms: C_1  and  C_16
REMARK    3  A    between atoms: C_3  and  C_4
REMARK    4  A    between atoms: C_4  and  C_6
REMARK    5  A    between atoms: C_6  and  O_7
REMARK    6  A    between atoms: C_6  and  C_9
REMARK    7  A    between atoms: C_9  and  C_10
REMARK    8  A    between atoms: C_16  and  C_17
REMARK    9  A    between atoms: C_17  and  C_18
REMARK   10  A    between atoms: C_18  and  N_19
REMARK   11  A    between atoms: C_18  and  C_23
REMARK   12  A    between atoms: C_23  and  C_26
REMARK   13  A    between atoms: C_26  and  O_27
REMARK                            x       y       z     vdW  Elec       q    Type
REMARK                         _______ _______ _______ _____ _____    ______ ____
ROOT
ATOM      1  C   UNL     1      33.503 -14.198 -24.137  0.00  0.00    +0.000 C 
ATOM      2  C   UNL     1      33.106 -14.941 -25.419  0.00  0.00    +0.000 C 
ENDROOT
BRANCH   1   3
ATOM      3  C   UNL     1      34.596 -14.956 -23.347  0.00  0.00    +0.002 C 
BRANCH   3   4
ATOM      4  C   UNL     1      34.092 -15.970 -22.291  0.00  0.00    +0.028 C 
ATOM      5  C   UNL     1      34.589 -15.625 -20.883  0.00  0.00    +0.003 C 
BRANCH   4   6
ATOM      6  C   UNL     1      34.454 -17.432 -22.670  0.00  0.00    +0.120 C 
BRANCH   6   7
ATOM      7  O   UNL     1      34.985 -17.405 -24.000  0.00  0.00    -0.353 OA
ATOM      8  C   UNL     1      34.568 -18.540 -24.740  0.00  0.00    +0.174 C 
ENDBRANCH   6   7
BRANCH   6   9
ATOM      9  C   UNL     1      35.474 -18.103 -21.735  0.00  0.00    +0.056 C 
BRANCH   9  10
ATOM     10  C   UNL     1      34.885 -19.281 -20.990  0.00  0.00    -0.020 C 
ATOM     11  C   UNL     1      33.501 -19.424 -20.898  0.00  0.00    -0.004 C 
ATOM     12  C   UNL     1      35.725 -20.222 -20.397  0.00  0.00    -0.004 C 
ATOM     13  C   UNL     1      32.957 -20.510 -20.212  0.00  0.00    -0.000 C 
ATOM     14  C   UNL     1      35.181 -21.307 -19.710  0.00  0.00    -0.000 C 
ATOM     15  C   UNL     1      33.797 -21.452 -19.618  0.00  0.00    -0.000 C 
ENDBRANCH   9  10
ENDBRANCH   6   9
ENDBRANCH   4   6
ENDBRANCH   3   4
ENDBRANCH   1   3
BRANCH   1  16
ATOM     16  C   UNL     1      33.962 -12.767 -24.515  0.00  0.00    -0.002 C 
BRANCH  16  17
ATOM     17  C   UNL     1      33.317 -11.667 -23.659  0.00  0.00    -0.021 C 
BRANCH  17  18
ATOM     18  C   UNL     1      33.654 -10.217 -24.085  0.00  0.00    -0.055 C 
BRANCH  18  19
ATOM     19  N   UNL     1      35.098 -10.115 -24.331  0.00  0.00    +0.382 N 
ATOM     20  H   UNL     1      35.521  -9.514 -23.624  0.00  0.00    -0.089 HD
ATOM     21  H   UNL     1      35.258  -9.716 -25.256  0.00  0.00    -0.089 HD
ATOM     22  H   UNL     1      35.517 -11.044 -24.284  0.00  0.00    -0.089 HD
ENDBRANCH  18  19
BRANCH  18  23
ATOM     23  C   UNL     1      33.189  -9.137 -23.075  0.00  0.00    +0.079 C 
ATOM     24  C   UNL     1      31.672  -8.930 -23.070  0.00  0.00    +0.009 C 
BRANCH  23  26
ATOM     25  O   UNL     1      34.987  -7.498 -23.156  0.00  0.00    -0.250 OA
ATOM     26  C   UNL     1      33.822  -7.792 -23.399  0.00  0.00    +0.311 C 
BRANCH  26  27
ATOM     27  O   UNL     1      32.948  -6.924 -23.969  0.00  0.00    -0.480 OA
ATOM     28  H   UNL     1      32.079  -7.203 -24.177  0.00  0.00    +0.295 HD
ENDBRANCH  26  27
ENDBRANCH  23  26
ENDBRANCH  18  23
ENDBRANCH  17  18
ENDBRANCH  16  17
ENDBRANCH   1  16
TORSDOF 13
ENDMDL
MODEL 6
REMARK VINA RESULT:      -8.5      7.604     12.732
REMARK  Name = 17753820
REMARK  13 active torsions:
REMARK  status: ('A' for Active; 'I' for Inactive)
REMARK    1  A    between atoms: C_1  and  C_3
REMARK    2  A    between atoms: C_1  and  C_16
REMARK    3  A    between atoms: C_3  and  C_4
REMARK    4  A    between atoms: C_4  and  C_6
REMARK    5  A    between atoms: C_6  and  O_7
REMARK    6  A    between atoms: C_6  and  C_9
REMARK    7  A    between atoms: C_9  and  C_10
REMARK    8  A    between atoms: C_16  and  C_17
REMARK    9  A    between atoms: C_17  and  C_18
REMARK   10  A    between atoms: C_18  and  N_19
REMARK   11  A    between atoms: C_18  and  C_23
REMARK   12  A    between atoms: C_23  and  C_26
REMARK   13  A    between atoms: C_26  and  O_27
REMARK                            x       y       z     vdW  Elec       q    Type
REMARK                         _______ _______ _______ _____ _____    ______ ____
ROOT
ATOM      1  C   UNL     1      33.692 -24.317 -14.301  0.00  0.00    +0.000 C 
ATOM      2  C   UNL     1      32.519 -23.373 -14.006  0.00  0.00    +0.000 C 
ENDROOT
BRANCH   1   3
ATOM      3  C   UNL     1      34.249 -24.113 -15.729  0.00  0.00    +0.002 C 
BRANCH   3   4
ATOM      4  C   UNL     1      33.658 -22.926 -16.528  0.00  0.00    +0.028 C 
ATOM      5  C   UNL     1      32.399 -23.328 -17.304  0.00  0.00    +0.003 C 
BRANCH   4   6
ATOM      6  C   UNL     1      34.710 -22.275 -17.466  0.00  0.00    +0.120 C 
BRANCH   6   7
ATOM      7  O   UNL     1      35.994 -22.769 -17.069  0.00  0.00    -0.353 OA
ATOM      8  C   UNL     1      36.962 -21.733 -17.066  0.00  0.00    +0.174 C 
ENDBRANCH   6   7
BRANCH   6   9
ATOM      9  C   UNL     1      34.501 -22.564 -18.962  0.00  0.00    +0.056 C 
BRANCH   9  10
ATOM     10  C   UNL     1      34.331 -21.299 -19.774  0.00  0.00    -0.020 C 
ATOM     11  C   UNL     1      33.057 -20.774 -19.987  0.00  0.00    -0.004 C 
ATOM     12  C   UNL     1      35.448 -20.658 -20.309  0.00  0.00    -0.004 C 
ATOM     13  C   UNL     1      32.899 -19.608 -20.736  0.00  0.00    -0.000 C 
ATOM     14  C   UNL     1      35.290 -19.492 -21.058  0.00  0.00    -0.000 C 
ATOM     15  C   UNL     1      34.016 -18.966 -21.271  0.00  0.00    -0.000 C 
ENDBRANCH   9  10
ENDBRANCH   6   9
ENDBRANCH   4   6
ENDBRANCH   3   4
ENDBRANCH   1   3
BRANCH   1  16
ATOM     16  C   UNL     1      34.785 -24.101 -13.225  0.00  0.00    -0.002 C 
BRANCH  16  17
ATOM     17  C   UNL     1      36.044 -23.401 -13.758  0.00  0.00    -0.021 C 
BRANCH  17  18
ATOM     18  C   UNL     1      37.310 -24.290 -13.834  0.00  0.00    -0.055 C 
BRANCH  18  19
ATOM     19  N   UNL     1      37.797 -24.312 -15.219  0.00  0.00    +0.382 N 
ATOM     20  H   UNL     1      37.886 -25.279 -15.531  0.00  0.00    -0.089 HD
ATOM     21  H   UNL     1      38.707 -23.854 -15.266  0.00  0.00    -0.089 HD
ATOM     22  H   UNL     1      37.136 -23.819 -15.819  0.00  0.00    -0.089 HD
ENDBRANCH  18  19
BRANCH  18  23
ATOM     23  C   UNL     1      37.104 -25.731 -13.298  0.00  0.00    +0.079 C 
ATOM     24  C   UNL     1      38.081 -26.105 -12.181  0.00  0.00    +0.009 C 
BRANCH  23  26
ATOM     25  O   UNL     1      38.363 -27.259 -14.713  0.00  0.00    -0.250 OA
ATOM     26  C   UNL     1      37.289 -26.749 -14.413  0.00  0.00    +0.311 C 
BRANCH  26  27
ATOM     27  O   UNL     1      36.136 -27.022 -15.073  0.00  0.00    -0.480 OA
ATOM     28  H   UNL     1      36.014 -27.860 -15.476  0.00  0.00    +0.295 HD
ENDBRANCH  26  27
ENDBRANCH  23  26
ENDBRANCH  18  23
ENDBRANCH  17  18
ENDBRANCH  16  17
ENDBRANCH   1  16
TORSDOF 13
ENDMDL
MODEL 7
REMARK VINA RESULT:      -8.4      3.488      4.380
REMARK  Name = 17753820
REMARK  13 active torsions:
REMARK  status: ('A' for Active; 'I' for Inactive)
REMARK    1  A    between atoms: C_1  and  C_3
REMARK    2  A    between atoms: C_1  and  C_16
REMARK    3  A    between atoms: C_3  and  C_4
REMARK    4  A    between atoms: C_4  and  C_6
REMARK    5  A    between atoms: C_6  and  O_7
REMARK    6  A    between atoms: C_6  and  C_9
REMARK    7  A    between atoms: C_9  and  C_10
REMARK    8  A    between atoms: C_16  and  C_17
REMARK    9  A    between atoms: C_17  and  C_18
REMARK   10  A    between atoms: C_18  and  N_19
REMARK   11  A    between atoms: C_18  and  C_23
REMARK   12  A    between atoms: C_23  and  C_26
REMARK   13  A    between atoms: C_26  and  O_27
REMARK                            x       y       z     vdW  Elec       q    Type
REMARK                         _______ _______ _______ _____ _____    ______ ____
ROOT
ATOM      1  C   UNL     1      33.181 -14.409 -21.594  0.00  0.00    +0.000 C 
ATOM      2  C   UNL     1      32.607 -13.740 -20.338  0.00  0.00    +0.000 C 
ENDROOT
BRANCH   1   3
ATOM      3  C   UNL     1      33.260 -15.946 -21.442  0.00  0.00    +0.002 C 
BRANCH   3   4
ATOM      4  C   UNL     1      34.593 -16.605 -21.873  0.00  0.00    +0.028 C 
ATOM      5  C   UNL     1      35.265 -15.841 -23.018  0.00  0.00    +0.003 C 
BRANCH   4   6
ATOM      6  C   UNL     1      34.409 -18.104 -22.233  0.00  0.00    +0.120 C 
BRANCH   6   7
ATOM      7  O   UNL     1      34.349 -18.194 -23.660  0.00  0.00    -0.353 OA
ATOM      8  C   UNL     1      34.943 -19.395 -24.122  0.00  0.00    +0.174 C 
ENDBRANCH   6   7
BRANCH   6   9
ATOM      9  C   UNL     1      35.525 -19.029 -21.717  0.00  0.00    +0.056 C 
BRANCH   9  10
ATOM     10  C   UNL     1      35.010 -20.065 -20.742  0.00  0.00    -0.020 C 
ATOM     11  C   UNL     1      33.639 -20.201 -20.530  0.00  0.00    -0.004 C 
ATOM     12  C   UNL     1      35.907 -20.882 -20.056  0.00  0.00    -0.004 C 
ATOM     13  C   UNL     1      33.164 -21.155 -19.631  0.00  0.00    -0.000 C 
ATOM     14  C   UNL     1      35.432 -21.837 -19.156  0.00  0.00    -0.000 C 
ATOM     15  C   UNL     1      34.060 -21.974 -18.944  0.00  0.00    -0.000 C 
ENDBRANCH   9  10
ENDBRANCH   6   9
ENDBRANCH   4   6
ENDBRANCH   3   4
ENDBRANCH   1   3
BRANCH   1  16
ATOM     16  C   UNL     1      32.318 -13.999 -22.813  0.00  0.00    -0.002 C 
BRANCH  16  17
ATOM     17  C   UNL     1      32.833 -12.748 -23.540  0.00  0.00    -0.021 C 
BRANCH  17  18
ATOM     18  C   UNL     1      33.642 -13.023 -24.832  0.00  0.00    -0.055 C 
BRANCH  18  19
ATOM     19  N   UNL     1      34.019 -11.742 -25.442  0.00  0.00    +0.382 N 
ATOM     20  H   UNL     1      34.780 -11.892 -26.105  0.00  0.00    -0.089 HD
ATOM     21  H   UNL     1      34.326 -11.096 -24.714  0.00  0.00    -0.089 HD
ATOM     22  H   UNL     1      33.214 -11.348 -25.930  0.00  0.00    -0.089 HD
ENDBRANCH  18  19
BRANCH  18  23
ATOM     23  C   UNL     1      32.908 -13.927 -25.857  0.00  0.00    +0.079 C 
ATOM     24  C   UNL     1      33.380 -15.383 -25.823  0.00  0.00    +0.009 C 
BRANCH  23  26
ATOM     25  O   UNL     1      34.186 -13.519 -27.888  0.00  0.00    -0.250 OA
ATOM     26  C   UNL     1      33.130 -13.419 -27.274  0.00  0.00    +0.311 C 
BRANCH  26  27
ATOM     27  O   UNL     1      32.032 -12.812 -27.792  0.00  0.00    -0.480 OA
ATOM     28  H   UNL     1      32.130 -12.141 -28.438  0.00  0.00    +0.295 HD
ENDBRANCH  26  27
ENDBRANCH  23  26
ENDBRANCH  18  23
ENDBRANCH  17  18
ENDBRANCH  16  17
ENDBRANCH   1  16
TORSDOF 13
ENDMDL
MODEL 8
REMARK VINA RESULT:      -8.4      1.585      2.771
REMARK  Name = 17753820
REMARK  13 active torsions:
REMARK  status: ('A' for Active; 'I' for Inactive)
REMARK    1  A    between atoms: C_1  and  C_3
REMARK    2  A    between atoms: C_1  and  C_16
REMARK    3  A    between atoms: C_3  and  C_4
REMARK    4  A    between atoms: C_4  and  C_6
REMARK    5  A    between atoms: C_6  and  O_7
REMARK    6  A    between atoms: C_6  and  C_9
REMARK    7  A    between atoms: C_9  and  C_10
REMARK    8  A    between atoms: C_16  and  C_17
REMARK    9  A    between atoms: C_17  and  C_18
REMARK   10  A    between atoms: C_18  and  N_19
REMARK   11  A    between atoms: C_18  and  C_23
REMARK   12  A    between atoms: C_23  and  C_26
REMARK   13  A    between atoms: C_26  and  O_27
REMARK                            x       y       z     vdW  Elec       q    Type
REMARK                         _______ _______ _______ _____ _____    ______ ____
ROOT
ATOM      1  C   UNL     1      33.830 -11.350 -24.821  0.00  0.00    +0.000 C 
ATOM      2  C   UNL     1      34.785 -11.247 -26.018  0.00  0.00    +0.000 C 
ENDROOT
BRANCH   1   3
ATOM      3  C   UNL     1      34.135 -12.589 -23.947  0.00  0.00    +0.002 C 
BRANCH   3   4
ATOM      4  C   UNL     1      33.015 -13.655 -23.863  0.00  0.00    +0.028 C 
ATOM      5  C   UNL     1      32.306 -13.634 -22.505  0.00  0.00    +0.003 C 
BRANCH   4   6
ATOM      6  C   UNL     1      33.542 -15.076 -24.198  0.00  0.00    +0.120 C 
BRANCH   6   7
ATOM      7  O   UNL     1      33.779 -15.119 -25.610  0.00  0.00    -0.353 OA
ATOM      8  C   UNL     1      32.659 -14.634 -26.331  0.00  0.00    +0.174 C 
ENDBRANCH   6   7
BRANCH   6   9
ATOM      9  C   UNL     1      34.831 -15.474 -23.460  0.00  0.00    +0.056 C 
BRANCH   9  10
ATOM     10  C   UNL     1      34.800 -16.907 -22.977  0.00  0.00    -0.020 C 
ATOM     11  C   UNL     1      34.931 -17.953 -23.890  0.00  0.00    -0.004 C 
ATOM     12  C   UNL     1      34.640 -17.182 -21.619  0.00  0.00    -0.004 C 
ATOM     13  C   UNL     1      34.903 -19.274 -23.445  0.00  0.00    -0.000 C 
ATOM     14  C   UNL     1      34.611 -18.504 -21.174  0.00  0.00    -0.000 C 
ATOM     15  C   UNL     1      34.743 -19.550 -22.087  0.00  0.00    -0.000 C 
ENDBRANCH   9  10
ENDBRANCH   6   9
ENDBRANCH   4   6
ENDBRANCH   3   4
ENDBRANCH   1   3
BRANCH   1  16
ATOM     16  C   UNL     1      33.917 -10.038 -24.003  0.00  0.00    -0.002 C 
BRANCH  16  17
ATOM     17  C   UNL     1      32.548  -9.470 -23.600  0.00  0.00    -0.021 C 
BRANCH  17  18
ATOM     18  C   UNL     1      32.195  -9.602 -22.098  0.00  0.00    -0.055 C 
BRANCH  18  19
ATOM     19  N   UNL     1      31.009 -10.456 -21.958  0.00  0.00    +0.382 N 
ATOM     20  H   UNL     1      31.302 -11.419 -21.797  0.00  0.00    -0.089 HD
ATOM     21  H   UNL     1      30.453 -10.408 -22.811  0.00  0.00    -0.089 HD
ATOM     22  H   UNL     1      30.450 -10.133 -21.168  0.00  0.00    -0.089 HD
ENDBRANCH  18  19
BRANCH  18  23
ATOM     23  C   UNL     1      31.986  -8.245 -21.377  0.00  0.00    +0.079 C 
ATOM     24  C   UNL     1      32.761  -7.093 -22.024  0.00  0.00    +0.009 C 
BRANCH  23  26
ATOM     25  O   UNL     1      32.248  -9.296 -19.198  0.00  0.00    -0.250 OA
ATOM     26  C   UNL     1      32.443  -8.331 -19.928  0.00  0.00    +0.311 C 
BRANCH  26  27
ATOM     27  O   UNL     1      33.074  -7.206 -19.508  0.00  0.00    -0.480 OA
ATOM     28  H   UNL     1      33.987  -7.232 -19.298  0.00  0.00    +0.295 HD
ENDBRANCH  26  27
ENDBRANCH  23  26
ENDBRANCH  18  23
ENDBRANCH  17  18
ENDBRANCH  16  17
ENDBRANCH   1  16
TORSDOF 13
ENDMDL
MODEL 9
REMARK VINA RESULT:      -8.4      2.722      9.823
REMARK  Name = 17753820
REMARK  13 active torsions:
REMARK  status: ('A' for Active; 'I' for Inactive)
REMARK    1  A    between atoms: C_1  and  C_3
REMARK    2  A    between atoms: C_1  and  C_16
REMARK    3  A    between atoms: C_3  and  C_4
REMARK    4  A    between atoms: C_4  and  C_6
REMARK    5  A    between atoms: C_6  and  O_7
REMARK    6  A    between atoms: C_6  and  C_9
REMARK    7  A    between atoms: C_9  and  C_10
REMARK    8  A    between atoms: C_16  and  C_17
REMARK    9  A    between atoms: C_17  and  C_18
REMARK   10  A    between atoms: C_18  and  N_19
REMARK   11  A    between atoms: C_18  and  C_23
REMARK   12  A    between atoms: C_23  and  C_26
REMARK   13  A    between atoms: C_26  and  O_27
REMARK                            x       y       z     vdW  Elec       q    Type
REMARK                         _______ _______ _______ _____ _____    ______ ____
ROOT
ATOM      1  C   UNL     1      34.134 -11.116 -24.242  0.00  0.00    +0.000 C 
ATOM      2  C   UNL     1      34.926 -10.631 -25.463  0.00  0.00    +0.000 C 
ENDROOT
BRANCH   1   3
ATOM      3  C   UNL     1      32.878 -10.250 -23.989  0.00  0.00    +0.002 C 
BRANCH   3   4
ATOM      4  C   UNL     1      32.536  -9.964 -22.506  0.00  0.00    +0.028 C 
ATOM      5  C   UNL     1      31.180 -10.555 -22.108  0.00  0.00    +0.003 C 
BRANCH   4   6
ATOM      6  C   UNL     1      32.604  -8.448 -22.177  0.00  0.00    +0.120 C 
BRANCH   6   7
ATOM      7  O   UNL     1      32.503  -8.319 -20.755  0.00  0.00    -0.353 OA
ATOM      8  C   UNL     1      32.264  -6.973 -20.379  0.00  0.00    +0.174 C 
ENDBRANCH   6   7
BRANCH   6   9
ATOM      9  C   UNL     1      33.886  -7.745 -22.655  0.00  0.00    +0.056 C 
BRANCH   9  10
ATOM     10  C   UNL     1      33.640  -6.851 -23.851  0.00  0.00    -0.020 C 
ATOM     11  C   UNL     1      34.626  -6.708 -24.827  0.00  0.00    -0.004 C 
ATOM     12  C   UNL     1      32.429  -6.172 -23.977  0.00  0.00    -0.004 C 
ATOM     13  C   UNL     1      34.400  -5.884 -25.930  0.00  0.00    -0.000 C 
ATOM     14  C   UNL     1      32.204  -5.349 -25.080  0.00  0.00    -0.000 C 
ATOM     15  C   UNL     1      33.189  -5.205 -26.057  0.00  0.00    -0.000 C 
ENDBRANCH   9  10
ENDBRANCH   6   9
ENDBRANCH   4   6
ENDBRANCH   3   4
ENDBRANCH   1   3
BRANCH   1  16
ATOM     16  C   UNL     1      33.767 -12.607 -24.449  0.00  0.00    -0.002 C 
BRANCH  16  17
ATOM     17  C   UNL     1      33.772 -13.429 -23.152  0.00  0.00    -0.021 C 
BRANCH  17  18
ATOM     18  C   UNL     1      34.302 -14.877 -23.291  0.00  0.00    -0.055 C 
BRANCH  18  19
ATOM     19  N   UNL     1      33.814 -15.446 -24.554  0.00  0.00    +0.382 N 
ATOM     20  H   UNL     1      34.604 -15.628 -25.172  0.00  0.00    -0.089 HD
ATOM     21  H   UNL     1      33.178 -14.785 -25.001  0.00  0.00    -0.089 HD
ATOM     22  H   UNL     1      33.320 -16.319 -24.365  0.00  0.00    -0.089 HD
ENDBRANCH  18  19
BRANCH  18  23
ATOM     23  C   UNL     1      33.945 -15.799 -22.097  0.00  0.00    +0.079 C 
ATOM     24  C   UNL     1      33.725 -15.034 -20.789  0.00  0.00    +0.009 C 
BRANCH  23  26
ATOM     25  O   UNL     1      35.289 -17.323 -20.757  0.00  0.00    -0.250 OA
ATOM     26  C   UNL     1      35.058 -16.805 -21.844  0.00  0.00    +0.311 C 
BRANCH  26  27
ATOM     27  O   UNL     1      35.800 -17.058 -22.951  0.00  0.00    -0.480 OA
ATOM     28  H   UNL     1      35.450 -17.592 -23.637  0.00  0.00    +0.295 HD
ENDBRANCH  26  27
ENDBRANCH  23  26
ENDBRANCH  18  23
ENDBRANCH  17  18
ENDBRANCH  16  17
ENDBRANCH   1  16
TORSDOF 13
ENDMDL
