MODEL 1
REMARK VINA RESULT:      -4.3      0.000      0.000
REMARK  Name = 753
REMARK  5 active torsions:
REMARK  status: ('A' for Active; 'I' for Inactive)
REMARK    1  A    between atoms: C_1  and  O_2
REMARK    2  A    between atoms: C_1  and  C_4
REMARK    3  A    between atoms: C_1  and  C_7
REMARK    4  A    between atoms: C_4  and  O_5
REMARK    5  A    between atoms: C_7  and  O_8
REMARK                            x       y       z     vdW  Elec       q    Type
REMARK                         _______ _______ _______ _____ _____    ______ ____
ROOT
ATOM      1  C   UNL     1      27.307 -22.163 -17.301  0.00  0.00    +0.169 C 
ENDROOT
BRANCH   1   2
ATOM      2  O   UNL     1      27.505 -23.514 -17.726  0.00  0.00    -0.379 OA
ATOM      3  H   UNL     1      28.266 -23.892 -17.260  0.00  0.00    +0.211 HD
ENDBRANCH   1   2
BRANCH   1   4
ATOM      4  C   UNL     1      26.976 -22.183 -15.815  0.00  0.00    +0.169 C 
BRANCH   4   5
ATOM      5  O   UNL     1      25.571 -22.025 -15.652  0.00  0.00    -0.379 OA
ATOM      6  H   UNL     1      25.131 -22.879 -15.787  0.00  0.00    +0.211 HD
ENDBRANCH   4   5
ENDBRANCH   1   4
BRANCH   1   7
ATOM      7  C   UNL     1      26.172 -21.555 -18.117  0.00  0.00    +0.169 C 
BRANCH   7   8
ATOM      8  O   UNL     1      26.088 -20.157 -17.859  0.00  0.00    -0.379 OA
ATOM      9  H   UNL     1      25.935 -20.012 -16.912  0.00  0.00    +0.211 HD
ENDBRANCH   7   8
ENDBRANCH   1   7
TORSDOF 5
ENDMDL
MODEL 2
REMARK VINA RESULT:      -4.1     12.244     13.299
REMARK  Name = 753
REMARK  5 active torsions:
REMARK  status: ('A' for Active; 'I' for Inactive)
REMARK    1  A    between atoms: C_1  and  O_2
REMARK    2  A    between atoms: C_1  and  C_4
REMARK    3  A    between atoms: C_1  and  C_7
REMARK    4  A    between atoms: C_4  and  O_5
REMARK    5  A    between atoms: C_7  and  O_8
REMARK                            x       y       z     vdW  Elec       q    Type
REMARK                         _______ _______ _______ _____ _____    ______ ____
ROOT
ATOM      1  C   UNL     1      38.969 -25.105 -14.406  0.00  0.00    +0.169 C 
ENDROOT
BRANCH   1   2
ATOM      2  O   UNL     1      38.786 -24.130 -15.435  0.00  0.00    -0.379 OA
ATOM      3  H   UNL     1      39.486 -24.225 -16.100  0.00  0.00    +0.211 HD
ENDBRANCH   1   2
BRANCH   1   4
ATOM      4  C   UNL     1      40.296 -25.809 -14.657  0.00  0.00    +0.169 C 
BRANCH   4   5
ATOM      5  O   UNL     1      40.472 -25.977 -16.060  0.00  0.00    -0.379 OA
ATOM      6  H   UNL     1      39.640 -26.279 -16.457  0.00  0.00    +0.211 HD
ENDBRANCH   4   5
ENDBRANCH   1   4
BRANCH   1   7
ATOM      7  C   UNL     1      37.802 -26.085 -14.448  0.00  0.00    +0.169 C 
BRANCH   7   8
ATOM      8  O   UNL     1      37.568 -26.500 -15.790  0.00  0.00    -0.379 OA
ATOM      9  H   UNL     1      37.976 -25.864 -16.400  0.00  0.00    +0.211 HD
ENDBRANCH   7   8
ENDBRANCH   1   7
TORSDOF 5
ENDMDL
MODEL 3
REMARK VINA RESULT:      -4.0     12.154     13.165
REMARK  Name = 753
REMARK  5 active torsions:
REMARK  status: ('A' for Active; 'I' for Inactive)
REMARK    1  A    between atoms: C_1  and  O_2
REMARK    2  A    between atoms: C_1  and  C_4
REMARK    3  A    between atoms: C_1  and  C_7
REMARK    4  A    between atoms: C_4  and  O_5
REMARK    5  A    between atoms: C_7  and  O_8
REMARK                            x       y       z     vdW  Elec       q    Type
REMARK                         _______ _______ _______ _____ _____    ______ ____
ROOT
ATOM      1  C   UNL     1      38.579 -25.659 -14.583  0.00  0.00    +0.169 C 
ENDROOT
BRANCH   1   2
ATOM      2  O   UNL     1      38.031 -26.555 -15.553  0.00  0.00    -0.379 OA
ATOM      3  H   UNL     1      37.187 -26.205 -15.876  0.00  0.00    +0.211 HD
ENDBRANCH   1   2
BRANCH   1   4
ATOM      4  C   UNL     1      37.983 -24.280 -14.830  0.00  0.00    +0.169 C 
BRANCH   4   5
ATOM      5  O   UNL     1      38.770 -23.602 -15.803  0.00  0.00    -0.379 OA
ATOM      6  H   UNL     1      38.634 -24.010 -16.672  0.00  0.00    +0.211 HD
ENDBRANCH   4   5
ENDBRANCH   1   4
BRANCH   1   7
ATOM      7  C   UNL     1      40.097 -25.644 -14.734  0.00  0.00    +0.169 C 
BRANCH   7   8
ATOM      8  O   UNL     1      40.452 -25.960 -16.076  0.00  0.00    -0.379 OA
ATOM      9  H   UNL     1      40.999 -25.247 -16.442  0.00  0.00    +0.211 HD
ENDBRANCH   7   8
ENDBRANCH   1   7
TORSDOF 5
ENDMDL
MODEL 4
REMARK VINA RESULT:      -3.9     12.328     13.352
REMARK  Name = 753
REMARK  5 active torsions:
REMARK  status: ('A' for Active; 'I' for Inactive)
REMARK    1  A    between atoms: C_1  and  O_2
REMARK    2  A    between atoms: C_1  and  C_4
REMARK    3  A    between atoms: C_1  and  C_7
REMARK    4  A    between atoms: C_4  and  O_5
REMARK    5  A    between atoms: C_7  and  O_8
REMARK                            x       y       z     vdW  Elec       q    Type
REMARK                         _______ _______ _______ _____ _____    ______ ____
ROOT
ATOM      1  C   UNL     1      38.863 -25.108 -14.476  0.00  0.00    +0.169 C 
ENDROOT
BRANCH   1   2
ATOM      2  O   UNL     1      38.824 -24.456 -13.204  0.00  0.00    -0.379 OA
ATOM      3  H   UNL     1      38.241 -23.683 -13.254  0.00  0.00    +0.211 HD
ENDBRANCH   1   2
BRANCH   1   4
ATOM      4  C   UNL     1      37.852 -26.247 -14.450  0.00  0.00    +0.169 C 
BRANCH   4   5
ATOM      5  O   UNL     1      37.512 -26.593 -15.789  0.00  0.00    -0.379 OA
ATOM      6  H   UNL     1      38.315 -26.621 -16.331  0.00  0.00    +0.211 HD
ENDBRANCH   4   5
ENDBRANCH   1   4
BRANCH   1   7
ATOM      7  C   UNL     1      40.277 -25.623 -14.718  0.00  0.00    +0.169 C 
BRANCH   7   8
ATOM      8  O   UNL     1      40.442 -25.953 -16.093  0.00  0.00    -0.379 OA
ATOM      9  H   UNL     1      41.028 -26.723 -16.172  0.00  0.00    +0.211 HD
ENDBRANCH   7   8
ENDBRANCH   1   7
TORSDOF 5
ENDMDL
MODEL 5
REMARK VINA RESULT:      -3.9     11.175     11.955
REMARK  Name = 753
REMARK  5 active torsions:
REMARK  status: ('A' for Active; 'I' for Inactive)
REMARK    1  A    between atoms: C_1  and  O_2
REMARK    2  A    between atoms: C_1  and  C_4
REMARK    3  A    between atoms: C_1  and  C_7
REMARK    4  A    between atoms: C_4  and  O_5
REMARK    5  A    between atoms: C_7  and  O_8
REMARK                            x       y       z     vdW  Elec       q    Type
REMARK                         _______ _______ _______ _____ _____    ______ ____
ROOT
ATOM      1  C   UNL     1      36.699 -25.050 -12.368  0.00  0.00    +0.169 C 
ENDROOT
BRANCH   1   2
ATOM      2  O   UNL     1      36.848 -26.419 -11.985  0.00  0.00    -0.379 OA
ATOM      3  H   UNL     1      36.055 -26.915 -12.240  0.00  0.00    +0.211 HD
ENDBRANCH   1   2
BRANCH   1   4
ATOM      4  C   UNL     1      37.961 -24.307 -11.953  0.00  0.00    +0.169 C 
BRANCH   4   5
ATOM      5  O   UNL     1      37.597 -23.186 -11.154  0.00  0.00    -0.379 OA
ATOM      6  H   UNL     1      36.631 -23.144 -11.076  0.00  0.00    +0.211 HD
ENDBRANCH   4   5
ENDBRANCH   1   4
BRANCH   1   7
ATOM      7  C   UNL     1      35.464 -24.480 -11.678  0.00  0.00    +0.169 C 
BRANCH   7   8
ATOM      8  O   UNL     1      35.328 -25.055 -10.383  0.00  0.00    -0.379 OA
ATOM      9  H   UNL     1      34.550 -24.677  -9.942  0.00  0.00    +0.211 HD
ENDBRANCH   7   8
ENDBRANCH   1   7
TORSDOF 5
ENDMDL
MODEL 6
REMARK VINA RESULT:      -3.9     11.426     12.361
REMARK  Name = 753
REMARK  5 active torsions:
REMARK  status: ('A' for Active; 'I' for Inactive)
REMARK    1  A    between atoms: C_1  and  O_2
REMARK    2  A    between atoms: C_1  and  C_4
REMARK    3  A    between atoms: C_1  and  C_7
REMARK    4  A    between atoms: C_4  and  O_5
REMARK    5  A    between atoms: C_7  and  O_8
REMARK                            x       y       z     vdW  Elec       q    Type
REMARK                         _______ _______ _______ _____ _____    ______ ____
ROOT
ATOM      1  C   UNL     1      37.511 -26.793 -14.160  0.00  0.00    +0.169 C 
ENDROOT
BRANCH   1   2
ATOM      2  O   UNL     1      36.835 -26.617 -12.913  0.00  0.00    -0.379 OA
ATOM      3  H   UNL     1      36.747 -27.474 -12.469  0.00  0.00    +0.211 HD
ENDBRANCH   1   2
BRANCH   1   4
ATOM      4  C   UNL     1      38.708 -25.852 -14.182  0.00  0.00    +0.169 C 
BRANCH   4   5
ATOM      5  O   UNL     1      39.199 -25.758 -15.515  0.00  0.00    -0.379 OA
ATOM      6  H   UNL     1      39.986 -26.317 -15.610  0.00  0.00    +0.211 HD
ENDBRANCH   4   5
ENDBRANCH   1   4
BRANCH   1   7
ATOM      7  C   UNL     1      36.537 -26.482 -15.292  0.00  0.00    +0.169 C 
BRANCH   7   8
ATOM      8  O   UNL     1      36.783 -27.352 -16.392  0.00  0.00    -0.379 OA
ATOM      9  H   UNL     1      36.588 -26.887 -17.221  0.00  0.00    +0.211 HD
ENDBRANCH   7   8
ENDBRANCH   1   7
TORSDOF 5
ENDMDL
MODEL 7
REMARK VINA RESULT:      -3.8     12.552     13.402
REMARK  Name = 753
REMARK  5 active torsions:
REMARK  status: ('A' for Active; 'I' for Inactive)
REMARK    1  A    between atoms: C_1  and  O_2
REMARK    2  A    between atoms: C_1  and  C_4
REMARK    3  A    between atoms: C_1  and  C_7
REMARK    4  A    between atoms: C_4  and  O_5
REMARK    5  A    between atoms: C_7  and  O_8
REMARK                            x       y       z     vdW  Elec       q    Type
REMARK                         _______ _______ _______ _____ _____    ______ ____
ROOT
ATOM      1  C   UNL     1      38.534 -25.943 -14.403  0.00  0.00    +0.169 C 
ENDROOT
BRANCH   1   2
ATOM      2  O   UNL     1      38.268 -27.280 -14.835  0.00  0.00    -0.379 OA
ATOM      3  H   UNL     1      37.377 -27.326 -15.214  0.00  0.00    +0.211 HD
ENDBRANCH   1   2
BRANCH   1   4
ATOM      4  C   UNL     1      40.027 -25.687 -14.563  0.00  0.00    +0.169 C 
BRANCH   4   5
ATOM      5  O   UNL     1      40.390 -25.901 -15.924  0.00  0.00    -0.379 OA
ATOM      6  H   UNL     1      39.989 -26.726 -16.240  0.00  0.00    +0.211 HD
ENDBRANCH   4   5
ENDBRANCH   1   4
BRANCH   1   7
ATOM      7  C   UNL     1      38.098 -25.802 -12.949  0.00  0.00    +0.169 C 
BRANCH   7   8
ATOM      8  O   UNL     1      36.919 -26.568 -12.723  0.00  0.00    -0.379 OA
ATOM      9  H   UNL     1      36.396 -26.155 -12.018  0.00  0.00    +0.211 HD
ENDBRANCH   7   8
ENDBRANCH   1   7
TORSDOF 5
ENDMDL
MODEL 8
REMARK VINA RESULT:      -3.7      2.013      2.869
REMARK  Name = 753
REMARK  5 active torsions:
REMARK  status: ('A' for Active; 'I' for Inactive)
REMARK    1  A    between atoms: C_1  and  O_2
REMARK    2  A    between atoms: C_1  and  C_4
REMARK    3  A    between atoms: C_1  and  C_7
REMARK    4  A    between atoms: C_4  and  O_5
REMARK    5  A    between atoms: C_7  and  O_8
REMARK                            x       y       z     vdW  Elec       q    Type
REMARK                         _______ _______ _______ _____ _____    ______ ____
ROOT
ATOM      1  C   UNL     1      28.167 -23.607 -16.219  0.00  0.00    +0.169 C 
ENDROOT
BRANCH   1   2
ATOM      2  O   UNL     1      27.786 -24.045 -17.526  0.00  0.00    -0.379 OA
ATOM      3  H   UNL     1      28.254 -24.866 -17.741  0.00  0.00    +0.211 HD
ENDBRANCH   1   2
BRANCH   1   4
ATOM      4  C   UNL     1      27.390 -22.336 -15.906  0.00  0.00    +0.169 C 
BRANCH   4   5
ATOM      5  O   UNL     1      27.251 -21.572 -17.099  0.00  0.00    -0.379 OA
ATOM      6  H   UNL     1      27.761 -20.751 -17.020  0.00  0.00    +0.211 HD
ENDBRANCH   4   5
ENDBRANCH   1   4
BRANCH   1   7
ATOM      7  C   UNL     1      29.671 -23.357 -16.207  0.00  0.00    +0.169 C 
BRANCH   7   8
ATOM      8  O   UNL     1      29.998 -22.332 -17.139  0.00  0.00    -0.379 OA
ATOM      9  H   UNL     1      29.359 -21.606 -17.058  0.00  0.00    +0.211 HD
ENDBRANCH   7   8
ENDBRANCH   1   7
TORSDOF 5
ENDMDL
MODEL 9
REMARK VINA RESULT:      -3.7     11.498     12.254
REMARK  Name = 753
REMARK  5 active torsions:
REMARK  status: ('A' for Active; 'I' for Inactive)
REMARK    1  A    between atoms: C_1  and  O_2
REMARK    2  A    between atoms: C_1  and  C_4
REMARK    3  A    between atoms: C_1  and  C_7
REMARK    4  A    between atoms: C_4  and  O_5
REMARK    5  A    between atoms: C_7  and  O_8
REMARK                            x       y       z     vdW  Elec       q    Type
REMARK                         _______ _______ _______ _____ _____    ______ ____
ROOT
ATOM      1  C   UNL     1      38.075 -25.876 -14.461  0.00  0.00    +0.169 C 
ENDROOT
BRANCH   1   2
ATOM      2  O   UNL     1      39.013 -26.895 -14.815  0.00  0.00    -0.379 OA
ATOM      3  H   UNL     1      38.656 -27.424 -15.545  0.00  0.00    +0.211 HD
ENDBRANCH   1   2
BRANCH   1   4
ATOM      4  C   UNL     1      37.974 -25.839 -12.942  0.00  0.00    +0.169 C 
BRANCH   4   5
ATOM      5  O   UNL     1      36.813 -26.556 -12.537  0.00  0.00    -0.379 OA
ATOM      6  H   UNL     1      37.054 -27.209 -11.862  0.00  0.00    +0.211 HD
ENDBRANCH   4   5
ENDBRANCH   1   4
BRANCH   1   7
ATOM      7  C   UNL     1      36.730 -26.205 -15.101  0.00  0.00    +0.169 C 
BRANCH   7   8
ATOM      8  O   UNL     1      36.907 -27.185 -16.118  0.00  0.00    -0.379 OA
ATOM      9  H   UNL     1      36.102 -27.723 -16.191  0.00  0.00    +0.211 HD
ENDBRANCH   7   8
ENDBRANCH   1   7
TORSDOF 5
ENDMDL
