MODEL 1
REMARK VINA RESULT:      -8.8      0.000      0.000
REMARK  Name = 4938
REMARK  7 active torsions:
REMARK  status: ('A' for Active; 'I' for Inactive)
REMARK    1  A    between atoms: N_3  and  C_13
REMARK    2  A    between atoms: N_4  and  C_20
REMARK    3  A    between atoms: C_13  and  C_14
REMARK    4  A    between atoms: C_14  and  C_15
REMARK    5  A    between atoms: C_15  and  C_16
REMARK    6  A    between atoms: C_16  and  C_18
REMARK    7  A    between atoms: C_20  and  C_21
REMARK                            x       y       z     vdW  Elec       q    Type
REMARK                         _______ _______ _______ _____ _____    ______ ____
ROOT
ATOM      1  O   UNL     1      33.098 -23.302 -16.966  0.00  0.00    -0.272 OA
ATOM      2  O   UNL     1      34.113 -24.396 -12.518  0.00  0.00    -0.252 OA
ATOM      3  N   UNL     1      33.583 -23.859 -14.735  0.00  0.00    -0.212 N 
ATOM      4  N   UNL     1      35.939 -22.385 -17.159  0.00  0.00    -0.240 NA
ATOM      5  N   UNL     1      35.797 -23.474 -13.833  0.00  0.00    -0.228 N 
ATOM      6  N   UNL     1      37.369 -22.490 -15.451  0.00  0.00    -0.240 NA
ATOM      7  C   UNL     1      35.246 -22.924 -16.113  0.00  0.00    +0.192 C 
ATOM      8  C   UNL     1      36.143 -22.977 -15.082  0.00  0.00    +0.136 C 
ATOM      9  C   UNL     1      33.890 -23.359 -16.029  0.00  0.00    +0.254 C 
ATOM     10  C   UNL     1      34.479 -23.942 -13.609  0.00  0.00    +0.318 C 
ATOM     11  C   UNL     1      37.212 -22.141 -16.711  0.00  0.00    +0.203 C 
ATOM     12  C   UNL     1      36.783 -23.513 -12.759  0.00  0.00    +0.123 C 
ENDROOT
BRANCH   3  13
ATOM     13  C   UNL     1      32.220 -24.336 -14.524  0.00  0.00    +0.103 C 
BRANCH  13  14
ATOM     14  C   UNL     1      31.300 -23.245 -13.984  0.00  0.00    +0.022 C 
BRANCH  14  15
ATOM     15  C   UNL     1      30.261 -22.790 -15.016  0.00  0.00    +0.010 C 
BRANCH  15  16
ATOM     16  C   UNL     1      29.657 -23.963 -15.788  0.00  0.00    +0.065 C 
BRANCH  16  18
ATOM     17  O   UNL     1      27.876 -24.297 -17.392  0.00  0.00    -0.296 OA
ATOM     18  C   UNL     1      28.329 -23.641 -16.455  0.00  0.00    +0.151 C 
ATOM     19  C   UNL     1      27.562 -22.480 -15.879  0.00  0.00    +0.072 C 
ENDBRANCH  16  18
ENDBRANCH  15  16
ENDBRANCH  14  15
ENDBRANCH  13  14
ENDBRANCH   3  13
BRANCH   4  20
ATOM     20  C   UNL     1      35.450 -22.113 -18.489  0.00  0.00    +0.075 C 
BRANCH  20  21
ATOM     21  C   UNL     1      36.455 -21.317 -19.319  0.00  0.00    +0.017 C 
ATOM     22  C   UNL     1      35.758 -20.486 -20.384  0.00  0.00    +0.001 C 
ENDBRANCH  20  21
ENDBRANCH   4  20
TORSDOF 7
ENDMDL
MODEL 2
REMARK VINA RESULT:      -8.5      8.301     11.580
REMARK  Name = 4938
REMARK  7 active torsions:
REMARK  status: ('A' for Active; 'I' for Inactive)
REMARK    1  A    between atoms: N_3  and  C_13
REMARK    2  A    between atoms: N_4  and  C_20
REMARK    3  A    between atoms: C_13  and  C_14
REMARK    4  A    between atoms: C_14  and  C_15
REMARK    5  A    between atoms: C_15  and  C_16
REMARK    6  A    between atoms: C_16  and  C_18
REMARK    7  A    between atoms: C_20  and  C_21
REMARK                            x       y       z     vdW  Elec       q    Type
REMARK                         _______ _______ _______ _____ _____    ______ ____
ROOT
ATOM      1  O   UNL     1      34.923 -15.911 -20.512  0.00  0.00    -0.272 OA
ATOM      2  O   UNL     1      33.086 -13.477 -24.078  0.00  0.00    -0.252 OA
ATOM      3  N   UNL     1      34.000 -14.672 -22.282  0.00  0.00    -0.212 N 
ATOM      4  N   UNL     1      35.340 -18.100 -22.508  0.00  0.00    -0.240 NA
ATOM      5  N   UNL     1      33.861 -15.630 -24.502  0.00  0.00    -0.228 N 
ATOM      6  N   UNL     1      34.756 -17.917 -24.651  0.00  0.00    -0.240 NA
ATOM      7  C   UNL     1      34.800 -16.854 -22.652  0.00  0.00    +0.192 C 
ATOM      8  C   UNL     1      34.451 -16.769 -23.971  0.00  0.00    +0.136 C 
ATOM      9  C   UNL     1      34.605 -15.815 -21.693  0.00  0.00    +0.254 C 
ATOM     10  C   UNL     1      33.609 -14.518 -23.661  0.00  0.00    +0.318 C 
ATOM     11  C   UNL     1      35.292 -18.701 -23.738  0.00  0.00    +0.203 C 
ATOM     12  C   UNL     1      33.503 -15.578 -25.915  0.00  0.00    +0.123 C 
ENDROOT
BRANCH   3  13
ATOM     13  C   UNL     1      33.747 -13.538 -21.399  0.00  0.00    +0.103 C 
BRANCH  13  14
ATOM     14  C   UNL     1      32.333 -13.551 -20.827  0.00  0.00    +0.022 C 
BRANCH  14  15
ATOM     15  C   UNL     1      31.593 -12.227 -21.062  0.00  0.00    +0.010 C 
BRANCH  15  16
ATOM     16  C   UNL     1      31.544 -11.359 -19.805  0.00  0.00    +0.065 C 
BRANCH  16  18
ATOM     17  O   UNL     1      32.182  -9.119 -19.149  0.00  0.00    -0.296 OA
ATOM     18  C   UNL     1      31.885  -9.899 -20.053  0.00  0.00    +0.151 C 
ATOM     19  C   UNL     1      31.880  -9.452 -21.492  0.00  0.00    +0.072 C 
ENDBRANCH  16  18
ENDBRANCH  15  16
ENDBRANCH  14  15
ENDBRANCH  13  14
ENDBRANCH   3  13
BRANCH   4  20
ATOM     20  C   UNL     1      35.868 -18.695 -21.303  0.00  0.00    +0.075 C 
BRANCH  20  21
ATOM     21  C   UNL     1      35.200 -20.030 -20.980  0.00  0.00    +0.017 C 
ATOM     22  C   UNL     1      33.717 -19.853 -20.700  0.00  0.00    +0.001 C 
ENDBRANCH  20  21
ENDBRANCH   4  20
TORSDOF 7
ENDMDL
MODEL 3
REMARK VINA RESULT:      -8.4      1.605      3.938
REMARK  Name = 4938
REMARK  7 active torsions:
REMARK  status: ('A' for Active; 'I' for Inactive)
REMARK    1  A    between atoms: N_3  and  C_13
REMARK    2  A    between atoms: N_4  and  C_20
REMARK    3  A    between atoms: C_13  and  C_14
REMARK    4  A    between atoms: C_14  and  C_15
REMARK    5  A    between atoms: C_15  and  C_16
REMARK    6  A    between atoms: C_16  and  C_18
REMARK    7  A    between atoms: C_20  and  C_21
REMARK                            x       y       z     vdW  Elec       q    Type
REMARK                         _______ _______ _______ _____ _____    ______ ____
ROOT
ATOM      1  O   UNL     1      33.322 -24.603 -12.771  0.00  0.00    -0.272 OA
ATOM      2  O   UNL     1      31.586 -22.821 -16.749  0.00  0.00    -0.252 OA
ATOM      3  N   UNL     1      32.429 -23.711 -14.753  0.00  0.00    -0.212 N 
ATOM      4  N   UNL     1      35.991 -24.418 -14.110  0.00  0.00    -0.240 NA
ATOM      5  N   UNL     1      33.883 -23.168 -16.613  0.00  0.00    -0.228 N 
ATOM      6  N   UNL     1      36.260 -23.640 -16.182  0.00  0.00    -0.240 NA
ATOM      7  C   UNL     1      34.745 -24.083 -14.557  0.00  0.00    +0.192 C 
ATOM      8  C   UNL     1      34.938 -23.611 -15.826  0.00  0.00    +0.136 C 
ATOM      9  C   UNL     1      33.476 -24.175 -13.911  0.00  0.00    +0.254 C 
ATOM     10  C   UNL     1      32.564 -23.203 -16.096  0.00  0.00    +0.318 C 
ATOM     11  C   UNL     1      36.869 -24.133 -15.123  0.00  0.00    +0.203 C 
ATOM     12  C   UNL     1      34.130 -22.672 -17.961  0.00  0.00    +0.123 C 
ENDROOT
BRANCH   3  13
ATOM     13  C   UNL     1      31.079 -23.756 -14.203  0.00  0.00    +0.103 C 
BRANCH  13  14
ATOM     14  C   UNL     1      30.397 -25.099 -14.444  0.00  0.00    +0.022 C 
BRANCH  14  15
ATOM     15  C   UNL     1      28.952 -24.943 -14.935  0.00  0.00    +0.010 C 
BRANCH  15  16
ATOM     16  C   UNL     1      28.874 -24.691 -16.440  0.00  0.00    +0.065 C 
BRANCH  16  18
ATOM     17  O   UNL     1      27.628 -23.248 -17.931  0.00  0.00    -0.296 OA
ATOM     18  C   UNL     1      28.107 -23.432 -16.813  0.00  0.00    +0.151 C 
ATOM     19  C   UNL     1      27.925 -22.417 -15.715  0.00  0.00    +0.072 C 
ENDBRANCH  16  18
ENDBRANCH  15  16
ENDBRANCH  14  15
ENDBRANCH  13  14
ENDBRANCH   3  13
BRANCH   4  20
ATOM     20  C   UNL     1      36.344 -24.968 -12.823  0.00  0.00    +0.075 C 
BRANCH  20  21
ATOM     21  C   UNL     1      37.554 -24.267 -12.210  0.00  0.00    +0.017 C 
ATOM     22  C   UNL     1      37.173 -22.919 -11.620  0.00  0.00    +0.001 C 
ENDBRANCH  20  21
ENDBRANCH   4  20
TORSDOF 7
ENDMDL
MODEL 4
REMARK VINA RESULT:      -8.4      2.886      5.460
REMARK  Name = 4938
REMARK  7 active torsions:
REMARK  status: ('A' for Active; 'I' for Inactive)
REMARK    1  A    between atoms: N_3  and  C_13
REMARK    2  A    between atoms: N_4  and  C_20
REMARK    3  A    between atoms: C_13  and  C_14
REMARK    4  A    between atoms: C_14  and  C_15
REMARK    5  A    between atoms: C_15  and  C_16
REMARK    6  A    between atoms: C_16  and  C_18
REMARK    7  A    between atoms: C_20  and  C_21
REMARK                            x       y       z     vdW  Elec       q    Type
REMARK                         _______ _______ _______ _____ _____    ______ ____
ROOT
ATOM      1  O   UNL     1      37.475 -22.327 -15.376  0.00  0.00    -0.272 OA
ATOM      2  O   UNL     1      34.576 -24.311 -12.266  0.00  0.00    -0.252 OA
ATOM      3  N   UNL     1      36.041 -23.319 -13.801  0.00  0.00    -0.212 N 
ATOM      4  N   UNL     1      35.210 -22.573 -17.315  0.00  0.00    -0.240 NA
ATOM      5  N   UNL     1      33.790 -23.954 -14.426  0.00  0.00    -0.228 N 
ATOM      6  N   UNL     1      33.236 -23.455 -16.772  0.00  0.00    -0.240 NA
ATOM      7  C   UNL     1      35.300 -22.932 -16.000  0.00  0.00    +0.192 C 
ATOM      8  C   UNL     1      34.080 -23.468 -15.695  0.00  0.00    +0.136 C 
ATOM      9  C   UNL     1      36.386 -22.811 -15.082  0.00  0.00    +0.254 C 
ATOM     10  C   UNL     1      34.778 -23.895 -13.413  0.00  0.00    +0.318 C 
ATOM     11  C   UNL     1      33.949 -22.908 -17.735  0.00  0.00    +0.203 C 
ATOM     12  C   UNL     1      32.476 -24.519 -14.140  0.00  0.00    +0.123 C 
ENDROOT
BRANCH   3  13
ATOM     13  C   UNL     1      37.073 -23.251 -12.771  0.00  0.00    +0.103 C 
BRANCH  13  14
ATOM     14  C   UNL     1      38.191 -24.264 -13.001  0.00  0.00    +0.022 C 
BRANCH  14  15
ATOM     15  C   UNL     1      37.988 -25.555 -12.198  0.00  0.00    +0.010 C 
BRANCH  15  16
ATOM     16  C   UNL     1      37.186 -26.600 -12.971  0.00  0.00    +0.065 C 
BRANCH  16  18
ATOM     17  O   UNL     1      38.742 -27.019 -14.777  0.00  0.00    -0.296 OA
ATOM     18  C   UNL     1      37.596 -26.734 -14.429  0.00  0.00    +0.151 C 
ATOM     19  C   UNL     1      36.504 -26.535 -15.446  0.00  0.00    +0.072 C 
ENDBRANCH  16  18
ENDBRANCH  15  16
ENDBRANCH  14  15
ENDBRANCH  13  14
ENDBRANCH   3  13
BRANCH   4  20
ATOM     20  C   UNL     1      36.231 -21.959 -18.130  0.00  0.00    +0.075 C 
BRANCH  20  21
ATOM     21  C   UNL     1      35.722 -21.617 -19.529  0.00  0.00    +0.017 C 
ATOM     22  C   UNL     1      36.507 -20.467 -20.137  0.00  0.00    +0.001 C 
ENDBRANCH  20  21
ENDBRANCH   4  20
TORSDOF 7
ENDMDL
MODEL 5
REMARK VINA RESULT:      -8.4      7.271     10.630
REMARK  Name = 4938
REMARK  7 active torsions:
REMARK  status: ('A' for Active; 'I' for Inactive)
REMARK    1  A    between atoms: N_3  and  C_13
REMARK    2  A    between atoms: N_4  and  C_20
REMARK    3  A    between atoms: C_13  and  C_14
REMARK    4  A    between atoms: C_14  and  C_15
REMARK    5  A    between atoms: C_15  and  C_16
REMARK    6  A    between atoms: C_16  and  C_18
REMARK    7  A    between atoms: C_20  and  C_21
REMARK                            x       y       z     vdW  Elec       q    Type
REMARK                         _______ _______ _______ _____ _____    ______ ____
ROOT
ATOM      1  O   UNL     1      33.736 -15.583 -20.143  0.00  0.00    -0.272 OA
ATOM      2  O   UNL     1      34.957 -17.642 -24.179  0.00  0.00    -0.252 OA
ATOM      3  N   UNL     1      34.357 -16.634 -22.151  0.00  0.00    -0.212 N 
ATOM      4  N   UNL     1      32.556 -13.430 -21.852  0.00  0.00    -0.240 NA
ATOM      5  N   UNL     1      33.821 -15.614 -24.281  0.00  0.00    -0.228 N 
ATOM      6  N   UNL     1      32.618 -13.476 -24.080  0.00  0.00    -0.240 NA
ATOM      7  C   UNL     1      33.206 -14.582 -22.193  0.00  0.00    +0.192 C 
ATOM      8  C   UNL     1      33.230 -14.585 -23.560  0.00  0.00    +0.136 C 
ATOM      9  C   UNL     1      33.767 -15.604 -21.370  0.00  0.00    +0.254 C 
ATOM     10  C   UNL     1      34.417 -16.698 -23.590  0.00  0.00    +0.318 C 
ATOM     11  C   UNL     1      32.221 -12.800 -23.022  0.00  0.00    +0.203 C 
ATOM     12  C   UNL     1      33.826 -15.580 -25.739  0.00  0.00    +0.123 C 
ENDROOT
BRANCH   3  13
ATOM     13  C   UNL     1      34.967 -17.740 -21.421  0.00  0.00    +0.103 C 
BRANCH  13  14
ATOM     14  C   UNL     1      33.968 -18.848 -21.102  0.00  0.00    +0.022 C 
BRANCH  14  15
ATOM     15  C   UNL     1      34.652 -20.141 -20.641  0.00  0.00    +0.010 C 
BRANCH  15  16
ATOM     16  C   UNL     1      33.703 -21.058 -19.872  0.00  0.00    +0.065 C 
BRANCH  16  18
ATOM     17  O   UNL     1      33.959 -23.394 -19.293  0.00  0.00    -0.296 OA
ATOM     18  C   UNL     1      34.391 -22.245 -19.216  0.00  0.00    +0.151 C 
ATOM     19  C   UNL     1      35.673 -21.946 -18.485  0.00  0.00    +0.072 C 
ENDBRANCH  16  18
ENDBRANCH  15  16
ENDBRANCH  14  15
ENDBRANCH  13  14
ENDBRANCH   3  13
BRANCH   4  20
ATOM     20  C   UNL     1      32.263 -12.947 -20.524  0.00  0.00    +0.075 C 
BRANCH  20  21
ATOM     21  C   UNL     1      31.491 -11.630 -20.548  0.00  0.00    +0.017 C 
ATOM     22  C   UNL     1      31.492 -10.962 -19.183  0.00  0.00    +0.001 C 
ENDBRANCH  20  21
ENDBRANCH   4  20
TORSDOF 7
ENDMDL
MODEL 6
REMARK VINA RESULT:      -8.3      2.269      6.123
REMARK  Name = 4938
REMARK  7 active torsions:
REMARK  status: ('A' for Active; 'I' for Inactive)
REMARK    1  A    between atoms: N_3  and  C_13
REMARK    2  A    between atoms: N_4  and  C_20
REMARK    3  A    between atoms: C_13  and  C_14
REMARK    4  A    between atoms: C_14  and  C_15
REMARK    5  A    between atoms: C_15  and  C_16
REMARK    6  A    between atoms: C_16  and  C_18
REMARK    7  A    between atoms: C_20  and  C_21
REMARK                            x       y       z     vdW  Elec       q    Type
REMARK                         _______ _______ _______ _____ _____    ______ ____
ROOT
ATOM      1  O   UNL     1      32.173 -23.142 -17.684  0.00  0.00    -0.272 OA
ATOM      2  O   UNL     1      36.435 -21.598 -18.894  0.00  0.00    -0.252 OA
ATOM      3  N   UNL     1      34.298 -22.362 -18.312  0.00  0.00    -0.212 N 
ATOM      4  N   UNL     1      33.408 -23.823 -15.045  0.00  0.00    -0.240 NA
ATOM      5  N   UNL     1      36.151 -22.478 -16.758  0.00  0.00    -0.228 N 
ATOM      6  N   UNL     1      35.556 -23.453 -14.578  0.00  0.00    -0.240 NA
ATOM      7  C   UNL     1      33.952 -23.261 -16.165  0.00  0.00    +0.192 C 
ATOM      8  C   UNL     1      35.265 -23.045 -15.852  0.00  0.00    +0.136 C 
ATOM      9  C   UNL     1      33.354 -22.939 -17.420  0.00  0.00    +0.254 C 
ATOM     10  C   UNL     1      35.692 -22.108 -18.046  0.00  0.00    +0.318 C 
ATOM     11  C   UNL     1      34.413 -23.918 -14.118  0.00  0.00    +0.203 C 
ATOM     12  C   UNL     1      37.545 -22.264 -16.386  0.00  0.00    +0.123 C 
ENDROOT
BRANCH   3  13
ATOM     13  C   UNL     1      33.806 -21.989 -19.634  0.00  0.00    +0.103 C 
BRANCH  13  14
ATOM     14  C   UNL     1      33.066 -20.655 -19.624  0.00  0.00    +0.022 C 
BRANCH  14  15
ATOM     15  C   UNL     1      32.967 -20.029 -21.021  0.00  0.00    +0.010 C 
BRANCH  15  16
ATOM     16  C   UNL     1      34.339 -19.782 -21.646  0.00  0.00    +0.065 C 
BRANCH  16  18
ATOM     17  O   UNL     1      36.080 -18.616 -20.436  0.00  0.00    -0.296 OA
ATOM     18  C   UNL     1      35.049 -18.552 -21.104  0.00  0.00    +0.151 C 
ATOM     19  C   UNL     1      34.439 -17.223 -21.462  0.00  0.00    +0.072 C 
ENDBRANCH  16  18
ENDBRANCH  15  16
ENDBRANCH  14  15
ENDBRANCH  13  14
ENDBRANCH   3  13
BRANCH   4  20
ATOM     20  C   UNL     1      32.042 -24.246 -14.850  0.00  0.00    +0.075 C 
BRANCH  20  21
ATOM     21  C   UNL     1      31.206 -23.180 -14.145  0.00  0.00    +0.017 C 
ATOM     22  C   UNL     1      29.983 -22.804 -14.967  0.00  0.00    +0.001 C 
ENDBRANCH  20  21
ENDBRANCH   4  20
TORSDOF 7
ENDMDL
MODEL 7
REMARK VINA RESULT:      -8.2      1.399      3.853
REMARK  Name = 4938
REMARK  7 active torsions:
REMARK  status: ('A' for Active; 'I' for Inactive)
REMARK    1  A    between atoms: N_3  and  C_13
REMARK    2  A    between atoms: N_4  and  C_20
REMARK    3  A    between atoms: C_13  and  C_14
REMARK    4  A    between atoms: C_14  and  C_15
REMARK    5  A    between atoms: C_15  and  C_16
REMARK    6  A    between atoms: C_16  and  C_18
REMARK    7  A    between atoms: C_20  and  C_21
REMARK                            x       y       z     vdW  Elec       q    Type
REMARK                         _______ _______ _______ _____ _____    ______ ____
ROOT
ATOM      1  O   UNL     1      33.944 -24.030 -14.561  0.00  0.00    -0.272 OA
ATOM      2  O   UNL     1      32.685 -22.482 -18.808  0.00  0.00    -0.252 OA
ATOM      3  N   UNL     1      33.290 -23.262 -16.683  0.00  0.00    -0.212 N 
ATOM      4  N   UNL     1      36.682 -23.041 -15.253  0.00  0.00    -0.240 NA
ATOM      5  N   UNL     1      34.902 -22.214 -18.155  0.00  0.00    -0.228 N 
ATOM      6  N   UNL     1      37.166 -22.067 -17.199  0.00  0.00    -0.240 NA
ATOM      7  C   UNL     1      35.518 -23.017 -15.969  0.00  0.00    +0.192 C 
ATOM      8  C   UNL     1      35.843 -22.417 -17.154  0.00  0.00    +0.136 C 
ATOM      9  C   UNL     1      34.216 -23.492 -15.631  0.00  0.00    +0.254 C 
ATOM     10  C   UNL     1      33.565 -22.637 -17.953  0.00  0.00    +0.318 C 
ATOM     11  C   UNL     1      37.644 -22.457 -16.036  0.00  0.00    +0.203 C 
ATOM     12  C   UNL     1      35.288 -21.570 -19.405  0.00  0.00    +0.123 C 
ENDROOT
BRANCH   3  13
ATOM     13  C   UNL     1      31.918 -23.706 -16.456  0.00  0.00    +0.103 C 
BRANCH  13  14
ATOM     14  C   UNL     1      31.138 -22.748 -15.561  0.00  0.00    +0.022 C 
BRANCH  14  15
ATOM     15  C   UNL     1      29.950 -23.429 -14.869  0.00  0.00    +0.010 C 
BRANCH  15  16
ATOM     16  C   UNL     1      29.150 -24.313 -15.824  0.00  0.00    +0.065 C 
BRANCH  16  18
ATOM     17  O   UNL     1      27.667 -23.916 -17.695  0.00  0.00    -0.296 OA
ATOM     18  C   UNL     1      28.061 -23.570 -16.582  0.00  0.00    +0.151 C 
ATOM     19  C   UNL     1      27.449 -22.390 -15.875  0.00  0.00    +0.072 C 
ENDBRANCH  16  18
ENDBRANCH  15  16
ENDBRANCH  14  15
ENDBRANCH  13  14
ENDBRANCH   3  13
BRANCH   4  20
ATOM     20  C   UNL     1      36.886 -23.572 -13.927  0.00  0.00    +0.075 C 
BRANCH  20  21
ATOM     21  C   UNL     1      37.411 -25.006 -13.956  0.00  0.00    +0.017 C 
ATOM     22  C   UNL     1      38.370 -25.268 -12.807  0.00  0.00    +0.001 C 
ENDBRANCH  20  21
ENDBRANCH   4  20
TORSDOF 7
ENDMDL
MODEL 8
REMARK VINA RESULT:      -8.1      2.402      5.898
REMARK  Name = 4938
REMARK  7 active torsions:
REMARK  status: ('A' for Active; 'I' for Inactive)
REMARK    1  A    between atoms: N_3  and  C_13
REMARK    2  A    between atoms: N_4  and  C_20
REMARK    3  A    between atoms: C_13  and  C_14
REMARK    4  A    between atoms: C_14  and  C_15
REMARK    5  A    between atoms: C_15  and  C_16
REMARK    6  A    between atoms: C_16  and  C_18
REMARK    7  A    between atoms: C_20  and  C_21
REMARK                            x       y       z     vdW  Elec       q    Type
REMARK                         _______ _______ _______ _____ _____    ______ ____
ROOT
ATOM      1  O   UNL     1      36.687 -22.852 -15.734  0.00  0.00    -0.272 OA
ATOM      2  O   UNL     1      32.877 -24.425 -13.493  0.00  0.00    -0.252 OA
ATOM      3  N   UNL     1      34.793 -23.644 -14.591  0.00  0.00    -0.212 N 
ATOM      4  N   UNL     1      34.853 -22.348 -18.043  0.00  0.00    -0.240 NA
ATOM      5  N   UNL     1      32.629 -23.661 -15.677  0.00  0.00    -0.228 N 
ATOM      6  N   UNL     1      32.670 -22.796 -17.980  0.00  0.00    -0.240 NA
ATOM      7  C   UNL     1      34.602 -22.858 -16.801  0.00  0.00    +0.192 C 
ATOM      8  C   UNL     1      33.261 -23.123 -16.790  0.00  0.00    +0.136 C 
ATOM      9  C   UNL     1      35.484 -23.096 -15.704  0.00  0.00    +0.254 C 
ATOM     10  C   UNL     1      33.386 -23.947 -14.514  0.00  0.00    +0.318 C 
ATOM     11  C   UNL     1      33.659 -22.330 -18.715  0.00  0.00    +0.203 C 
ATOM     12  C   UNL     1      31.195 -23.930 -15.705  0.00  0.00    +0.123 C 
ENDROOT
BRANCH   3  13
ATOM     13  C   UNL     1      35.590 -23.933 -13.403  0.00  0.00    +0.103 C 
BRANCH  13  14
ATOM     14  C   UNL     1      36.158 -25.349 -13.414  0.00  0.00    +0.022 C 
BRANCH  14  15
ATOM     15  C   UNL     1      37.369 -25.502 -12.484  0.00  0.00    +0.010 C 
BRANCH  15  16
ATOM     16  C   UNL     1      38.656 -24.975 -13.115  0.00  0.00    +0.065 C 
BRANCH  16  18
ATOM     17  O   UNL     1      38.753 -26.973 -14.477  0.00  0.00    -0.296 OA
ATOM     18  C   UNL     1      39.200 -25.853 -14.230  0.00  0.00    +0.151 C 
ATOM     19  C   UNL     1      40.308 -25.261 -15.060  0.00  0.00    +0.072 C 
ENDBRANCH  16  18
ENDBRANCH  15  16
ENDBRANCH  14  15
ENDBRANCH  13  14
ENDBRANCH   3  13
BRANCH   4  20
ATOM     20  C   UNL     1      36.121 -21.906 -18.571  0.00  0.00    +0.075 C 
BRANCH  20  21
ATOM     21  C   UNL     1      36.042 -21.582 -20.061  0.00  0.00    +0.017 C 
ATOM     22  C   UNL     1      36.307 -20.108 -20.322  0.00  0.00    +0.001 C 
ENDBRANCH  20  21
ENDBRANCH   4  20
TORSDOF 7
ENDMDL
MODEL 9
REMARK VINA RESULT:      -8.0      2.504      5.896
REMARK  Name = 4938
REMARK  7 active torsions:
REMARK  status: ('A' for Active; 'I' for Inactive)
REMARK    1  A    between atoms: N_3  and  C_13
REMARK    2  A    between atoms: N_4  and  C_20
REMARK    3  A    between atoms: C_13  and  C_14
REMARK    4  A    between atoms: C_14  and  C_15
REMARK    5  A    between atoms: C_15  and  C_16
REMARK    6  A    between atoms: C_16  and  C_18
REMARK    7  A    between atoms: C_20  and  C_21
REMARK                            x       y       z     vdW  Elec       q    Type
REMARK                         _______ _______ _______ _____ _____    ______ ____
ROOT
ATOM      1  O   UNL     1      37.146 -22.031 -17.418  0.00  0.00    -0.272 OA
ATOM      2  O   UNL     1      34.080 -24.018 -14.475  0.00  0.00    -0.252 OA
ATOM      3  N   UNL     1      35.630 -23.029 -15.927  0.00  0.00    -0.212 N 
ATOM      4  N   UNL     1      34.814 -21.669 -19.256  0.00  0.00    -0.240 NA
ATOM      5  N   UNL     1      33.291 -23.241 -16.521  0.00  0.00    -0.228 N 
ATOM      6  N   UNL     1      32.748 -22.332 -18.743  0.00  0.00    -0.240 NA
ATOM      7  C   UNL     1      34.889 -22.224 -18.011  0.00  0.00    +0.192 C 
ATOM      8  C   UNL     1      33.613 -22.622 -17.722  0.00  0.00    +0.136 C 
ATOM      9  C   UNL     1      36.007 -22.393 -17.140  0.00  0.00    +0.254 C 
ATOM     10  C   UNL     1      34.307 -23.472 -15.561  0.00  0.00    +0.318 C 
ATOM     11  C   UNL     1      33.505 -21.757 -19.654  0.00  0.00    +0.203 C 
ATOM     12  C   UNL     1      31.918 -23.651 -16.251  0.00  0.00    +0.123 C 
ENDROOT
BRANCH   3  13
ATOM     13  C   UNL     1      36.690 -23.259 -14.951  0.00  0.00    +0.103 C 
BRANCH  13  14
ATOM     14  C   UNL     1      37.243 -24.680 -15.018  0.00  0.00    +0.022 C 
BRANCH  14  15
ATOM     15  C   UNL     1      38.502 -24.859 -14.161  0.00  0.00    +0.010 C 
BRANCH  15  16
ATOM     16  C   UNL     1      38.172 -25.215 -12.712  0.00  0.00    +0.065 C 
BRANCH  16  18
ATOM     17  O   UNL     1      38.721 -23.129 -11.614  0.00  0.00    -0.296 OA
ATOM     18  C   UNL     1      37.888 -24.007 -11.833  0.00  0.00    +0.151 C 
ATOM     19  C   UNL     1      36.498 -23.917 -11.261  0.00  0.00    +0.072 C 
ENDBRANCH  16  18
ENDBRANCH  15  16
ENDBRANCH  14  15
ENDBRANCH  13  14
ENDBRANCH   3  13
BRANCH   4  20
ATOM     20  C   UNL     1      35.890 -21.092 -20.027  0.00  0.00    +0.075 C 
BRANCH  20  21
ATOM     21  C   UNL     1      35.389 -20.048 -21.022  0.00  0.00    +0.017 C 
ATOM     22  C   UNL     1      36.319 -18.847 -21.079  0.00  0.00    +0.001 C 
ENDBRANCH  20  21
ENDBRANCH   4  20
TORSDOF 7
ENDMDL
