MODEL 1
REMARK VINA RESULT:      -9.8      0.000      0.000
REMARK  Name = 5189
REMARK  3 active torsions:
REMARK  status: ('A' for Active; 'I' for Inactive)
REMARK    1  A    between atoms: C_16  and  C_23
REMARK    2  A    between atoms: C_23  and  O_24
REMARK    3  A    between atoms: O_24  and  C_25
REMARK                            x       y       z     vdW  Elec       q    Type
REMARK                         _______ _______ _______ _____ _____    ______ ____
ROOT
ATOM      1  S   UNL     1      34.946  -9.260 -24.371  0.00  0.00    -0.120 S 
ATOM      2  S   UNL     1      34.241 -18.154 -24.143  0.00  0.00    -0.059 S 
ATOM      3  N   UNL     1      33.788 -12.869 -23.579  0.00  0.00    -0.283 N 
ATOM      4  N   UNL     1      34.290 -15.673 -23.110  0.00  0.00    -0.275 N 
ATOM      5  N   UNL     1      32.624 -10.892 -23.141  0.00  0.00    -0.394 NA
ATOM      6  N   UNL     1      34.981 -17.520 -21.748  0.00  0.00    -0.378 NA
ATOM      7  C   UNL     1      34.236 -13.750 -24.653  0.00  0.00    +0.114 C 
ATOM      8  C   UNL     1      33.605 -13.462 -22.258  0.00  0.00    +0.114 C 
ATOM      9  C   UNL     1      33.791 -15.191 -24.401  0.00  0.00    +0.115 C 
ATOM     10  C   UNL     1      34.524 -14.669 -22.067  0.00  0.00    +0.115 C 
ATOM     11  C   UNL     1      33.547 -11.535 -23.803  0.00  0.00    +0.171 C 
ATOM     12  C   UNL     1      34.531 -17.013 -22.884  0.00  0.00    +0.211 C 
ATOM     13  C   UNL     1      34.381 -10.890 -24.892  0.00  0.00    +0.133 C 
ATOM     14  C   UNL     1      32.392  -9.519 -23.352  0.00  0.00    +0.124 C 
ATOM     15  C   UNL     1      33.358  -8.639 -23.861  0.00  0.00    +0.122 C 
ATOM     16  C   UNL     1      35.104 -18.890 -21.876  0.00  0.00    +0.198 C 
ATOM     17  C   UNL     1      34.751 -19.416 -23.100  0.00  0.00    +0.132 C 
ATOM     18  C   UNL     1      31.148  -9.001 -22.964  0.00  0.00    +0.029 C 
ATOM     19  C   UNL     1      33.083  -7.270 -23.972  0.00  0.00    -0.009 C 
ATOM     20  C   UNL     1      30.870  -7.639 -23.086  0.00  0.00    +0.002 C 
ATOM     21  C   UNL     1      31.838  -6.773 -23.587  0.00  0.00    -0.003 C 
ENDROOT
BRANCH  16  23
ATOM     22  O   UNL     1      36.685 -19.528 -20.232  0.00  0.00    -0.242 OA
ATOM     23  C   UNL     1      35.576 -19.679 -20.773  0.00  0.00    +0.368 C 
BRANCH  23  24
ATOM     24  O   UNL     1      34.686 -20.644 -20.346  0.00  0.00    -0.444 OA
BRANCH  24  25
ATOM     25  C   UNL     1      35.197 -21.668 -19.486  0.00  0.00    +0.209 C 
ATOM     26  C   UNL     1      34.037 -22.422 -18.873  0.00  0.00    +0.051 C 
ENDBRANCH  24  25
ENDBRANCH  23  24
ENDBRANCH  16  23
TORSDOF 3
ENDMDL
MODEL 2
REMARK VINA RESULT:      -8.7      1.613      2.047
REMARK  Name = 5189
REMARK  3 active torsions:
REMARK  status: ('A' for Active; 'I' for Inactive)
REMARK    1  A    between atoms: C_16  and  C_23
REMARK    2  A    between atoms: C_23  and  O_24
REMARK    3  A    between atoms: O_24  and  C_25
REMARK                            x       y       z     vdW  Elec       q    Type
REMARK                         _______ _______ _______ _____ _____    ______ ____
ROOT
ATOM      1  S   UNL     1      34.713  -7.706 -23.620  0.00  0.00    -0.120 S 
ATOM      2  S   UNL     1      34.036 -16.337 -25.785  0.00  0.00    -0.059 S 
ATOM      3  N   UNL     1      33.443 -11.343 -24.007  0.00  0.00    -0.283 N 
ATOM      4  N   UNL     1      33.859 -14.195 -24.170  0.00  0.00    -0.275 N 
ATOM      5  N   UNL     1      32.202  -9.487 -23.322  0.00  0.00    -0.394 NA
ATOM      6  N   UNL     1      34.274 -16.351 -23.210  0.00  0.00    -0.378 NA
ATOM      7  C   UNL     1      34.104 -11.949 -25.159  0.00  0.00    +0.114 C 
ATOM      8  C   UNL     1      33.002 -12.237 -22.940  0.00  0.00    +0.114 C 
ATOM      9  C   UNL     1      33.627 -13.385 -25.370  0.00  0.00    +0.115 C 
ATOM     10  C   UNL     1      33.872 -13.493 -22.883  0.00  0.00    +0.115 C 
ATOM     11  C   UNL     1      33.244  -9.985 -23.929  0.00  0.00    +0.171 C 
ATOM     12  C   UNL     1      34.059 -15.558 -24.247  0.00  0.00    +0.211 C 
ATOM     13  C   UNL     1      34.275  -9.128 -24.636  0.00  0.00    +0.133 C 
ATOM     14  C   UNL     1      32.008  -8.096 -23.221  0.00  0.00    +0.124 C 
ATOM     15  C   UNL     1      33.051  -7.160 -23.291  0.00  0.00    +0.122 C 
ATOM     16  C   UNL     1      34.429 -17.650 -23.652  0.00  0.00    +0.198 C 
ATOM     17  C   UNL     1      34.333 -17.840 -25.015  0.00  0.00    +0.132 C 
ATOM     18  C   UNL     1      30.708  -7.635 -22.967  0.00  0.00    +0.029 C 
ATOM     19  C   UNL     1      32.795  -5.796 -23.105  0.00  0.00    -0.009 C 
ATOM     20  C   UNL     1      30.451  -6.274 -22.794  0.00  0.00    +0.002 C 
ATOM     21  C   UNL     1      31.495  -5.356 -22.860  0.00  0.00    -0.003 C 
ENDROOT
BRANCH  16  23
ATOM     22  O   UNL     1      35.186 -19.802 -23.014  0.00  0.00    -0.242 OA
ATOM     23  C   UNL     1      34.675 -18.709 -22.714  0.00  0.00    +0.368 C 
BRANCH  23  24
ATOM     24  O   UNL     1      34.292 -18.418 -21.420  0.00  0.00    -0.444 OA
BRANCH  24  25
ATOM     25  C   UNL     1      34.137 -19.522 -20.522  0.00  0.00    +0.209 C 
ATOM     26  C   UNL     1      32.729 -20.063 -20.642  0.00  0.00    +0.051 C 
ENDBRANCH  24  25
ENDBRANCH  23  24
ENDBRANCH  16  23
TORSDOF 3
ENDMDL
MODEL 3
REMARK VINA RESULT:      -8.3      3.722     10.203
REMARK  Name = 5189
REMARK  3 active torsions:
REMARK  status: ('A' for Active; 'I' for Inactive)
REMARK    1  A    between atoms: C_16  and  C_23
REMARK    2  A    between atoms: C_23  and  O_24
REMARK    3  A    between atoms: O_24  and  C_25
REMARK                            x       y       z     vdW  Elec       q    Type
REMARK                         _______ _______ _______ _____ _____    ______ ____
ROOT
ATOM      1  S   UNL     1      32.831 -20.126 -20.624  0.00  0.00    -0.120 S 
ATOM      2  S   UNL     1      34.057 -12.906 -25.725  0.00  0.00    -0.059 S 
ATOM      3  N   UNL     1      34.318 -16.937 -22.242  0.00  0.00    -0.283 N 
ATOM      4  N   UNL     1      34.071 -14.322 -23.441  0.00  0.00    -0.275 N 
ATOM      5  N   UNL     1      35.433 -18.473 -20.881  0.00  0.00    -0.394 NA
ATOM      6  N   UNL     1      33.759 -11.949 -23.342  0.00  0.00    -0.378 NA
ATOM      7  C   UNL     1      33.720 -16.761 -23.562  0.00  0.00    +0.114 C 
ATOM      8  C   UNL     1      34.785 -15.739 -21.551  0.00  0.00    +0.114 C 
ATOM      9  C   UNL     1      34.284 -15.522 -24.257  0.00  0.00    +0.115 C 
ATOM     10  C   UNL     1      33.988 -14.509 -21.988  0.00  0.00    +0.115 C 
ATOM     11  C   UNL     1      34.437 -18.182 -21.671  0.00  0.00    +0.171 C 
ATOM     12  C   UNL     1      33.953 -13.073 -24.013  0.00  0.00    +0.211 C 
ATOM     13  C   UNL     1      33.374 -19.189 -22.065  0.00  0.00    +0.133 C 
ATOM     14  C   UNL     1      35.544 -19.740 -20.277  0.00  0.00    +0.124 C 
ATOM     15  C   UNL     1      34.450 -20.590 -20.050  0.00  0.00    +0.122 C 
ATOM     16  C   UNL     1      33.689 -10.893 -24.229  0.00  0.00    +0.198 C 
ATOM     17  C   UNL     1      33.829 -11.214 -25.562  0.00  0.00    +0.132 C 
ATOM     18  C   UNL     1      36.809 -20.136 -19.819  0.00  0.00    +0.029 C 
ATOM     19  C   UNL     1      34.623 -21.804 -19.373  0.00  0.00    -0.009 C 
ATOM     20  C   UNL     1      36.983 -21.352 -19.155  0.00  0.00    +0.002 C 
ATOM     21  C   UNL     1      35.889 -22.183 -18.930  0.00  0.00    -0.003 C 
ENDROOT
BRANCH  16  23
ATOM     22  O   UNL     1      32.370  -9.084 -23.457  0.00  0.00    -0.242 OA
ATOM     23  C   UNL     1      33.483  -9.556 -23.746  0.00  0.00    +0.368 C 
BRANCH  23  24
ATOM     24  O   UNL     1      34.640  -8.813 -23.626  0.00  0.00    -0.444 OA
BRANCH  24  25
ATOM     25  C   UNL     1      34.492  -7.404 -23.419  0.00  0.00    +0.209 C 
ATOM     26  C   UNL     1      34.541  -6.701 -24.759  0.00  0.00    +0.051 C 
ENDBRANCH  24  25
ENDBRANCH  23  24
ENDBRANCH  16  23
TORSDOF 3
ENDMDL
MODEL 4
REMARK VINA RESULT:      -8.3      4.676     10.641
REMARK  Name = 5189
REMARK  3 active torsions:
REMARK  status: ('A' for Active; 'I' for Inactive)
REMARK    1  A    between atoms: C_16  and  C_23
REMARK    2  A    between atoms: C_23  and  O_24
REMARK    3  A    between atoms: O_24  and  C_25
REMARK                            x       y       z     vdW  Elec       q    Type
REMARK                         _______ _______ _______ _____ _____    ______ ____
ROOT
ATOM      1  S   UNL     1      34.942 -16.214 -21.085  0.00  0.00    -0.120 S 
ATOM      2  S   UNL     1      30.601  -8.701 -23.168  0.00  0.00    -0.059 S 
ATOM      3  N   UNL     1      33.234 -13.338 -23.034  0.00  0.00    -0.283 N 
ATOM      4  N   UNL     1      32.524 -10.563 -23.401  0.00  0.00    -0.275 N 
ATOM      5  N   UNL     1      33.869 -15.421 -23.875  0.00  0.00    -0.394 NA
ATOM      6  N   UNL     1      32.999  -8.305 -24.048  0.00  0.00    -0.378 NA
ATOM      7  C   UNL     1      32.282 -12.674 -22.148  0.00  0.00    +0.114 C 
ATOM      8  C   UNL     1      33.813 -12.543 -24.112  0.00  0.00    +0.114 C 
ATOM      9  C   UNL     1      31.563 -11.535 -22.872  0.00  0.00    +0.115 C 
ATOM     10  C   UNL     1      33.863 -11.062 -23.735  0.00  0.00    +0.115 C 
ATOM     11  C   UNL     1      33.571 -14.659 -22.860  0.00  0.00    +0.171 C 
ATOM     12  C   UNL     1      32.187  -9.237 -23.577  0.00  0.00    +0.211 C 
ATOM     13  C   UNL     1      33.517 -15.168 -21.433  0.00  0.00    +0.133 C 
ATOM     14  C   UNL     1      34.237 -16.769 -23.698  0.00  0.00    +0.124 C 
ATOM     15  C   UNL     1      34.780 -17.273 -22.506  0.00  0.00    +0.122 C 
ATOM     16  C   UNL     1      32.333  -7.096 -24.090  0.00  0.00    +0.198 C 
ATOM     17  C   UNL     1      31.026  -7.112 -23.654  0.00  0.00    +0.132 C 
ATOM     18  C   UNL     1      34.116 -17.630 -24.798  0.00  0.00    +0.029 C 
ATOM     19  C   UNL     1      35.196 -18.609 -22.426  0.00  0.00    -0.009 C 
ATOM     20  C   UNL     1      34.519 -18.962 -24.713  0.00  0.00    +0.002 C 
ATOM     21  C   UNL     1      35.062 -19.451 -23.528  0.00  0.00    -0.003 C 
ENDROOT
BRANCH  16  23
ATOM     22  O   UNL     1      34.108  -5.927 -25.134  0.00  0.00    -0.242 OA
ATOM     23  C   UNL     1      33.002  -5.918 -24.567  0.00  0.00    +0.368 C 
BRANCH  23  24
ATOM     24  O   UNL     1      32.310  -4.745 -24.344  0.00  0.00    -0.444 OA
BRANCH  24  25
ATOM     25  C   UNL     1      31.912  -3.994 -25.495  0.00  0.00    +0.209 C 
ATOM     26  C   UNL     1      30.810  -3.034 -25.101  0.00  0.00    +0.051 C 
ENDBRANCH  24  25
ENDBRANCH  23  24
ENDBRANCH  16  23
TORSDOF 3
ENDMDL
MODEL 5
REMARK VINA RESULT:      -8.2      3.640      9.945
REMARK  Name = 5189
REMARK  3 active torsions:
REMARK  status: ('A' for Active; 'I' for Inactive)
REMARK    1  A    between atoms: C_16  and  C_23
REMARK    2  A    between atoms: C_23  and  O_24
REMARK    3  A    between atoms: O_24  and  C_25
REMARK                            x       y       z     vdW  Elec       q    Type
REMARK                         _______ _______ _______ _____ _____    ______ ____
ROOT
ATOM      1  S   UNL     1      32.913 -20.052 -20.867  0.00  0.00    -0.120 S 
ATOM      2  S   UNL     1      34.060 -12.527 -25.524  0.00  0.00    -0.059 S 
ATOM      3  N   UNL     1      34.331 -16.721 -22.240  0.00  0.00    -0.283 N 
ATOM      4  N   UNL     1      34.024 -14.060 -23.317  0.00  0.00    -0.275 N 
ATOM      5  N   UNL     1      35.445 -18.276 -20.902  0.00  0.00    -0.394 NA
ATOM      6  N   UNL     1      33.598 -11.710 -23.115  0.00  0.00    -0.378 NA
ATOM      7  C   UNL     1      33.793 -16.502 -23.580  0.00  0.00    +0.114 C 
ATOM      8  C   UNL     1      34.706 -15.541 -21.467  0.00  0.00    +0.114 C 
ATOM      9  C   UNL     1      34.334 -15.204 -24.181  0.00  0.00    +0.115 C 
ATOM     10  C   UNL     1      33.876 -14.327 -21.883  0.00  0.00    +0.115 C 
ATOM     11  C   UNL     1      34.478 -17.988 -21.728  0.00  0.00    +0.171 C 
ATOM     12  C   UNL     1      33.877 -12.788 -23.831  0.00  0.00    +0.211 C 
ATOM     13  C   UNL     1      33.485 -19.018 -22.228  0.00  0.00    +0.133 C 
ATOM     14  C   UNL     1      35.585 -19.568 -20.358  0.00  0.00    +0.124 C 
ATOM     15  C   UNL     1      34.521 -20.475 -20.232  0.00  0.00    +0.122 C 
ATOM     16  C   UNL     1      33.524 -10.613 -23.950  0.00  0.00    +0.198 C 
ATOM     17  C   UNL     1      33.745 -10.857 -25.289  0.00  0.00    +0.132 C 
ATOM     18  C   UNL     1      36.842 -19.932 -19.853  0.00  0.00    +0.029 C 
ATOM     19  C   UNL     1      34.716 -21.714 -19.610  0.00  0.00    -0.009 C 
ATOM     20  C   UNL     1      37.038 -21.172 -19.244  0.00  0.00    +0.002 C 
ATOM     21  C   UNL     1      35.974 -22.061 -19.120  0.00  0.00    -0.003 C 
ENDROOT
BRANCH  16  23
ATOM     22  O   UNL     1      33.888  -8.290 -23.669  0.00  0.00    -0.242 OA
ATOM     23  C   UNL     1      33.232  -9.314 -23.413  0.00  0.00    +0.368 C 
BRANCH  23  24
ATOM     24  O   UNL     1      32.141  -9.284 -22.568  0.00  0.00    -0.444 OA
BRANCH  24  25
ATOM     25  C   UNL     1      32.050  -8.182 -21.658  0.00  0.00    +0.209 C 
ATOM     26  C   UNL     1      32.382  -8.667 -20.263  0.00  0.00    +0.051 C 
ENDBRANCH  24  25
ENDBRANCH  23  24
ENDBRANCH  16  23
TORSDOF 3
ENDMDL
MODEL 6
REMARK VINA RESULT:      -8.2      4.629     10.496
REMARK  Name = 5189
REMARK  3 active torsions:
REMARK  status: ('A' for Active; 'I' for Inactive)
REMARK    1  A    between atoms: C_16  and  C_23
REMARK    2  A    between atoms: C_23  and  O_24
REMARK    3  A    between atoms: O_24  and  C_25
REMARK                            x       y       z     vdW  Elec       q    Type
REMARK                         _______ _______ _______ _____ _____    ______ ____
ROOT
ATOM      1  S   UNL     1      33.069 -16.084 -26.082  0.00  0.00    -0.120 S 
ATOM      2  S   UNL     1      34.154  -7.417 -24.252  0.00  0.00    -0.059 S 
ATOM      3  N   UNL     1      33.815 -12.740 -24.277  0.00  0.00    -0.283 N 
ATOM      4  N   UNL     1      33.338  -9.935 -23.787  0.00  0.00    -0.275 N 
ATOM      5  N   UNL     1      34.364 -14.887 -23.541  0.00  0.00    -0.394 NA
ATOM      6  N   UNL     1      32.124  -8.114 -22.812  0.00  0.00    -0.378 NA
ATOM      7  C   UNL     1      34.135 -11.729 -25.281  0.00  0.00    +0.114 C 
ATOM      8  C   UNL     1      33.243 -12.277 -23.017  0.00  0.00    +0.114 C 
ATOM      9  C   UNL     1      34.455 -10.387 -24.623  0.00  0.00    +0.115 C 
ATOM     10  C   UNL     1      32.473 -10.970 -23.212  0.00  0.00    +0.115 C 
ATOM     11  C   UNL     1      34.043 -14.075 -24.510  0.00  0.00    +0.171 C 
ATOM     12  C   UNL     1      33.109  -8.595 -23.553  0.00  0.00    +0.211 C 
ATOM     13  C   UNL     1      33.948 -14.516 -25.958  0.00  0.00    +0.133 C 
ATOM     14  C   UNL     1      34.576 -16.259 -23.773  0.00  0.00    +0.124 C 
ATOM     15  C   UNL     1      34.021 -16.957 -24.857  0.00  0.00    +0.122 C 
ATOM     16  C   UNL     1      32.196  -6.735 -22.794  0.00  0.00    +0.198 C 
ATOM     17  C   UNL     1      33.229  -6.175 -23.516  0.00  0.00    +0.132 C 
ATOM     18  C   UNL     1      35.326 -16.974 -22.827  0.00  0.00    +0.029 C 
ATOM     19  C   UNL     1      34.210 -18.339 -24.982  0.00  0.00    -0.009 C 
ATOM     20  C   UNL     1      35.524 -18.348 -22.960  0.00  0.00    +0.002 C 
ATOM     21  C   UNL     1      34.963 -19.031 -24.036  0.00  0.00    -0.003 C 
ENDROOT
BRANCH  16  23
ATOM     22  O   UNL     1      31.081  -6.044 -20.822  0.00  0.00    -0.242 OA
ATOM     23  C   UNL     1      31.232  -5.970 -22.053  0.00  0.00    +0.368 C 
BRANCH  23  24
ATOM     24  O   UNL     1      30.464  -5.126 -22.829  0.00  0.00    -0.444 OA
BRANCH  24  25
ATOM     25  C   UNL     1      30.798  -3.734 -22.804  0.00  0.00    +0.209 C 
ATOM     26  C   UNL     1      31.153  -3.286 -24.206  0.00  0.00    +0.051 C 
ENDBRANCH  24  25
ENDBRANCH  23  24
ENDBRANCH  16  23
TORSDOF 3
ENDMDL
MODEL 7
REMARK VINA RESULT:      -8.0      4.593      9.904
REMARK  Name = 5189
REMARK  3 active torsions:
REMARK  status: ('A' for Active; 'I' for Inactive)
REMARK    1  A    between atoms: C_16  and  C_23
REMARK    2  A    between atoms: C_23  and  O_24
REMARK    3  A    between atoms: O_24  and  C_25
REMARK                            x       y       z     vdW  Elec       q    Type
REMARK                         _______ _______ _______ _____ _____    ______ ____
ROOT
ATOM      1  S   UNL     1      33.032 -16.075 -26.132  0.00  0.00    -0.120 S 
ATOM      2  S   UNL     1      34.064  -7.399 -24.317  0.00  0.00    -0.059 S 
ATOM      3  N   UNL     1      33.760 -12.724 -24.334  0.00  0.00    -0.283 N 
ATOM      4  N   UNL     1      33.266  -9.921 -23.846  0.00  0.00    -0.275 N 
ATOM      5  N   UNL     1      34.326 -14.866 -23.596  0.00  0.00    -0.394 NA
ATOM      6  N   UNL     1      32.042  -8.107 -22.870  0.00  0.00    -0.378 NA
ATOM      7  C   UNL     1      34.070 -11.712 -25.340  0.00  0.00    +0.114 C 
ATOM      8  C   UNL     1      33.189 -12.263 -23.072  0.00  0.00    +0.114 C 
ATOM      9  C   UNL     1      34.384 -10.367 -24.684  0.00  0.00    +0.115 C 
ATOM     10  C   UNL     1      32.409 -10.962 -23.267  0.00  0.00    +0.115 C 
ATOM     11  C   UNL     1      33.996 -14.058 -24.566  0.00  0.00    +0.171 C 
ATOM     12  C   UNL     1      33.029  -8.583 -23.613  0.00  0.00    +0.211 C 
ATOM     13  C   UNL     1      33.901 -14.501 -26.012  0.00  0.00    +0.133 C 
ATOM     14  C   UNL     1      34.547 -16.237 -23.827  0.00  0.00    +0.124 C 
ATOM     15  C   UNL     1      33.993 -16.940 -24.908  0.00  0.00    +0.122 C 
ATOM     16  C   UNL     1      32.106  -6.728 -22.853  0.00  0.00    +0.198 C 
ATOM     17  C   UNL     1      33.133  -6.162 -23.579  0.00  0.00    +0.132 C 
ATOM     18  C   UNL     1      35.304 -16.946 -22.883  0.00  0.00    +0.029 C 
ATOM     19  C   UNL     1      34.190 -18.321 -25.033  0.00  0.00    -0.009 C 
ATOM     20  C   UNL     1      35.511 -18.319 -23.014  0.00  0.00    +0.002 C 
ATOM     21  C   UNL     1      34.951 -19.007 -24.087  0.00  0.00    -0.003 C 
ENDROOT
BRANCH  16  23
ATOM     22  O   UNL     1      30.356  -5.149 -22.622  0.00  0.00    -0.242 OA
ATOM     23  C   UNL     1      31.139  -5.968 -22.112  0.00  0.00    +0.368 C 
BRANCH  23  24
ATOM     24  O   UNL     1      31.142  -6.220 -20.755  0.00  0.00    -0.444 OA
BRANCH  24  25
ATOM     25  C   UNL     1      32.356  -6.727 -20.189  0.00  0.00    +0.209 C 
ATOM     26  C   UNL     1      32.063  -8.034 -19.484  0.00  0.00    +0.051 C 
ENDBRANCH  24  25
ENDBRANCH  23  24
ENDBRANCH  16  23
TORSDOF 3
ENDMDL
MODEL 8
REMARK VINA RESULT:      -7.9      5.154      8.481
REMARK  Name = 5189
REMARK  3 active torsions:
REMARK  status: ('A' for Active; 'I' for Inactive)
REMARK    1  A    between atoms: C_16  and  C_23
REMARK    2  A    between atoms: C_23  and  O_24
REMARK    3  A    between atoms: O_24  and  C_25
REMARK                            x       y       z     vdW  Elec       q    Type
REMARK                         _______ _______ _______ _____ _____    ______ ____
ROOT
ATOM      1  S   UNL     1      34.979 -19.361 -24.091  0.00  0.00    -0.120 S 
ATOM      2  S   UNL     1      34.456 -23.545 -16.226  0.00  0.00    -0.059 S 
ATOM      3  N   UNL     1      35.050 -20.157 -20.303  0.00  0.00    -0.283 N 
ATOM      4  N   UNL     1      35.542 -21.914 -18.065  0.00  0.00    -0.275 N 
ATOM      5  N   UNL     1      35.074 -18.043 -21.295  0.00  0.00    -0.394 NA
ATOM      6  N   UNL     1      36.973 -23.016 -16.491  0.00  0.00    -0.378 NA
ATOM      7  C   UNL     1      34.209 -21.324 -20.055  0.00  0.00    +0.114 C 
ATOM      8  C   UNL     1      36.151 -19.914 -19.375  0.00  0.00    +0.114 C 
ATOM      9  C   UNL     1      34.185 -21.675 -18.567  0.00  0.00    +0.115 C 
ATOM     10  C   UNL     1      36.639 -21.221 -18.750  0.00  0.00    +0.115 C 
ATOM     11  C   UNL     1      34.815 -19.319 -21.367  0.00  0.00    +0.171 C 
ATOM     12  C   UNL     1      35.779 -22.753 -16.997  0.00  0.00    +0.211 C 
ATOM     13  C   UNL     1      34.192 -19.967 -22.588  0.00  0.00    +0.133 C 
ATOM     14  C   UNL     1      34.855 -17.187 -22.391  0.00  0.00    +0.124 C 
ATOM     15  C   UNL     1      34.829 -17.626 -23.724  0.00  0.00    +0.122 C 
ATOM     16  C   UNL     1      36.839 -23.893 -15.432  0.00  0.00    +0.198 C 
ATOM     17  C   UNL     1      35.552 -24.292 -15.139  0.00  0.00    +0.132 C 
ATOM     18  C   UNL     1      34.728 -15.814 -22.134  0.00  0.00    +0.029 C 
ATOM     19  C   UNL     1      34.684 -16.707 -24.771  0.00  0.00    -0.009 C 
ATOM     20  C   UNL     1      34.571 -14.901 -23.177  0.00  0.00    +0.002 C 
ATOM     21  C   UNL     1      34.553 -15.347 -24.495  0.00  0.00    -0.003 C 
ENDROOT
BRANCH  16  23
ATOM     22  O   UNL     1      39.161 -24.249 -15.136  0.00  0.00    -0.242 OA
ATOM     23  C   UNL     1      37.997 -24.336 -14.709  0.00  0.00    +0.368 C 
BRANCH  23  24
ATOM     24  O   UNL     1      37.717 -24.882 -13.472  0.00  0.00    -0.444 OA
BRANCH  24  25
ATOM     25  C   UNL     1      38.274 -24.225 -12.328  0.00  0.00    +0.209 C 
ATOM     26  C   UNL     1      37.289 -23.191 -11.825  0.00  0.00    +0.051 C 
ENDBRANCH  24  25
ENDBRANCH  23  24
ENDBRANCH  16  23
TORSDOF 3
ENDMDL
MODEL 9
REMARK VINA RESULT:      -7.7      3.964     10.680
REMARK  Name = 5189
REMARK  3 active torsions:
REMARK  status: ('A' for Active; 'I' for Inactive)
REMARK    1  A    between atoms: C_16  and  C_23
REMARK    2  A    between atoms: C_23  and  O_24
REMARK    3  A    between atoms: O_24  and  C_25
REMARK                            x       y       z     vdW  Elec       q    Type
REMARK                         _______ _______ _______ _____ _____    ______ ____
ROOT
ATOM      1  S   UNL     1      33.657 -22.607 -17.946  0.00  0.00    -0.120 S 
ATOM      2  S   UNL     1      34.584 -17.487 -25.196  0.00  0.00    -0.059 S 
ATOM      3  N   UNL     1      34.969 -20.037 -20.527  0.00  0.00    -0.283 N 
ATOM      4  N   UNL     1      34.580 -18.027 -22.564  0.00  0.00    -0.275 N 
ATOM      5  N   UNL     1      36.125 -20.898 -18.689  0.00  0.00    -0.394 NA
ATOM      6  N   UNL     1      34.069 -15.806 -23.301  0.00  0.00    -0.378 NA
ATOM      7  C   UNL     1      34.438 -20.382 -21.842  0.00  0.00    +0.114 C 
ATOM      8  C   UNL     1      35.295 -18.635 -20.282  0.00  0.00    +0.114 C 
ATOM      9  C   UNL     1      34.938 -19.407 -22.908  0.00  0.00    +0.115 C 
ATOM     10  C   UNL     1      34.427 -17.713 -21.139  0.00  0.00    +0.115 C 
ATOM     11  C   UNL     1      35.156 -20.993 -19.558  0.00  0.00    +0.171 C 
ATOM     12  C   UNL     1      34.393 -17.067 -23.536  0.00  0.00    +0.211 C 
ATOM     13  C   UNL     1      34.205 -22.172 -19.606  0.00  0.00    +0.133 C 
ATOM     14  C   UNL     1      36.304 -21.864 -17.681  0.00  0.00    +0.124 C 
ATOM     15  C   UNL     1      35.272 -22.687 -17.204  0.00  0.00    +0.122 C 
ATOM     16  C   UNL     1      33.965 -15.129 -24.500  0.00  0.00    +0.198 C 
ATOM     17  C   UNL     1      34.208 -15.873 -25.636  0.00  0.00    +0.132 C 
ATOM     18  C   UNL     1      37.568 -21.955 -17.081  0.00  0.00    +0.029 C 
ATOM     19  C   UNL     1      35.504 -23.573 -16.144  0.00  0.00    -0.009 C 
ATOM     20  C   UNL     1      37.802 -22.847 -16.033  0.00  0.00    +0.002 C 
ATOM     21  C   UNL     1      36.769 -23.653 -15.563  0.00  0.00    -0.003 C 
ENDROOT
BRANCH  16  23
ATOM     22  O   UNL     1      33.381 -13.088 -25.551  0.00  0.00    -0.242 OA
ATOM     23  C   UNL     1      33.622 -13.734 -24.517  0.00  0.00    +0.368 C 
BRANCH  23  24
ATOM     24  O   UNL     1      33.578 -13.148 -23.268  0.00  0.00    -0.444 OA
BRANCH  24  25
ATOM     25  C   UNL     1      32.284 -12.874 -22.721  0.00  0.00    +0.209 C 
ATOM     26  C   UNL     1      32.250 -13.333 -21.279  0.00  0.00    +0.051 C 
ENDBRANCH  24  25
ENDBRANCH  23  24
ENDBRANCH  16  23
TORSDOF 3
ENDMDL
