MODEL 1
REMARK VINA RESULT:      -6.7      0.000      0.000
REMARK  Name = 5312804
REMARK  12 active torsions:
REMARK  status: ('A' for Active; 'I' for Inactive)
REMARK    1  A    between atoms: C_1  and  C_2
REMARK    2  A    between atoms: C_1  and  C_10
REMARK    3  A    between atoms: C_2  and  C_3
REMARK    4  A    between atoms: C_3  and  C_4
REMARK    5  A    between atoms: C_4  and  C_5
REMARK    6  A    between atoms: C_5  and  C_6
REMARK    7  A    between atoms: C_6  and  C_7
REMARK    8  A    between atoms: C_7  and  C_8
REMARK    9  A    between atoms: C_10  and  O_11
REMARK   10  A    between atoms: C_10  and  C_13
REMARK   11  A    between atoms: C_13  and  C_15
REMARK   12  A    between atoms: C_15  and  O_16
REMARK                            x       y       z     vdW  Elec       q    Type
REMARK                         _______ _______ _______ _____ _____    ______ ____
ROOT
ATOM      1  C   UNL     1      36.854 -25.375 -14.959  0.00  0.00    +0.030 C 
ENDROOT
BRANCH   1   2
ATOM      2  C   UNL     1      36.555 -23.939 -14.524  0.00  0.00    +0.002 C 
BRANCH   2   3
ATOM      3  C   UNL     1      37.049 -22.933 -15.567  0.00  0.00    +0.000 C 
BRANCH   3   4
ATOM      4  C   UNL     1      36.026 -22.649 -16.673  0.00  0.00    +0.000 C 
BRANCH   4   5
ATOM      5  C   UNL     1      36.525 -21.785 -17.836  0.00  0.00    +0.000 C 
BRANCH   5   6
ATOM      6  C   UNL     1      35.580 -21.786 -19.039  0.00  0.00    +0.000 C 
BRANCH   6   7
ATOM      7  C   UNL     1      35.992 -20.794 -20.132  0.00  0.00    +0.000 C 
BRANCH   7   8
ATOM      8  C   UNL     1      34.856 -19.962 -20.733  0.00  0.00    +0.000 C 
ATOM      9  C   UNL     1      33.471 -20.428 -20.312  0.00  0.00    +0.000 C 
ENDBRANCH   7   8
ENDBRANCH   6   7
ENDBRANCH   5   6
ENDBRANCH   4   5
ENDBRANCH   3   4
ENDBRANCH   2   3
ENDBRANCH   1   2
BRANCH   1  10
ATOM     10  C   UNL     1      37.979 -26.041 -14.157  0.00  0.00    +0.122 C 
BRANCH  10  11
ATOM     11  O   UNL     1      38.216 -27.316 -14.764  0.00  0.00    -0.384 OA
ATOM     12  H   UNL     1      38.985 -27.735 -14.346  0.00  0.00    +0.210 HD
ENDBRANCH  10  11
BRANCH  10  13
ATOM     13  C   UNL     1      39.284 -25.237 -14.174  0.00  0.00    +0.138 C 
BRANCH  13  15
ATOM     14  O   UNL     1      41.256 -26.670 -14.131  0.00  0.00    -0.250 OA
ATOM     15  C   UNL     1      40.438 -26.020 -14.766  0.00  0.00    +0.316 C 
BRANCH  15  16
ATOM     16  O   UNL     1      40.467 -25.913 -16.120  0.00  0.00    -0.480 OA
ATOM     17  H   UNL     1      40.737 -25.110 -16.522  0.00  0.00    +0.295 HD
ENDBRANCH  15  16
ENDBRANCH  13  15
ENDBRANCH  10  13
ENDBRANCH   1  10
TORSDOF 12
ENDMDL
MODEL 2
REMARK VINA RESULT:      -6.6      6.947      9.493
REMARK  Name = 5312804
REMARK  12 active torsions:
REMARK  status: ('A' for Active; 'I' for Inactive)
REMARK    1  A    between atoms: C_1  and  C_2
REMARK    2  A    between atoms: C_1  and  C_10
REMARK    3  A    between atoms: C_2  and  C_3
REMARK    4  A    between atoms: C_3  and  C_4
REMARK    5  A    between atoms: C_4  and  C_5
REMARK    6  A    between atoms: C_5  and  C_6
REMARK    7  A    between atoms: C_6  and  C_7
REMARK    8  A    between atoms: C_7  and  C_8
REMARK    9  A    between atoms: C_10  and  O_11
REMARK   10  A    between atoms: C_10  and  C_13
REMARK   11  A    between atoms: C_13  and  C_15
REMARK   12  A    between atoms: C_15  and  O_16
REMARK                            x       y       z     vdW  Elec       q    Type
REMARK                         _______ _______ _______ _____ _____    ______ ____
ROOT
ATOM      1  C   UNL     1      35.407 -18.461 -22.788  0.00  0.00    +0.030 C 
ENDROOT
BRANCH   1   2
ATOM      2  C   UNL     1      34.791 -19.059 -24.055  0.00  0.00    +0.002 C 
BRANCH   2   3
ATOM      3  C   UNL     1      34.399 -17.962 -25.048  0.00  0.00    +0.000 C 
BRANCH   3   4
ATOM      4  C   UNL     1      34.907 -16.571 -24.653  0.00  0.00    +0.000 C 
BRANCH   4   5
ATOM      5  C   UNL     1      33.828 -15.502 -24.447  0.00  0.00    +0.000 C 
BRANCH   5   6
ATOM      6  C   UNL     1      33.992 -14.723 -23.140  0.00  0.00    +0.000 C 
BRANCH   6   7
ATOM      7  C   UNL     1      32.787 -14.854 -22.203  0.00  0.00    +0.000 C 
BRANCH   7   8
ATOM      8  C   UNL     1      33.092 -15.391 -20.803  0.00  0.00    +0.000 C 
ATOM      9  C   UNL     1      34.577 -15.587 -20.536  0.00  0.00    +0.000 C 
ENDBRANCH   7   8
ENDBRANCH   6   7
ENDBRANCH   5   6
ENDBRANCH   4   5
ENDBRANCH   3   4
ENDBRANCH   2   3
ENDBRANCH   1   2
BRANCH   1  10
ATOM     10  C   UNL     1      35.250 -19.349 -21.548  0.00  0.00    +0.122 C 
BRANCH  10  11
ATOM     11  O   UNL     1      36.089 -18.788 -20.533  0.00  0.00    -0.384 OA
ATOM     12  H   UNL     1      36.439 -19.499 -19.974  0.00  0.00    +0.210 HD
ENDBRANCH  10  11
BRANCH  10  13
ATOM     13  C   UNL     1      33.810 -19.400 -21.025  0.00  0.00    +0.138 C 
BRANCH  13  15
ATOM     14  O   UNL     1      32.532 -20.805 -19.496  0.00  0.00    -0.250 OA
ATOM     15  C   UNL     1      33.590 -20.534 -20.045  0.00  0.00    +0.316 C 
BRANCH  15  16
ATOM     16  O   UNL     1      34.735 -21.234 -19.833  0.00  0.00    -0.480 OA
ATOM     17  H   UNL     1      35.558 -20.887 -20.121  0.00  0.00    +0.295 HD
ENDBRANCH  15  16
ENDBRANCH  13  15
ENDBRANCH  10  13
ENDBRANCH   1  10
TORSDOF 12
ENDMDL
MODEL 3
REMARK VINA RESULT:      -6.5      5.859      8.456
REMARK  Name = 5312804
REMARK  12 active torsions:
REMARK  status: ('A' for Active; 'I' for Inactive)
REMARK    1  A    between atoms: C_1  and  C_2
REMARK    2  A    between atoms: C_1  and  C_10
REMARK    3  A    between atoms: C_2  and  C_3
REMARK    4  A    between atoms: C_3  and  C_4
REMARK    5  A    between atoms: C_4  and  C_5
REMARK    6  A    between atoms: C_5  and  C_6
REMARK    7  A    between atoms: C_6  and  C_7
REMARK    8  A    between atoms: C_7  and  C_8
REMARK    9  A    between atoms: C_10  and  O_11
REMARK   10  A    between atoms: C_10  and  C_13
REMARK   11  A    between atoms: C_13  and  C_15
REMARK   12  A    between atoms: C_15  and  O_16
REMARK                            x       y       z     vdW  Elec       q    Type
REMARK                         _______ _______ _______ _____ _____    ______ ____
ROOT
ATOM      1  C   UNL     1      35.103 -19.201 -21.209  0.00  0.00    +0.030 C 
ENDROOT
BRANCH   1   2
ATOM      2  C   UNL     1      34.537 -19.236 -22.630  0.00  0.00    +0.002 C 
BRANCH   2   3
ATOM      3  C   UNL     1      35.437 -18.469 -23.601  0.00  0.00    +0.000 C 
BRANCH   3   4
ATOM      4  C   UNL     1      34.679 -17.866 -24.789  0.00  0.00    +0.000 C 
BRANCH   4   5
ATOM      5  C   UNL     1      34.262 -16.399 -24.639  0.00  0.00    +0.000 C 
BRANCH   5   6
ATOM      6  C   UNL     1      34.952 -15.691 -23.470  0.00  0.00    +0.000 C 
BRANCH   6   7
ATOM      7  C   UNL     1      34.152 -14.503 -22.926  0.00  0.00    +0.000 C 
BRANCH   7   8
ATOM      8  C   UNL     1      33.638 -14.654 -21.491  0.00  0.00    +0.000 C 
ATOM      9  C   UNL     1      34.521 -15.532 -20.617  0.00  0.00    +0.000 C 
ENDBRANCH   7   8
ENDBRANCH   6   7
ENDBRANCH   5   6
ENDBRANCH   4   5
ENDBRANCH   3   4
ENDBRANCH   2   3
ENDBRANCH   1   2
BRANCH   1  10
ATOM     10  C   UNL     1      35.063 -20.558 -20.496  0.00  0.00    +0.122 C 
BRANCH  10  11
ATOM     11  O   UNL     1      36.033 -20.498 -19.445  0.00  0.00    -0.384 OA
ATOM     12  H   UNL     1      36.095 -19.589 -19.114  0.00  0.00    +0.210 HD
ENDBRANCH  10  11
BRANCH  10  13
ATOM     13  C   UNL     1      33.693 -20.875 -19.885  0.00  0.00    +0.138 C 
BRANCH  13  15
ATOM     14  O   UNL     1      34.547 -23.062 -19.228  0.00  0.00    -0.250 OA
ATOM     15  C   UNL     1      33.676 -22.207 -19.164  0.00  0.00    +0.316 C 
BRANCH  15  16
ATOM     16  O   UNL     1      32.549 -22.351 -18.418  0.00  0.00    -0.480 OA
ATOM     17  H   UNL     1      31.713 -22.138 -18.786  0.00  0.00    +0.295 HD
ENDBRANCH  15  16
ENDBRANCH  13  15
ENDBRANCH  10  13
ENDBRANCH   1  10
TORSDOF 12
ENDMDL
MODEL 4
REMARK VINA RESULT:      -6.5      6.521      8.255
REMARK  Name = 5312804
REMARK  12 active torsions:
REMARK  status: ('A' for Active; 'I' for Inactive)
REMARK    1  A    between atoms: C_1  and  C_2
REMARK    2  A    between atoms: C_1  and  C_10
REMARK    3  A    between atoms: C_2  and  C_3
REMARK    4  A    between atoms: C_3  and  C_4
REMARK    5  A    between atoms: C_4  and  C_5
REMARK    6  A    between atoms: C_5  and  C_6
REMARK    7  A    between atoms: C_6  and  C_7
REMARK    8  A    between atoms: C_7  and  C_8
REMARK    9  A    between atoms: C_10  and  O_11
REMARK   10  A    between atoms: C_10  and  C_13
REMARK   11  A    between atoms: C_13  and  C_15
REMARK   12  A    between atoms: C_15  and  O_16
REMARK                            x       y       z     vdW  Elec       q    Type
REMARK                         _______ _______ _______ _____ _____    ______ ____
ROOT
ATOM      1  C   UNL     1      30.488 -24.111 -15.573  0.00  0.00    +0.030 C 
ENDROOT
BRANCH   1   2
ATOM      2  C   UNL     1      31.574 -24.082 -14.495  0.00  0.00    +0.002 C 
BRANCH   2   3
ATOM      3  C   UNL     1      32.667 -23.068 -14.840  0.00  0.00    +0.000 C 
BRANCH   3   4
ATOM      4  C   UNL     1      33.912 -23.703 -15.469  0.00  0.00    +0.000 C 
BRANCH   4   5
ATOM      5  C   UNL     1      34.420 -23.041 -16.755  0.00  0.00    +0.000 C 
BRANCH   5   6
ATOM      6  C   UNL     1      33.370 -22.997 -17.868  0.00  0.00    +0.000 C 
BRANCH   6   7
ATOM      7  C   UNL     1      33.966 -22.709 -19.250  0.00  0.00    +0.000 C 
BRANCH   7   8
ATOM      8  C   UNL     1      34.282 -21.239 -19.540  0.00  0.00    +0.000 C 
ATOM      9  C   UNL     1      33.194 -20.526 -20.329  0.00  0.00    +0.000 C 
ENDBRANCH   7   8
ENDBRANCH   6   7
ENDBRANCH   5   6
ENDBRANCH   4   5
ENDBRANCH   3   4
ENDBRANCH   2   3
ENDBRANCH   1   2
BRANCH   1  10
ATOM     10  C   UNL     1      29.816 -22.752 -15.806  0.00  0.00    +0.122 C 
BRANCH  10  11
ATOM     11  O   UNL     1      30.138 -22.360 -17.145  0.00  0.00    -0.384 OA
ATOM     12  H   UNL     1      29.356 -22.465 -17.710  0.00  0.00    +0.210 HD
ENDBRANCH  10  11
BRANCH  10  13
ATOM     13  C   UNL     1      28.291 -22.805 -15.661  0.00  0.00    +0.138 C 
BRANCH  13  15
ATOM     14  O   UNL     1      27.128 -21.405 -17.283  0.00  0.00    -0.250 OA
ATOM     15  C   UNL     1      27.575 -22.496 -16.960  0.00  0.00    +0.316 C 
BRANCH  15  16
ATOM     16  O   UNL     1      27.480 -23.599 -17.748  0.00  0.00    -0.480 OA
ATOM     17  H   UNL     1      28.252 -23.976 -18.122  0.00  0.00    +0.295 HD
ENDBRANCH  15  16
ENDBRANCH  13  15
ENDBRANCH  10  13
ENDBRANCH   1  10
TORSDOF 12
ENDMDL
MODEL 5
REMARK VINA RESULT:      -6.4      4.785      7.512
REMARK  Name = 5312804
REMARK  12 active torsions:
REMARK  status: ('A' for Active; 'I' for Inactive)
REMARK    1  A    between atoms: C_1  and  C_2
REMARK    2  A    between atoms: C_1  and  C_10
REMARK    3  A    between atoms: C_2  and  C_3
REMARK    4  A    between atoms: C_3  and  C_4
REMARK    5  A    between atoms: C_4  and  C_5
REMARK    6  A    between atoms: C_5  and  C_6
REMARK    7  A    between atoms: C_6  and  C_7
REMARK    8  A    between atoms: C_7  and  C_8
REMARK    9  A    between atoms: C_10  and  O_11
REMARK   10  A    between atoms: C_10  and  C_13
REMARK   11  A    between atoms: C_13  and  C_15
REMARK   12  A    between atoms: C_15  and  O_16
REMARK                            x       y       z     vdW  Elec       q    Type
REMARK                         _______ _______ _______ _____ _____    ______ ____
ROOT
ATOM      1  C   UNL     1      33.196 -20.242 -20.678  0.00  0.00    +0.030 C 
ENDROOT
BRANCH   1   2
ATOM      2  C   UNL     1      34.181 -19.142 -21.081  0.00  0.00    +0.002 C 
BRANCH   2   3
ATOM      3  C   UNL     1      34.477 -19.189 -22.582  0.00  0.00    +0.000 C 
BRANCH   3   4
ATOM      4  C   UNL     1      35.435 -18.087 -23.049  0.00  0.00    +0.000 C 
BRANCH   4   5
ATOM      5  C   UNL     1      34.867 -17.103 -24.078  0.00  0.00    +0.000 C 
BRANCH   5   6
ATOM      6  C   UNL     1      34.261 -15.849 -23.445  0.00  0.00    +0.000 C 
BRANCH   6   7
ATOM      7  C   UNL     1      34.770 -15.583 -22.024  0.00  0.00    +0.000 C 
BRANCH   7   8
ATOM      8  C   UNL     1      33.804 -14.831 -21.104  0.00  0.00    +0.000 C 
ATOM      9  C   UNL     1      32.548 -15.620 -20.766  0.00  0.00    +0.000 C 
ENDBRANCH   7   8
ENDBRANCH   6   7
ENDBRANCH   5   6
ENDBRANCH   4   5
ENDBRANCH   3   4
ENDBRANCH   2   3
ENDBRANCH   1   2
BRANCH   1  10
ATOM     10  C   UNL     1      33.733 -21.183 -19.593  0.00  0.00    +0.122 C 
BRANCH  10  11
ATOM     11  O   UNL     1      32.993 -22.403 -19.706  0.00  0.00    -0.384 OA
ATOM     12  H   UNL     1      33.378 -22.951 -20.408  0.00  0.00    +0.210 HD
ENDBRANCH  10  11
BRANCH  10  13
ATOM     13  C   UNL     1      35.225 -21.494 -19.753  0.00  0.00    +0.138 C 
BRANCH  13  15
ATOM     14  O   UNL     1      36.882 -21.014 -18.030  0.00  0.00    -0.250 OA
ATOM     15  C   UNL     1      35.926 -21.668 -18.421  0.00  0.00    +0.316 C 
BRANCH  15  16
ATOM     16  O   UNL     1      35.361 -22.664 -17.690  0.00  0.00    -0.480 OA
ATOM     17  H   UNL     1      35.222 -23.508 -18.075  0.00  0.00    +0.295 HD
ENDBRANCH  15  16
ENDBRANCH  13  15
ENDBRANCH  10  13
ENDBRANCH   1  10
TORSDOF 12
ENDMDL
MODEL 6
REMARK VINA RESULT:      -6.4      6.131      7.712
REMARK  Name = 5312804
REMARK  12 active torsions:
REMARK  status: ('A' for Active; 'I' for Inactive)
REMARK    1  A    between atoms: C_1  and  C_2
REMARK    2  A    between atoms: C_1  and  C_10
REMARK    3  A    between atoms: C_2  and  C_3
REMARK    4  A    between atoms: C_3  and  C_4
REMARK    5  A    between atoms: C_4  and  C_5
REMARK    6  A    between atoms: C_5  and  C_6
REMARK    7  A    between atoms: C_6  and  C_7
REMARK    8  A    between atoms: C_7  and  C_8
REMARK    9  A    between atoms: C_10  and  O_11
REMARK   10  A    between atoms: C_10  and  C_13
REMARK   11  A    between atoms: C_13  and  C_15
REMARK   12  A    between atoms: C_15  and  O_16
REMARK                            x       y       z     vdW  Elec       q    Type
REMARK                         _______ _______ _______ _____ _____    ______ ____
ROOT
ATOM      1  C   UNL     1      30.796 -23.698 -14.258  0.00  0.00    +0.030 C 
ENDROOT
BRANCH   1   2
ATOM      2  C   UNL     1      31.780 -22.776 -14.981  0.00  0.00    +0.002 C 
BRANCH   2   3
ATOM      3  C   UNL     1      32.517 -23.521 -16.096  0.00  0.00    +0.000 C 
BRANCH   3   4
ATOM      4  C   UNL     1      32.567 -22.747 -17.418  0.00  0.00    +0.000 C 
BRANCH   4   5
ATOM      5  C   UNL     1      33.785 -23.024 -18.307  0.00  0.00    +0.000 C 
BRANCH   5   6
ATOM      6  C   UNL     1      34.122 -21.865 -19.248  0.00  0.00    +0.000 C 
BRANCH   6   7
ATOM      7  C   UNL     1      32.893 -21.051 -19.669  0.00  0.00    +0.000 C 
BRANCH   7   8
ATOM      8  C   UNL     1      33.171 -19.861 -20.591  0.00  0.00    +0.000 C 
ATOM      9  C   UNL     1      34.620 -19.767 -21.043  0.00  0.00    +0.000 C 
ENDBRANCH   7   8
ENDBRANCH   6   7
ENDBRANCH   5   6
ENDBRANCH   4   5
ENDBRANCH   3   4
ENDBRANCH   2   3
ENDBRANCH   1   2
BRANCH   1  10
ATOM     10  C   UNL     1      29.925 -24.533 -15.204  0.00  0.00    +0.122 C 
BRANCH  10  11
ATOM     11  O   UNL     1      29.773 -25.819 -14.594  0.00  0.00    -0.384 OA
ATOM     12  H   UNL     1      28.930 -25.852 -14.114  0.00  0.00    +0.210 HD
ENDBRANCH  10  11
BRANCH  10  13
ATOM     13  C   UNL     1      28.535 -23.928 -15.430  0.00  0.00    +0.138 C 
BRANCH  13  15
ATOM     14  O   UNL     1      27.644 -23.986 -17.699  0.00  0.00    -0.250 OA
ATOM     15  C   UNL     1      28.339 -23.444 -16.852  0.00  0.00    +0.316 C 
BRANCH  15  16
ATOM     16  O   UNL     1      29.047 -22.309 -17.091  0.00  0.00    -0.480 OA
ATOM     17  H   UNL     1      28.865 -21.794 -17.853  0.00  0.00    +0.295 HD
ENDBRANCH  15  16
ENDBRANCH  13  15
ENDBRANCH  10  13
ENDBRANCH   1  10
TORSDOF 12
ENDMDL
MODEL 7
REMARK VINA RESULT:      -6.4      9.675     12.637
REMARK  Name = 5312804
REMARK  12 active torsions:
REMARK  status: ('A' for Active; 'I' for Inactive)
REMARK    1  A    between atoms: C_1  and  C_2
REMARK    2  A    between atoms: C_1  and  C_10
REMARK    3  A    between atoms: C_2  and  C_3
REMARK    4  A    between atoms: C_3  and  C_4
REMARK    5  A    between atoms: C_4  and  C_5
REMARK    6  A    between atoms: C_5  and  C_6
REMARK    7  A    between atoms: C_6  and  C_7
REMARK    8  A    between atoms: C_7  and  C_8
REMARK    9  A    between atoms: C_10  and  O_11
REMARK   10  A    between atoms: C_10  and  C_13
REMARK   11  A    between atoms: C_13  and  C_15
REMARK   12  A    between atoms: C_15  and  O_16
REMARK                            x       y       z     vdW  Elec       q    Type
REMARK                         _______ _______ _______ _____ _____    ______ ____
ROOT
ATOM      1  C   UNL     1      32.486 -13.532 -22.408  0.00  0.00    +0.030 C 
ENDROOT
BRANCH   1   2
ATOM      2  C   UNL     1      32.617 -14.933 -21.807  0.00  0.00    +0.002 C 
BRANCH   2   3
ATOM      3  C   UNL     1      33.557 -14.930 -20.599  0.00  0.00    +0.000 C 
BRANCH   3   4
ATOM      4  C   UNL     1      34.700 -15.944 -20.713  0.00  0.00    +0.000 C 
BRANCH   4   5
ATOM      5  C   UNL     1      34.552 -16.994 -21.820  0.00  0.00    +0.000 C 
BRANCH   5   6
ATOM      6  C   UNL     1      35.599 -18.107 -21.742  0.00  0.00    +0.000 C 
BRANCH   6   7
ATOM      7  C   UNL     1      35.099 -19.357 -21.009  0.00  0.00    +0.000 C 
BRANCH   7   8
ATOM      8  C   UNL     1      33.579 -19.533 -20.962  0.00  0.00    +0.000 C 
ATOM      9  C   UNL     1      33.125 -20.662 -20.049  0.00  0.00    +0.000 C 
ENDBRANCH   7   8
ENDBRANCH   6   7
ENDBRANCH   5   6
ENDBRANCH   4   5
ENDBRANCH   3   4
ENDBRANCH   2   3
ENDBRANCH   1   2
BRANCH   1  10
ATOM     10  C   UNL     1      33.016 -13.425 -23.843  0.00  0.00    +0.122 C 
BRANCH  10  11
ATOM     11  O   UNL     1      34.187 -12.603 -23.788  0.00  0.00    -0.384 OA
ATOM     12  H   UNL     1      34.113 -11.891 -24.442  0.00  0.00    +0.210 HD
ENDBRANCH  10  11
BRANCH  10  13
ATOM     13  C   UNL     1      33.394 -14.782 -24.447  0.00  0.00    +0.138 C 
BRANCH  13  15
ATOM     14  O   UNL     1      33.175 -15.825 -26.640  0.00  0.00    -0.250 OA
ATOM     15  C   UNL     1      33.217 -14.816 -25.951  0.00  0.00    +0.316 C 
BRANCH  15  16
ATOM     16  O   UNL     1      33.111 -13.563 -26.465  0.00  0.00    -0.480 OA
ATOM     17  H   UNL     1      33.883 -13.079 -26.685  0.00  0.00    +0.295 HD
ENDBRANCH  15  16
ENDBRANCH  13  15
ENDBRANCH  10  13
ENDBRANCH   1  10
TORSDOF 12
ENDMDL
MODEL 8
REMARK VINA RESULT:      -6.3      2.989      4.204
REMARK  Name = 5312804
REMARK  12 active torsions:
REMARK  status: ('A' for Active; 'I' for Inactive)
REMARK    1  A    between atoms: C_1  and  C_2
REMARK    2  A    between atoms: C_1  and  C_10
REMARK    3  A    between atoms: C_2  and  C_3
REMARK    4  A    between atoms: C_3  and  C_4
REMARK    5  A    between atoms: C_4  and  C_5
REMARK    6  A    between atoms: C_5  and  C_6
REMARK    7  A    between atoms: C_6  and  C_7
REMARK    8  A    between atoms: C_7  and  C_8
REMARK    9  A    between atoms: C_10  and  O_11
REMARK   10  A    between atoms: C_10  and  C_13
REMARK   11  A    between atoms: C_13  and  C_15
REMARK   12  A    between atoms: C_15  and  O_16
REMARK                            x       y       z     vdW  Elec       q    Type
REMARK                         _______ _______ _______ _____ _____    ______ ____
ROOT
ATOM      1  C   UNL     1      36.437 -25.883 -14.910  0.00  0.00    +0.030 C 
ENDROOT
BRANCH   1   2
ATOM      2  C   UNL     1      36.279 -24.380 -15.149  0.00  0.00    +0.002 C 
BRANCH   2   3
ATOM      3  C   UNL     1      34.803 -23.975 -15.158  0.00  0.00    +0.000 C 
BRANCH   3   4
ATOM      4  C   UNL     1      34.391 -23.198 -16.414  0.00  0.00    +0.000 C 
BRANCH   4   5
ATOM      5  C   UNL     1      32.919 -23.323 -16.821  0.00  0.00    +0.000 C 
BRANCH   5   6
ATOM      6  C   UNL     1      31.954 -23.227 -15.637  0.00  0.00    +0.000 C 
BRANCH   6   7
ATOM      7  C   UNL     1      30.703 -24.096 -15.805  0.00  0.00    +0.000 C 
BRANCH   7   8
ATOM      8  C   UNL     1      30.477 -25.147 -14.716  0.00  0.00    +0.000 C 
ATOM      9  C   UNL     1      31.473 -25.062 -13.570  0.00  0.00    +0.000 C 
ENDBRANCH   7   8
ENDBRANCH   6   7
ENDBRANCH   5   6
ENDBRANCH   4   5
ENDBRANCH   3   4
ENDBRANCH   2   3
ENDBRANCH   1   2
BRANCH   1  10
ATOM     10  C   UNL     1      37.736 -26.259 -14.186  0.00  0.00    +0.122 C 
BRANCH  10  11
ATOM     11  O   UNL     1      38.148 -27.524 -14.714  0.00  0.00    -0.384 OA
ATOM     12  H   UNL     1      38.429 -28.101 -13.987  0.00  0.00    +0.210 HD
ENDBRANCH  10  11
BRANCH  10  13
ATOM     13  C   UNL     1      38.862 -25.242 -14.408  0.00  0.00    +0.138 C 
BRANCH  13  15
ATOM     14  O   UNL     1      40.961 -26.412 -13.993  0.00  0.00    -0.250 OA
ATOM     15  C   UNL     1      40.174 -25.903 -14.778  0.00  0.00    +0.316 C 
BRANCH  15  16
ATOM     16  O   UNL     1      40.387 -25.863 -16.120  0.00  0.00    -0.480 OA
ATOM     17  H   UNL     1      41.262 -25.820 -16.455  0.00  0.00    +0.295 HD
ENDBRANCH  15  16
ENDBRANCH  13  15
ENDBRANCH  10  13
ENDBRANCH   1  10
TORSDOF 12
ENDMDL
MODEL 9
REMARK VINA RESULT:      -6.3      3.020      5.180
REMARK  Name = 5312804
REMARK  12 active torsions:
REMARK  status: ('A' for Active; 'I' for Inactive)
REMARK    1  A    between atoms: C_1  and  C_2
REMARK    2  A    between atoms: C_1  and  C_10
REMARK    3  A    between atoms: C_2  and  C_3
REMARK    4  A    between atoms: C_3  and  C_4
REMARK    5  A    between atoms: C_4  and  C_5
REMARK    6  A    between atoms: C_5  and  C_6
REMARK    7  A    between atoms: C_6  and  C_7
REMARK    8  A    between atoms: C_7  and  C_8
REMARK    9  A    between atoms: C_10  and  O_11
REMARK   10  A    between atoms: C_10  and  C_13
REMARK   11  A    between atoms: C_13  and  C_15
REMARK   12  A    between atoms: C_15  and  O_16
REMARK                            x       y       z     vdW  Elec       q    Type
REMARK                         _______ _______ _______ _____ _____    ______ ____
ROOT
ATOM      1  C   UNL     1      35.909 -21.689 -18.492  0.00  0.00    +0.030 C 
ENDROOT
BRANCH   1   2
ATOM      2  C   UNL     1      36.556 -21.436 -19.855  0.00  0.00    +0.002 C 
BRANCH   2   3
ATOM      3  C   UNL     1      36.058 -20.125 -20.467  0.00  0.00    +0.000 C 
BRANCH   3   4
ATOM      4  C   UNL     1      34.541 -20.090 -20.684  0.00  0.00    +0.000 C 
BRANCH   4   5
ATOM      5  C   UNL     1      34.050 -19.177 -21.813  0.00  0.00    +0.000 C 
BRANCH   5   6
ATOM      6  C   UNL     1      35.114 -18.911 -22.881  0.00  0.00    +0.000 C 
BRANCH   6   7
ATOM      7  C   UNL     1      34.544 -18.862 -24.302  0.00  0.00    +0.000 C 
BRANCH   7   8
ATOM      8  C   UNL     1      34.712 -17.529 -25.037  0.00  0.00    +0.000 C 
ATOM      9  C   UNL     1      34.763 -16.325 -24.109  0.00  0.00    +0.000 C 
ENDBRANCH   7   8
ENDBRANCH   6   7
ENDBRANCH   5   6
ENDBRANCH   4   5
ENDBRANCH   3   4
ENDBRANCH   2   3
ENDBRANCH   1   2
BRANCH   1  10
ATOM     10  C   UNL     1      36.921 -21.928 -17.364  0.00  0.00    +0.122 C 
BRANCH  10  11
ATOM     11  O   UNL     1      37.390 -20.639 -16.954  0.00  0.00    -0.384 OA
ATOM     12  H   UNL     1      36.762 -19.959 -17.245  0.00  0.00    +0.210 HD
ENDBRANCH  10  11
BRANCH  10  13
ATOM     13  C   UNL     1      36.311 -22.640 -16.152  0.00  0.00    +0.138 C 
BRANCH  13  15
ATOM     14  O   UNL     1      37.178 -23.735 -14.153  0.00  0.00    -0.250 OA
ATOM     15  C   UNL     1      37.360 -23.302 -15.282  0.00  0.00    +0.316 C 
BRANCH  15  16
ATOM     16  O   UNL     1      38.562 -23.359 -15.912  0.00  0.00    -0.480 OA
ATOM     17  H   UNL     1      38.677 -23.924 -16.652  0.00  0.00    +0.295 HD
ENDBRANCH  15  16
ENDBRANCH  13  15
ENDBRANCH  10  13
ENDBRANCH   1  10
TORSDOF 12
ENDMDL
