MODEL 1
REMARK VINA RESULT:      -6.6      0.000      0.000
REMARK  Name = 123935
REMARK  8 active torsions:
REMARK  status: ('A' for Active; 'I' for Inactive)
REMARK    1  A    between atoms: CA_1  and  N_3
REMARK    2  A    between atoms: CA_1  and  C_13
REMARK    3  A    between atoms: CA_1  and  CB_16
REMARK    4  A    between atoms: C_4  and  CA_6
REMARK    5  A    between atoms: CA_6  and  N_8
REMARK    6  A    between atoms: C_13  and  O_14
REMARK    7  A    between atoms: CB_16  and  CG_17
REMARK    8  A    between atoms: CG_17  and  CD_20
REMARK                            x       y       z     vdW  Elec       q    Type
REMARK                         _______ _______ _______ _____ _____    ______ ____
ROOT
ATOM      1  CA  GLN A   2      38.895 -25.150 -14.344  0.00  0.00    +0.172 C 
ENDROOT
BRANCH   1   3
ATOM      2  O   ALA A   1      37.401 -22.702 -14.100  0.00  0.00    -0.277 OA
ATOM      3  N   GLN A   2      38.224 -24.437 -15.401  0.00  0.00    -0.298 N 
ATOM      4  C   ALA A   1      37.523 -23.256 -15.191  0.00  0.00    +0.202 C 
ATOM      5  H   GLN A   2      38.264 -24.803 -16.315  0.00  0.00    +0.150 HD
BRANCH   4   6
ATOM      6  CA  ALA A   1      36.899 -22.720 -16.473  0.00  0.00    +0.013 C 
ATOM      7  CB  ALA A   1      37.341 -21.282 -16.714  0.00  0.00    -0.015 C 
BRANCH   6   8
ATOM      8  N   ALA A   1      35.446 -22.788 -16.340  0.00  0.00    +0.387 N 
ATOM      9  H1  ALA A   1      35.067 -23.396 -17.066  0.00  0.00    -0.089 HD
ATOM     10  H2  ALA A   1      35.052 -21.853 -16.439  0.00  0.00    -0.089 HD
ATOM     11  H3  ALA A   1      35.206 -23.162 -15.422  0.00  0.00    -0.089 HD
ENDBRANCH   6   8
ENDBRANCH   4   6
ENDBRANCH   1   3
BRANCH   1  13
ATOM     12  OXT GLN A   2      40.936 -26.412 -14.063  0.00  0.00    -0.248 OA
ATOM     13  C   GLN A   2      40.139 -25.879 -14.826  0.00  0.00    +0.332 C 
BRANCH  13  14
ATOM     14  O   GLN A   2      40.324 -25.854 -16.168  0.00  0.00    -0.479 OA
ATOM     15  H   GLN A   2      39.897 -25.202 -16.688  0.00  0.00    +0.295 HD
ENDBRANCH  13  14
ENDBRANCH   1  13
BRANCH   1  16
ATOM     16  CB  GLN A   2      37.941 -26.111 -13.624  0.00  0.00    +0.041 C 
BRANCH  16  17
ATOM     17  CG  GLN A   2      37.827 -25.860 -12.117  0.00  0.00    +0.087 C 
BRANCH  17  20
ATOM     18  OE1 GLN A   2      36.564 -24.288 -10.806  0.00  0.00    -0.275 OA
ATOM     19  NE2 GLN A   2      35.639 -25.064 -12.765  0.00  0.00    -0.329 N 
ATOM     20  CD  GLN A   2      36.626 -24.993 -11.810  0.00  0.00    +0.219 C 
ATOM     21 HE21 GLN A   2      34.814 -24.537 -12.661  0.00  0.00    +0.145 HD
ATOM     22 HE22 GLN A   2      35.757 -25.642 -13.553  0.00  0.00    +0.145 HD
ENDBRANCH  17  20
ENDBRANCH  16  17
ENDBRANCH   1  16
TORSDOF 8
ENDMDL
MODEL 2
REMARK VINA RESULT:      -6.6      7.779     10.044
REMARK  Name = 123935
REMARK  8 active torsions:
REMARK  status: ('A' for Active; 'I' for Inactive)
REMARK    1  A    between atoms: CA_1  and  N_3
REMARK    2  A    between atoms: CA_1  and  C_13
REMARK    3  A    between atoms: CA_1  and  CB_16
REMARK    4  A    between atoms: C_4  and  CA_6
REMARK    5  A    between atoms: CA_6  and  N_8
REMARK    6  A    between atoms: C_13  and  O_14
REMARK    7  A    between atoms: CB_16  and  CG_17
REMARK    8  A    between atoms: CG_17  and  CD_20
REMARK                            x       y       z     vdW  Elec       q    Type
REMARK                         _______ _______ _______ _____ _____    ______ ____
ROOT
ATOM      1  CA  GLN A   2      34.803 -18.418 -21.101  0.00  0.00    +0.172 C 
ENDROOT
BRANCH   1   3
ATOM      2  O   ALA A   1      34.890 -15.677 -20.229  0.00  0.00    -0.277 OA
ATOM      3  N   GLN A   2      34.470 -17.252 -21.880  0.00  0.00    -0.298 N 
ATOM      4  C   ALA A   1      34.541 -15.960 -21.374  0.00  0.00    +0.202 C 
ATOM      5  H   GLN A   2      34.178 -17.376 -22.812  0.00  0.00    +0.150 HD
BRANCH   4   6
ATOM      6  CA  ALA A   1      34.122 -14.915 -22.400  0.00  0.00    +0.013 C 
ATOM      7  CB  ALA A   1      32.699 -14.447 -22.126  0.00  0.00    -0.015 C 
BRANCH   6   8
ATOM      8  N   ALA A   1      34.211 -15.517 -23.729  0.00  0.00    +0.387 N 
ATOM      9  H1  ALA A   1      35.188 -15.701 -23.954  0.00  0.00    -0.089 HD
ATOM     10  H2  ALA A   1      33.818 -14.876 -24.418  0.00  0.00    -0.089 HD
ATOM     11  H3  ALA A   1      33.687 -16.392 -23.742  0.00  0.00    -0.089 HD
ENDBRANCH   6   8
ENDBRANCH   4   6
ENDBRANCH   1   3
BRANCH   1  13
ATOM     12  OXT GLN A   2      36.992 -18.432 -22.124  0.00  0.00    -0.248 OA
ATOM     13  C   GLN A   2      36.276 -18.782 -21.192  0.00  0.00    +0.332 C 
BRANCH  13  14
ATOM     14  O   GLN A   2      36.729 -19.566 -20.184  0.00  0.00    -0.479 OA
ATOM     15  H   GLN A   2      37.557 -19.998 -20.261  0.00  0.00    +0.295 HD
ENDBRANCH  13  14
ENDBRANCH   1  13
BRANCH   1  16
ATOM     16  CB  GLN A   2      33.919 -19.614 -21.478  0.00  0.00    +0.041 C 
BRANCH  16  17
ATOM     17  CG  GLN A   2      32.996 -20.085 -20.351  0.00  0.00    +0.087 C 
BRANCH  17  20
ATOM     18  OE1 GLN A   2      34.766 -21.605 -19.764  0.00  0.00    -0.275 OA
ATOM     19  NE2 GLN A   2      32.679 -21.961 -18.860  0.00  0.00    -0.329 N 
ATOM     20  CD  GLN A   2      33.585 -21.287 -19.646  0.00  0.00    +0.219 C 
ATOM     21 HE21 GLN A   2      32.961 -22.759 -18.357  0.00  0.00    +0.145 HD
ATOM     22 HE22 GLN A   2      31.749 -21.645 -18.800  0.00  0.00    +0.145 HD
ENDBRANCH  17  20
ENDBRANCH  16  17
ENDBRANCH   1  16
TORSDOF 8
ENDMDL
MODEL 3
REMARK VINA RESULT:      -6.5      1.636      4.073
REMARK  Name = 123935
REMARK  8 active torsions:
REMARK  status: ('A' for Active; 'I' for Inactive)
REMARK    1  A    between atoms: CA_1  and  N_3
REMARK    2  A    between atoms: CA_1  and  C_13
REMARK    3  A    between atoms: CA_1  and  CB_16
REMARK    4  A    between atoms: C_4  and  CA_6
REMARK    5  A    between atoms: CA_6  and  N_8
REMARK    6  A    between atoms: C_13  and  O_14
REMARK    7  A    between atoms: CB_16  and  CG_17
REMARK    8  A    between atoms: CG_17  and  CD_20
REMARK                            x       y       z     vdW  Elec       q    Type
REMARK                         _______ _______ _______ _____ _____    ______ ____
ROOT
ATOM      1  CA  GLN A   2      36.681 -24.804 -12.706  0.00  0.00    +0.172 C 
ENDROOT
BRANCH   1   3
ATOM      2  O   ALA A   1      36.082 -25.625 -15.399  0.00  0.00    -0.277 OA
ATOM      3  N   GLN A   2      35.923 -24.068 -13.686  0.00  0.00    -0.298 N 
ATOM      4  C   ALA A   1      35.683 -24.545 -14.970  0.00  0.00    +0.202 C 
ATOM      5  H   GLN A   2      35.560 -23.188 -13.437  0.00  0.00    +0.150 HD
BRANCH   4   6
ATOM      6  CA  ALA A   1      34.869 -23.565 -15.805  0.00  0.00    +0.013 C 
ATOM      7  CB  ALA A   1      35.792 -22.580 -16.511  0.00  0.00    -0.015 C 
BRANCH   6   8
ATOM      8  N   ALA A   1      33.954 -22.853 -14.916  0.00  0.00    +0.387 N 
ATOM      9  H1  ALA A   1      34.341 -21.937 -14.693  0.00  0.00    -0.089 HD
ATOM     10  H2  ALA A   1      33.831 -23.389 -14.057  0.00  0.00    -0.089 HD
ATOM     11  H3  ALA A   1      33.052 -22.740 -15.378  0.00  0.00    -0.089 HD
ENDBRANCH   6   8
ENDBRANCH   4   6
ENDBRANCH   1   3
BRANCH   1  13
ATOM     12  OXT GLN A   2      35.306 -25.152 -10.750  0.00  0.00    -0.248 OA
ATOM     13  C   GLN A   2      36.219 -24.531 -11.283  0.00  0.00    +0.332 C 
BRANCH  13  14
ATOM     14  O   GLN A   2      36.863 -23.512 -10.664  0.00  0.00    -0.479 OA
ATOM     15  H   GLN A   2      37.357 -22.896 -11.168  0.00  0.00    +0.295 HD
ENDBRANCH  13  14
ENDBRANCH   1  13
BRANCH   1  16
ATOM     16  CB  GLN A   2      38.186 -24.544 -12.852  0.00  0.00    +0.041 C 
BRANCH  16  17
ATOM     17  CG  GLN A   2      38.978 -25.752 -13.359  0.00  0.00    +0.087 C 
BRANCH  17  20
ATOM     18  OE1 GLN A   2      40.987 -25.713 -14.681  0.00  0.00    -0.275 OA
ATOM     19  NE2 GLN A   2      39.122 -24.643 -15.502  0.00  0.00    -0.329 N 
ATOM     20  CD  GLN A   2      39.812 -25.375 -14.564  0.00  0.00    +0.219 C 
ATOM     21 HE21 GLN A   2      39.574 -24.347 -16.325  0.00  0.00    +0.145 HD
ATOM     22 HE22 GLN A   2      38.177 -24.415 -15.351  0.00  0.00    +0.145 HD
ENDBRANCH  17  20
ENDBRANCH  16  17
ENDBRANCH   1  16
TORSDOF 8
ENDMDL
MODEL 4
REMARK VINA RESULT:      -6.5      8.071     11.020
REMARK  Name = 123935
REMARK  8 active torsions:
REMARK  status: ('A' for Active; 'I' for Inactive)
REMARK    1  A    between atoms: CA_1  and  N_3
REMARK    2  A    between atoms: CA_1  and  C_13
REMARK    3  A    between atoms: CA_1  and  CB_16
REMARK    4  A    between atoms: C_4  and  CA_6
REMARK    5  A    between atoms: CA_6  and  N_8
REMARK    6  A    between atoms: C_13  and  O_14
REMARK    7  A    between atoms: CB_16  and  CG_17
REMARK    8  A    between atoms: CG_17  and  CD_20
REMARK                            x       y       z     vdW  Elec       q    Type
REMARK                         _______ _______ _______ _____ _____    ______ ____
ROOT
ATOM      1  CA  GLN A   2      34.471 -18.289 -21.585  0.00  0.00    +0.172 C 
ENDROOT
BRANCH   1   3
ATOM      2  O   ALA A   1      32.500 -20.276 -20.913  0.00  0.00    -0.277 OA
ATOM      3  N   GLN A   2      34.628 -19.386 -20.664  0.00  0.00    -0.298 N 
ATOM      4  C   ALA A   1      33.617 -20.303 -20.400  0.00  0.00    +0.202 C 
ATOM      5  H   GLN A   2      35.491 -19.492 -20.201  0.00  0.00    +0.150 HD
BRANCH   4   6
ATOM      6  CA  ALA A   1      34.043 -21.351 -19.380  0.00  0.00    +0.013 C 
ATOM      7  CB  ALA A   1      35.489 -21.765 -19.620  0.00  0.00    -0.015 C 
BRANCH   6   8
ATOM      8  N   ALA A   1      33.157 -22.505 -19.511  0.00  0.00    +0.387 N 
ATOM      9  H1  ALA A   1      32.557 -22.569 -18.689  0.00  0.00    -0.089 HD
ATOM     10  H2  ALA A   1      33.716 -23.355 -19.592  0.00  0.00    -0.089 HD
ATOM     11  H3  ALA A   1      32.581 -22.398 -20.346  0.00  0.00    -0.089 HD
ENDBRANCH   6   8
ENDBRANCH   4   6
ENDBRANCH   1   3
BRANCH   1  13
ATOM     12  OXT GLN A   2      34.754 -19.479 -23.669  0.00  0.00    -0.248 OA
ATOM     13  C   GLN A   2      35.111 -18.562 -22.937  0.00  0.00    +0.332 C 
BRANCH  13  14
ATOM     14  O   GLN A   2      36.142 -17.741 -23.251  0.00  0.00    -0.479 OA
ATOM     15  H   GLN A   2      36.776 -17.515 -22.599  0.00  0.00    +0.295 HD
ENDBRANCH  13  14
ENDBRANCH   1  13
BRANCH   1  16
ATOM     16  CB  GLN A   2      34.993 -16.977 -20.986  0.00  0.00    +0.041 C 
BRANCH  16  17
ATOM     17  CG  GLN A   2      33.953 -15.854 -20.947  0.00  0.00    +0.087 C 
BRANCH  17  20
ATOM     18  OE1 GLN A   2      34.926 -15.046 -22.993  0.00  0.00    -0.275 OA
ATOM     19  NE2 GLN A   2      32.751 -14.462 -22.516  0.00  0.00    -0.329 N 
ATOM     20  CD  GLN A   2      33.949 -15.085 -22.250  0.00  0.00    +0.219 C 
ATOM     21 HE21 GLN A   2      32.643 -13.935 -23.340  0.00  0.00    +0.145 HD
ATOM     22 HE22 GLN A   2      32.003 -14.543 -21.881  0.00  0.00    +0.145 HD
ENDBRANCH  17  20
ENDBRANCH  16  17
ENDBRANCH   1  16
TORSDOF 8
ENDMDL
MODEL 5
REMARK VINA RESULT:      -6.4      3.126      3.555
REMARK  Name = 123935
REMARK  8 active torsions:
REMARK  status: ('A' for Active; 'I' for Inactive)
REMARK    1  A    between atoms: CA_1  and  N_3
REMARK    2  A    between atoms: CA_1  and  C_13
REMARK    3  A    between atoms: CA_1  and  CB_16
REMARK    4  A    between atoms: C_4  and  CA_6
REMARK    5  A    between atoms: CA_6  and  N_8
REMARK    6  A    between atoms: C_13  and  O_14
REMARK    7  A    between atoms: CB_16  and  CG_17
REMARK    8  A    between atoms: CG_17  and  CD_20
REMARK                            x       y       z     vdW  Elec       q    Type
REMARK                         _______ _______ _______ _____ _____    ______ ____
ROOT
ATOM      1  CA  GLN A   2      36.392 -25.105 -14.988  0.00  0.00    +0.172 C 
ENDROOT
BRANCH   1   3
ATOM      2  O   ALA A   1      34.563 -23.553 -16.579  0.00  0.00    -0.277 OA
ATOM      3  N   GLN A   2      35.010 -24.823 -14.690  0.00  0.00    -0.298 N 
ATOM      4  C   ALA A   1      34.198 -24.060 -15.521  0.00  0.00    +0.202 C 
ATOM      5  H   GLN A   2      34.624 -25.187 -13.861  0.00  0.00    +0.150 HD
BRANCH   4   6
ATOM      6  CA  ALA A   1      32.789 -23.906 -14.964  0.00  0.00    +0.013 C 
ATOM      7  CB  ALA A   1      31.877 -23.266 -16.004  0.00  0.00    -0.015 C 
BRANCH   6   8
ATOM      8  N   ALA A   1      32.856 -23.071 -13.768  0.00  0.00    +0.387 N 
ATOM      9  H1  ALA A   1      32.620 -23.630 -12.949  0.00  0.00    -0.089 HD
ATOM     10  H2  ALA A   1      32.196 -22.298 -13.855  0.00  0.00    -0.089 HD
ATOM     11  H3  ALA A   1      33.801 -22.699 -13.666  0.00  0.00    -0.089 HD
ENDBRANCH   6   8
ENDBRANCH   4   6
ENDBRANCH   1   3
BRANCH   1  13
ATOM     12  OXT GLN A   2      36.711 -27.233 -16.088  0.00  0.00    -0.248 OA
ATOM     13  C   GLN A   2      36.687 -26.596 -15.040  0.00  0.00    +0.332 C 
BRANCH  13  14
ATOM     14  O   GLN A   2      36.876 -27.178 -13.832  0.00  0.00    -0.479 OA
ATOM     15  H   GLN A   2      36.685 -26.702 -13.047  0.00  0.00    +0.295 HD
ENDBRANCH  13  14
ENDBRANCH   1  13
BRANCH   1  16
ATOM     16  CB  GLN A   2      37.332 -24.395 -14.006  0.00  0.00    +0.041 C 
BRANCH  16  17
ATOM     17  CG  GLN A   2      36.610 -23.518 -12.978  0.00  0.00    +0.087 C 
BRANCH  17  20
ATOM     18  OE1 GLN A   2      36.117 -25.402 -11.568  0.00  0.00    -0.275 OA
ATOM     19  NE2 GLN A   2      36.863 -23.464 -10.575  0.00  0.00    -0.329 N 
ATOM     20  CD  GLN A   2      36.493 -24.236 -11.652  0.00  0.00    +0.219 C 
ATOM     21 HE21 GLN A   2      36.824 -23.838  -9.665  0.00  0.00    +0.145 HD
ATOM     22 HE22 GLN A   2      37.167 -22.538 -10.714  0.00  0.00    +0.145 HD
ENDBRANCH  17  20
ENDBRANCH  16  17
ENDBRANCH   1  16
TORSDOF 8
ENDMDL
MODEL 6
REMARK VINA RESULT:      -6.4      6.017      7.760
REMARK  Name = 123935
REMARK  8 active torsions:
REMARK  status: ('A' for Active; 'I' for Inactive)
REMARK    1  A    between atoms: CA_1  and  N_3
REMARK    2  A    between atoms: CA_1  and  C_13
REMARK    3  A    between atoms: CA_1  and  CB_16
REMARK    4  A    between atoms: C_4  and  CA_6
REMARK    5  A    between atoms: CA_6  and  N_8
REMARK    6  A    between atoms: C_13  and  O_14
REMARK    7  A    between atoms: CB_16  and  CG_17
REMARK    8  A    between atoms: CG_17  and  CD_20
REMARK                            x       y       z     vdW  Elec       q    Type
REMARK                         _______ _______ _______ _____ _____    ______ ____
ROOT
ATOM      1  CA  GLN A   2      31.504 -23.634 -14.531  0.00  0.00    +0.172 C 
ENDROOT
BRANCH   1   3
ATOM      2  O   ALA A   1      33.641 -24.149 -12.673  0.00  0.00    -0.277 OA
ATOM      3  N   GLN A   2      32.895 -23.841 -14.849  0.00  0.00    -0.298 N 
ATOM      4  C   ALA A   1      33.862 -24.085 -13.881  0.00  0.00    +0.202 C 
ATOM      5  H   GLN A   2      33.172 -23.809 -15.793  0.00  0.00    +0.150 HD
BRANCH   4   6
ATOM      6  CA  ALA A   1      35.250 -24.253 -14.485  0.00  0.00    +0.013 C 
ATOM      7  CB  ALA A   1      35.396 -23.381 -15.725  0.00  0.00    -0.015 C 
BRANCH   6   8
ATOM      8  N   ALA A   1      35.432 -25.661 -14.831  0.00  0.00    +0.387 N 
ATOM      9  H1  ALA A   1      34.524 -26.087 -15.009  0.00  0.00    -0.089 HD
ATOM     10  H2  ALA A   1      35.890 -26.144 -14.058  0.00  0.00    -0.089 HD
ATOM     11  H3  ALA A   1      36.013 -25.733 -15.667  0.00  0.00    -0.089 HD
ENDBRANCH   6   8
ENDBRANCH   4   6
ENDBRANCH   1   3
BRANCH   1  13
ATOM     12  OXT GLN A   2      30.368 -25.728 -14.931  0.00  0.00    -0.248 OA
ATOM     13  C   GLN A   2      30.800 -24.917 -14.120  0.00  0.00    +0.332 C 
BRANCH  13  14
ATOM     14  O   GLN A   2      30.643 -25.073 -12.783  0.00  0.00    -0.479 OA
ATOM     15  H   GLN A   2      30.428 -25.914 -12.431  0.00  0.00    +0.295 HD
ENDBRANCH  13  14
ENDBRANCH   1  13
BRANCH   1  16
ATOM     16  CB  GLN A   2      30.763 -22.948 -15.686  0.00  0.00    +0.041 C 
BRANCH  16  17
ATOM     17  CG  GLN A   2      29.352 -22.475 -15.325  0.00  0.00    +0.087 C 
BRANCH  17  20
ATOM     18  OE1 GLN A   2      27.778 -21.830 -17.026  0.00  0.00    -0.275 OA
ATOM     19  NE2 GLN A   2      28.304 -24.061 -16.819  0.00  0.00    -0.329 N 
ATOM     20  CD  GLN A   2      28.395 -22.734 -16.468  0.00  0.00    +0.219 C 
ATOM     21 HE21 GLN A   2      27.708 -24.337 -17.552  0.00  0.00    +0.145 HD
ATOM     22 HE22 GLN A   2      28.835 -24.735 -16.337  0.00  0.00    +0.145 HD
ENDBRANCH  17  20
ENDBRANCH  16  17
ENDBRANCH   1  16
TORSDOF 8
ENDMDL
MODEL 7
REMARK VINA RESULT:      -6.4      1.731      2.216
REMARK  Name = 123935
REMARK  8 active torsions:
REMARK  status: ('A' for Active; 'I' for Inactive)
REMARK    1  A    between atoms: CA_1  and  N_3
REMARK    2  A    between atoms: CA_1  and  C_13
REMARK    3  A    between atoms: CA_1  and  CB_16
REMARK    4  A    between atoms: C_4  and  CA_6
REMARK    5  A    between atoms: CA_6  and  N_8
REMARK    6  A    between atoms: C_13  and  O_14
REMARK    7  A    between atoms: CB_16  and  CG_17
REMARK    8  A    between atoms: CG_17  and  CD_20
REMARK                            x       y       z     vdW  Elec       q    Type
REMARK                         _______ _______ _______ _____ _____    ______ ____
ROOT
ATOM      1  CA  GLN A   2      38.041 -24.953 -13.911  0.00  0.00    +0.172 C 
ENDROOT
BRANCH   1   3
ATOM      2  O   ALA A   1      38.656 -23.030 -15.963  0.00  0.00    -0.277 OA
ATOM      3  N   GLN A   2      37.116 -24.066 -14.570  0.00  0.00    -0.298 N 
ATOM      4  C   ALA A   1      37.504 -23.165 -15.555  0.00  0.00    +0.202 C 
ATOM      5  H   GLN A   2      36.167 -24.099 -14.311  0.00  0.00    +0.150 HD
BRANCH   4   6
ATOM      6  CA  ALA A   1      36.334 -22.340 -16.073  0.00  0.00    +0.013 C 
ATOM      7  CB  ALA A   1      35.030 -23.110 -15.906  0.00  0.00    -0.015 C 
BRANCH   6   8
ATOM      8  N   ALA A   1      36.570 -22.044 -17.484  0.00  0.00    +0.387 N 
ATOM      9  H1  ALA A   1      36.516 -21.037 -17.634  0.00  0.00    -0.089 HD
ATOM     10  H2  ALA A   1      35.863 -22.511 -18.052  0.00  0.00    -0.089 HD
ATOM     11  H3  ALA A   1      37.495 -22.379 -17.751  0.00  0.00    -0.089 HD
ENDBRANCH   6   8
ENDBRANCH   4   6
ENDBRANCH   1   3
BRANCH   1  13
ATOM     12  OXT GLN A   2      38.196 -27.175 -14.849  0.00  0.00    -0.248 OA
ATOM     13  C   GLN A   2      37.652 -26.416 -14.054  0.00  0.00    +0.332 C 
BRANCH  13  14
ATOM     14  O   GLN A   2      36.622 -26.807 -13.266  0.00  0.00    -0.479 OA
ATOM     15  H   GLN A   2      36.317 -27.692 -13.297  0.00  0.00    +0.295 HD
ENDBRANCH  13  14
ENDBRANCH   1  13
BRANCH   1  16
ATOM     16  CB  GLN A   2      38.223 -24.576 -12.436  0.00  0.00    +0.041 C 
BRANCH  16  17
ATOM     17  CG  GLN A   2      37.231 -23.523 -11.936  0.00  0.00    +0.087 C 
BRANCH  17  20
ATOM     18  OE1 GLN A   2      36.176 -24.117  -9.858  0.00  0.00    -0.275 OA
ATOM     19  NE2 GLN A   2      35.166 -24.774 -11.819  0.00  0.00    -0.329 N 
ATOM     20  CD  GLN A   2      36.156 -24.163 -11.085  0.00  0.00    +0.219 C 
ATOM     21 HE21 GLN A   2      34.419 -25.222 -11.361  0.00  0.00    +0.145 HD
ATOM     22 HE22 GLN A   2      35.205 -24.765 -12.803  0.00  0.00    +0.145 HD
ENDBRANCH  17  20
ENDBRANCH  16  17
ENDBRANCH   1  16
TORSDOF 8
ENDMDL
MODEL 8
REMARK VINA RESULT:      -6.3     10.174     12.998
REMARK  Name = 123935
REMARK  8 active torsions:
REMARK  status: ('A' for Active; 'I' for Inactive)
REMARK    1  A    between atoms: CA_1  and  N_3
REMARK    2  A    between atoms: CA_1  and  C_13
REMARK    3  A    between atoms: CA_1  and  CB_16
REMARK    4  A    between atoms: C_4  and  CA_6
REMARK    5  A    between atoms: CA_6  and  N_8
REMARK    6  A    between atoms: C_13  and  O_14
REMARK    7  A    between atoms: CB_16  and  CG_17
REMARK    8  A    between atoms: CG_17  and  CD_20
REMARK                            x       y       z     vdW  Elec       q    Type
REMARK                         _______ _______ _______ _____ _____    ______ ____
ROOT
ATOM      1  CA  GLN A   2      34.649 -16.182 -24.052  0.00  0.00    +0.172 C 
ENDROOT
BRANCH   1   3
ATOM      2  O   ALA A   1      34.060 -13.434 -23.429  0.00  0.00    -0.277 OA
ATOM      3  N   GLN A   2      33.673 -15.700 -23.107  0.00  0.00    -0.298 N 
ATOM      4  C   ALA A   1      33.455 -14.347 -22.870  0.00  0.00    +0.202 C 
ATOM      5  H   GLN A   2      33.137 -16.357 -22.607  0.00  0.00    +0.150 HD
BRANCH   4   6
ATOM      6  CA  ALA A   1      32.380 -14.114 -21.816  0.00  0.00    +0.013 C 
ATOM      7  CB  ALA A   1      32.026 -12.635 -21.742  0.00  0.00    -0.015 C 
BRANCH   6   8
ATOM      8  N   ALA A   1      32.892 -14.577 -20.528  0.00  0.00    +0.387 N 
ATOM      9  H1  ALA A   1      33.006 -15.590 -20.552  0.00  0.00    -0.089 HD
ATOM     10  H2  ALA A   1      32.233 -14.327 -19.791  0.00  0.00    -0.089 HD
ATOM     11  H3  ALA A   1      33.793 -14.137 -20.342  0.00  0.00    -0.089 HD
ENDBRANCH   6   8
ENDBRANCH   4   6
ENDBRANCH   1   3
BRANCH   1  13
ATOM     12  OXT GLN A   2      33.817 -15.515 -26.220  0.00  0.00    -0.248 OA
ATOM     13  C   GLN A   2      34.058 -16.423 -25.432  0.00  0.00    +0.332 C 
BRANCH  13  14
ATOM     14  O   GLN A   2      33.772 -17.718 -25.707  0.00  0.00    -0.479 OA
ATOM     15  H   GLN A   2      34.256 -18.176 -26.366  0.00  0.00    +0.295 HD
ENDBRANCH  13  14
ENDBRANCH   1  13
BRANCH   1  16
ATOM     16  CB  GLN A   2      35.357 -17.439 -23.532  0.00  0.00    +0.041 C 
BRANCH  16  17
ATOM     17  CG  GLN A   2      34.643 -18.113 -22.357  0.00  0.00    +0.087 C 
BRANCH  17  20
ATOM     18  OE1 GLN A   2      35.196 -16.715 -20.479  0.00  0.00    -0.275 OA
ATOM     19  NE2 GLN A   2      36.123 -18.819 -20.581  0.00  0.00    -0.329 N 
ATOM     20  CD  GLN A   2      35.340 -17.791 -21.053  0.00  0.00    +0.219 C 
ATOM     21 HE21 GLN A   2      36.620 -18.712 -19.738  0.00  0.00    +0.145 HD
ATOM     22 HE22 GLN A   2      36.186 -19.662 -21.085  0.00  0.00    +0.145 HD
ENDBRANCH  17  20
ENDBRANCH  16  17
ENDBRANCH   1  16
TORSDOF 8
ENDMDL
MODEL 9
REMARK VINA RESULT:      -6.3      2.317      4.728
REMARK  Name = 123935
REMARK  8 active torsions:
REMARK  status: ('A' for Active; 'I' for Inactive)
REMARK    1  A    between atoms: CA_1  and  N_3
REMARK    2  A    between atoms: CA_1  and  C_13
REMARK    3  A    between atoms: CA_1  and  CB_16
REMARK    4  A    between atoms: C_4  and  CA_6
REMARK    5  A    between atoms: CA_6  and  N_8
REMARK    6  A    between atoms: C_13  and  O_14
REMARK    7  A    between atoms: CB_16  and  CG_17
REMARK    8  A    between atoms: CG_17  and  CD_20
REMARK                            x       y       z     vdW  Elec       q    Type
REMARK                         _______ _______ _______ _____ _____    ______ ____
ROOT
ATOM      1  CA  GLN A   2      36.021 -23.866 -12.558  0.00  0.00    +0.172 C 
ENDROOT
BRANCH   1   3
ATOM      2  O   ALA A   1      38.897 -23.970 -12.519  0.00  0.00    -0.277 OA
ATOM      3  N   GLN A   2      36.863 -24.786 -13.280  0.00  0.00    -0.298 N 
ATOM      4  C   ALA A   1      38.250 -24.763 -13.201  0.00  0.00    +0.202 C 
ATOM      5  H   GLN A   2      36.436 -25.462 -13.856  0.00  0.00    +0.150 HD
BRANCH   4   6
ATOM      6  CA  ALA A   1      38.895 -25.833 -14.073  0.00  0.00    +0.013 C 
ATOM      7  CB  ALA A   1      40.318 -25.431 -14.437  0.00  0.00    -0.015 C 
BRANCH   6   8
ATOM      8  N   ALA A   1      38.087 -25.989 -15.280  0.00  0.00    +0.387 N 
ATOM      9  H1  ALA A   1      37.938 -26.981 -15.464  0.00  0.00    -0.089 HD
ATOM     10  H2  ALA A   1      38.573 -25.565 -16.070  0.00  0.00    -0.089 HD
ATOM     11  H3  ALA A   1      37.187 -25.527 -15.148  0.00  0.00    -0.089 HD
ENDBRANCH   6   8
ENDBRANCH   4   6
ENDBRANCH   1   3
BRANCH   1  13
ATOM     12  OXT GLN A   2      35.314 -24.977 -10.532  0.00  0.00    -0.248 OA
ATOM     13  C   GLN A   2      36.020 -24.125 -11.060  0.00  0.00    +0.332 C 
BRANCH  13  14
ATOM     14  O   GLN A   2      36.828 -23.306 -10.344  0.00  0.00    -0.479 OA
ATOM     15  H   GLN A   2      37.268 -22.595 -10.767  0.00  0.00    +0.295 HD
ENDBRANCH  13  14
ENDBRANCH   1  13
BRANCH   1  16
ATOM     16  CB  GLN A   2      34.591 -23.862 -13.114  0.00  0.00    +0.041 C 
BRANCH  16  17
ATOM     17  CG  GLN A   2      34.419 -24.685 -14.394  0.00  0.00    +0.087 C 
BRANCH  17  20
ATOM     18  OE1 GLN A   2      35.938 -23.792 -16.031  0.00  0.00    -0.275 OA
ATOM     19  NE2 GLN A   2      33.711 -23.233 -16.191  0.00  0.00    -0.329 N 
ATOM     20  CD  GLN A   2      34.787 -23.863 -15.609  0.00  0.00    +0.219 C 
ATOM     21 HE21 GLN A   2      33.842 -22.672 -16.990  0.00  0.00    +0.145 HD
ATOM     22 HE22 GLN A   2      32.811 -23.341 -15.808  0.00  0.00    +0.145 HD
ENDBRANCH  17  20
ENDBRANCH  16  17
ENDBRANCH   1  16
TORSDOF 8
ENDMDL
