MODEL 1
REMARK VINA RESULT:     -12.2      0.000      0.000
REMARK  Name = 42647297
REMARK  5 active torsions:
REMARK  status: ('A' for Active; 'I' for Inactive)
REMARK    1  A    between atoms: N_3  and  C_14
REMARK    2  A    between atoms: C_7  and  N_20
REMARK    3  A    between atoms: N_20  and  C_24
REMARK    4  A    between atoms: C_22  and  C_31
REMARK    5  A    between atoms: N_30  and  C_33
REMARK                            x       y       z     vdW  Elec       q    Type
REMARK                         _______ _______ _______ _____ _____    ______ ____
ROOT
ATOM      1  O   UNL     1      35.384 -10.773 -25.496  0.00  0.00    -0.269 OA
ATOM      2  N   UNL     1      33.700  -9.998 -24.068  0.00  0.00    -0.240 N 
ATOM      3  N   UNL     1      31.827  -9.682 -22.505  0.00  0.00    -0.174 N 
ATOM      4  N   UNL     1      30.940 -10.418 -21.802  0.00  0.00    -0.171 NA
ATOM      5  C   UNL     1      32.681 -10.441 -23.246  0.00  0.00    +0.133 C 
ATOM      6  C   UNL     1      32.332 -11.744 -23.016  0.00  0.00    +0.064 C 
ATOM      7  C   UNL     1      33.053 -12.788 -23.657  0.00  0.00    +0.057 C 
ATOM      8  C   UNL     1      34.064 -12.430 -24.478  0.00  0.00    +0.073 C 
ATOM      9  C   UNL     1      34.444 -10.989 -24.729  0.00  0.00    +0.255 C 
ATOM     10  C   UNL     1      31.255 -11.681 -22.121  0.00  0.00    +0.122 C 
ATOM     11  C   UNL     1      33.985  -8.580 -24.242  0.00  0.00    +0.122 C 
ENDROOT
BRANCH   3  14
ATOM     12  F   UNL     1      32.991  -8.362 -20.355  0.00  0.00    -0.203 F 
ATOM     13  F   UNL     1      31.545  -4.185 -22.038  0.00  0.00    -0.204 F 
ATOM     14  C   UNL     1      31.756  -8.294 -22.384  0.00  0.00    +0.103 C 
ATOM     15  C   UNL     1      32.349  -7.655 -21.296  0.00  0.00    +0.158 C 
ATOM     16  C   UNL     1      31.091  -7.546 -23.356  0.00  0.00    +0.021 C 
ATOM     17  C   UNL     1      32.278  -6.266 -21.180  0.00  0.00    +0.061 C 
ATOM     18  C   UNL     1      31.019  -6.158 -23.239  0.00  0.00    +0.031 C 
ATOM     19  C   UNL     1      31.613  -5.518 -22.151  0.00  0.00    +0.142 C 
ENDBRANCH   3  14
BRANCH   7  20
ATOM     20  N   UNL     1      32.709 -14.093 -23.433  0.00  0.00    -0.313 N 
ATOM     21  H   UNL     1      31.785 -14.248 -23.133  0.00  0.00    +0.152 HD
BRANCH  20  24
ATOM     22  C   UNL     1      34.796 -17.004 -22.559  0.00  0.00    +0.055 C 
ATOM     23  C   UNL     1      34.001 -15.864 -22.436  0.00  0.00    +0.019 C 
ATOM     24  C   UNL     1      33.504 -15.233 -23.575  0.00  0.00    +0.044 C 
ATOM     25  C   UNL     1      35.094 -17.512 -23.823  0.00  0.00    +0.004 C 
ATOM     26  C   UNL     1      33.800 -15.743 -24.839  0.00  0.00    -0.008 C 
ATOM     27  C   UNL     1      34.595 -16.882 -24.964  0.00  0.00    -0.003 C 
ATOM     28  C   UNL     1      33.281 -15.088 -26.078  0.00  0.00    +0.032 C 
BRANCH  22  31
ATOM     29  O   UNL     1      35.488 -17.022 -20.317  0.00  0.00    -0.270 OA
ATOM     30  N   UNL     1      35.624 -19.023 -21.479  0.00  0.00    -0.302 N 
ATOM     31  C   UNL     1      35.316 -17.661 -21.370  0.00  0.00    +0.246 C 
ATOM     32  H   UNL     1      35.463 -19.471 -22.340  0.00  0.00    +0.150 HD
BRANCH  30  33
ATOM     33  C   UNL     1      36.163 -19.797 -20.396  0.00  0.00    +0.072 C 
ATOM     34  C   UNL     1      36.534 -21.240 -20.581  0.00  0.00    +0.021 C 
ATOM     35  C   UNL     1      35.353 -20.872 -19.731  0.00  0.00    +0.021 C 
ENDBRANCH  30  33
ENDBRANCH  22  31
ENDBRANCH  20  24
ENDBRANCH   7  20
TORSDOF 5
ENDMDL
MODEL 2
REMARK VINA RESULT:     -12.0      7.100     11.105
REMARK  Name = 42647297
REMARK  5 active torsions:
REMARK  status: ('A' for Active; 'I' for Inactive)
REMARK    1  A    between atoms: N_3  and  C_14
REMARK    2  A    between atoms: C_7  and  N_20
REMARK    3  A    between atoms: N_20  and  C_24
REMARK    4  A    between atoms: C_22  and  C_31
REMARK    5  A    between atoms: N_30  and  C_33
REMARK                            x       y       z     vdW  Elec       q    Type
REMARK                         _______ _______ _______ _____ _____    ______ ____
ROOT
ATOM      1  O   UNL     1      37.573 -21.649 -18.539  0.00  0.00    -0.269 OA
ATOM      2  N   UNL     1      35.888 -20.570 -19.751  0.00  0.00    -0.240 N 
ATOM      3  N   UNL     1      33.804 -19.765 -20.783  0.00  0.00    -0.174 N 
ATOM      4  N   UNL     1      32.480 -20.023 -20.759  0.00  0.00    -0.171 NA
ATOM      5  C   UNL     1      34.521 -20.577 -19.956  0.00  0.00    +0.133 C 
ATOM      6  C   UNL     1      33.615 -21.411 -19.361  0.00  0.00    +0.064 C 
ATOM      7  C   UNL     1      34.064 -22.387 -18.430  0.00  0.00    +0.057 C 
ATOM      8  C   UNL     1      35.390 -22.440 -18.178  0.00  0.00    +0.073 C 
ATOM      9  C   UNL     1      36.386 -21.516 -18.840  0.00  0.00    +0.255 C 
ATOM     10  C   UNL     1      32.370 -21.033 -19.885  0.00  0.00    +0.122 C 
ATOM     11  C   UNL     1      36.764 -19.634 -20.443  0.00  0.00    +0.122 C 
ENDROOT
BRANCH   3  14
ATOM     12  F   UNL     1      34.805 -20.305 -23.318  0.00  0.00    -0.203 F 
ATOM     13  F   UNL     1      35.561 -15.700 -24.084  0.00  0.00    -0.204 F 
ATOM     14  C   UNL     1      34.250 -18.740 -21.618  0.00  0.00    +0.103 C 
ATOM     15  C   UNL     1      34.747 -19.037 -22.886  0.00  0.00    +0.158 C 
ATOM     16  C   UNL     1      34.195 -17.417 -21.182  0.00  0.00    +0.021 C 
ATOM     17  C   UNL     1      35.190 -18.009 -23.720  0.00  0.00    +0.061 C 
ATOM     18  C   UNL     1      34.638 -16.390 -22.015  0.00  0.00    +0.031 C 
ATOM     19  C   UNL     1      35.135 -16.686 -23.284  0.00  0.00    +0.142 C 
ENDBRANCH   3  14
BRANCH   7  20
ATOM     20  N   UNL     1      33.163 -23.225 -17.831  0.00  0.00    -0.313 N 
ATOM     21  H   UNL     1      32.659 -23.816 -18.436  0.00  0.00    +0.152 HD
BRANCH  20  24
ATOM     22  C   UNL     1      33.598 -23.872 -14.227  0.00  0.00    +0.055 C 
ATOM     23  C   UNL     1      33.874 -23.743 -15.588  0.00  0.00    +0.019 C 
ATOM     24  C   UNL     1      32.869 -23.349 -16.471  0.00  0.00    +0.044 C 
ATOM     25  C   UNL     1      32.315 -23.605 -13.748  0.00  0.00    +0.004 C 
ATOM     26  C   UNL     1      31.586 -23.082 -15.992  0.00  0.00    -0.008 C 
ATOM     27  C   UNL     1      31.309 -23.210 -14.631  0.00  0.00    -0.003 C 
ATOM     28  C   UNL     1      30.490 -22.657 -16.913  0.00  0.00    +0.032 C 
BRANCH  22  31
ATOM     29  O   UNL     1      34.628 -23.913 -12.120  0.00  0.00    -0.270 OA
ATOM     30  N   UNL     1      35.668 -25.089 -13.825  0.00  0.00    -0.302 N 
ATOM     31  C   UNL     1      34.646 -24.284 -13.307  0.00  0.00    +0.246 C 
ATOM     32  H   UNL     1      35.623 -25.349 -14.773  0.00  0.00    +0.150 HD
BRANCH  30  33
ATOM     33  C   UNL     1      36.777 -25.555 -13.040  0.00  0.00    +0.072 C 
ATOM     34  C   UNL     1      37.995 -24.702 -12.833  0.00  0.00    +0.021 C 
ATOM     35  C   UNL     1      38.079 -25.935 -13.685  0.00  0.00    +0.021 C 
ENDBRANCH  30  33
ENDBRANCH  22  31
ENDBRANCH  20  24
ENDBRANCH   7  20
TORSDOF 5
ENDMDL
MODEL 3
REMARK VINA RESULT:     -11.6      1.524      2.168
REMARK  Name = 42647297
REMARK  5 active torsions:
REMARK  status: ('A' for Active; 'I' for Inactive)
REMARK    1  A    between atoms: N_3  and  C_14
REMARK    2  A    between atoms: C_7  and  N_20
REMARK    3  A    between atoms: N_20  and  C_24
REMARK    4  A    between atoms: C_22  and  C_31
REMARK    5  A    between atoms: N_30  and  C_33
REMARK                            x       y       z     vdW  Elec       q    Type
REMARK                         _______ _______ _______ _____ _____    ______ ____
ROOT
ATOM      1  O   UNL     1      31.475 -12.921 -20.412  0.00  0.00    -0.269 OA
ATOM      2  N   UNL     1      32.044 -11.144 -21.823  0.00  0.00    -0.240 N 
ATOM      3  N   UNL     1      32.919  -9.630 -23.554  0.00  0.00    -0.174 N 
ATOM      4  N   UNL     1      33.724  -9.663 -24.637  0.00  0.00    -0.171 NA
ATOM      5  C   UNL     1      32.792 -10.842 -22.946  0.00  0.00    +0.133 C 
ATOM      6  C   UNL     1      33.557 -11.714 -23.670  0.00  0.00    +0.064 C 
ATOM      7  C   UNL     1      33.629 -13.079 -23.278  0.00  0.00    +0.057 C 
ATOM      8  C   UNL     1      32.923 -13.448 -22.187  0.00  0.00    +0.073 C 
ATOM      9  C   UNL     1      32.080 -12.479 -21.390  0.00  0.00    +0.255 C 
ATOM     10  C   UNL     1      34.112 -10.944 -24.701  0.00  0.00    +0.122 C 
ATOM     11  C   UNL     1      31.263 -10.131 -21.125  0.00  0.00    +0.122 C 
ENDROOT
BRANCH   3  14
ATOM     12  F   UNL     1      34.176  -7.888 -21.792  0.00  0.00    -0.203 F 
ATOM     13  F   UNL     1      30.633  -4.783 -22.213  0.00  0.00    -0.204 F 
ATOM     14  C   UNL     1      32.343  -8.406 -23.213  0.00  0.00    +0.103 C 
ATOM     15  C   UNL     1      32.994  -7.549 -22.327  0.00  0.00    +0.158 C 
ATOM     16  C   UNL     1      31.114  -8.040 -23.762  0.00  0.00    +0.021 C 
ATOM     17  C   UNL     1      32.416  -6.324 -21.989  0.00  0.00    +0.061 C 
ATOM     18  C   UNL     1      30.536  -6.816 -23.424  0.00  0.00    +0.031 C 
ATOM     19  C   UNL     1      31.188  -5.958 -22.538  0.00  0.00    +0.142 C 
ENDBRANCH   3  14
BRANCH   7  20
ATOM     20  N   UNL     1      34.393 -13.957 -23.996  0.00  0.00    -0.313 N 
ATOM     21  H   UNL     1      34.993 -13.556 -24.665  0.00  0.00    +0.152 HD
BRANCH  20  24
ATOM     22  C   UNL     1      34.906 -17.333 -22.607  0.00  0.00    +0.055 C 
ATOM     23  C   UNL     1      34.865 -15.943 -22.718  0.00  0.00    +0.019 C 
ATOM     24  C   UNL     1      34.428 -15.351 -23.902  0.00  0.00    +0.044 C 
ATOM     25  C   UNL     1      34.510 -18.131 -23.681  0.00  0.00    +0.004 C 
ATOM     26  C   UNL     1      34.031 -16.148 -24.976  0.00  0.00    -0.008 C 
ATOM     27  C   UNL     1      34.071 -17.538 -24.865  0.00  0.00    -0.003 C 
ATOM     28  C   UNL     1      33.557 -15.541 -26.256  0.00  0.00    +0.032 C 
BRANCH  22  31
ATOM     29  O   UNL     1      35.584 -17.260 -20.362  0.00  0.00    -0.270 OA
ATOM     30  N   UNL     1      35.555 -19.338 -21.387  0.00  0.00    -0.302 N 
ATOM     31  C   UNL     1      35.363 -17.951 -21.372  0.00  0.00    +0.246 C 
ATOM     32  H   UNL     1      35.361 -19.828 -22.218  0.00  0.00    +0.150 HD
BRANCH  30  33
ATOM     33  C   UNL     1      36.022 -20.081 -20.250  0.00  0.00    +0.072 C 
ATOM     34  C   UNL     1      36.459 -21.511 -20.382  0.00  0.00    +0.021 C 
ATOM     35  C   UNL     1      35.194 -21.178 -19.646  0.00  0.00    +0.021 C 
ENDBRANCH  30  33
ENDBRANCH  22  31
ENDBRANCH  20  24
ENDBRANCH   7  20
TORSDOF 5
ENDMDL
MODEL 4
REMARK VINA RESULT:     -11.6      3.879     10.379
REMARK  Name = 42647297
REMARK  5 active torsions:
REMARK  status: ('A' for Active; 'I' for Inactive)
REMARK    1  A    between atoms: N_3  and  C_14
REMARK    2  A    between atoms: C_7  and  N_20
REMARK    3  A    between atoms: N_20  and  C_24
REMARK    4  A    between atoms: C_22  and  C_31
REMARK    5  A    between atoms: N_30  and  C_33
REMARK                            x       y       z     vdW  Elec       q    Type
REMARK                         _______ _______ _______ _____ _____    ______ ____
ROOT
ATOM      1  O   UNL     1      30.628 -11.044 -20.724  0.00  0.00    -0.269 OA
ATOM      2  N   UNL     1      32.094 -11.665 -22.439  0.00  0.00    -0.240 N 
ATOM      3  N   UNL     1      33.769 -11.822 -24.234  0.00  0.00    -0.174 N 
ATOM      4  N   UNL     1      34.635 -11.032 -24.903  0.00  0.00    -0.171 NA
ATOM      5  C   UNL     1      33.054 -11.150 -23.289  0.00  0.00    +0.133 C 
ATOM      6  C   UNL     1      33.476  -9.850 -23.345  0.00  0.00    +0.064 C 
ATOM      7  C   UNL     1      32.907  -8.888 -22.466  0.00  0.00    +0.057 C 
ATOM      8  C   UNL     1      31.960  -9.319 -21.605  0.00  0.00    +0.073 C 
ATOM      9  C   UNL     1      31.498 -10.757 -21.548  0.00  0.00    +0.255 C 
ATOM     10  C   UNL     1      34.449  -9.824 -24.354  0.00  0.00    +0.122 C 
ATOM     11  C   UNL     1      31.720 -13.072 -22.465  0.00  0.00    +0.122 C 
ENDROOT
BRANCH   3  14
ATOM     12  F   UNL     1      34.769 -13.784 -22.540  0.00  0.00    -0.203 F 
ATOM     13  F   UNL     1      33.572 -17.165 -25.623  0.00  0.00    -0.204 F 
ATOM     14  C   UNL     1      33.722 -13.172 -24.583  0.00  0.00    +0.103 C 
ATOM     15  C   UNL     1      34.229 -14.138 -23.715  0.00  0.00    +0.158 C 
ATOM     16  C   UNL     1      33.163 -13.554 -25.802  0.00  0.00    +0.021 C 
ATOM     17  C   UNL     1      34.178 -15.487 -24.067  0.00  0.00    +0.061 C 
ATOM     18  C   UNL     1      33.113 -14.903 -26.154  0.00  0.00    +0.031 C 
ATOM     19  C   UNL     1      33.621 -15.869 -25.286  0.00  0.00    +0.142 C 
ENDBRANCH   3  14
BRANCH   7  20
ATOM     20  N   UNL     1      33.322  -7.585 -22.517  0.00  0.00    -0.313 N 
ATOM     21  H   UNL     1      34.101  -7.361 -21.959  0.00  0.00    +0.152 HD
BRANCH  20  24
ATOM     22  C   UNL     1      32.738  -5.237 -25.298  0.00  0.00    +0.055 C 
ATOM     23  C   UNL     1      33.267  -6.283 -24.543  0.00  0.00    +0.019 C 
ATOM     24  C   UNL     1      32.781  -6.533 -23.260  0.00  0.00    +0.044 C 
ATOM     25  C   UNL     1      31.721  -4.441 -24.771  0.00  0.00    +0.004 C 
ATOM     26  C   UNL     1      31.763  -5.738 -22.733  0.00  0.00    -0.008 C 
ATOM     27  C   UNL     1      31.234  -4.692 -23.488  0.00  0.00    -0.003 C 
ATOM     28  C   UNL     1      31.222  -5.983 -21.362  0.00  0.00    +0.032 C 
BRANCH  22  31
ATOM     29  O   UNL     1      34.377  -5.368 -26.972  0.00  0.00    -0.270 OA
ATOM     30  N   UNL     1      32.416  -4.253 -27.502  0.00  0.00    -0.302 N 
ATOM     31  C   UNL     1      33.246  -4.975 -26.636  0.00  0.00    +0.246 C 
ATOM     32  H   UNL     1      31.532  -3.971 -27.176  0.00  0.00    +0.150 HD
BRANCH  30  33
ATOM     33  C   UNL     1      32.792  -3.903 -28.844  0.00  0.00    +0.072 C 
ATOM     34  C   UNL     1      31.757  -3.575 -29.880  0.00  0.00    +0.021 C 
ATOM     35  C   UNL     1      32.552  -4.844 -29.988  0.00  0.00    +0.021 C 
ENDBRANCH  30  33
ENDBRANCH  22  31
ENDBRANCH  20  24
ENDBRANCH   7  20
TORSDOF 5
ENDMDL
MODEL 5
REMARK VINA RESULT:     -11.5      3.721      9.964
REMARK  Name = 42647297
REMARK  5 active torsions:
REMARK  status: ('A' for Active; 'I' for Inactive)
REMARK    1  A    between atoms: N_3  and  C_14
REMARK    2  A    between atoms: C_7  and  N_20
REMARK    3  A    between atoms: N_20  and  C_24
REMARK    4  A    between atoms: C_22  and  C_31
REMARK    5  A    between atoms: N_30  and  C_33
REMARK                            x       y       z     vdW  Elec       q    Type
REMARK                         _______ _______ _______ _____ _____    ______ ____
ROOT
ATOM      1  O   UNL     1      33.416 -14.021 -25.525  0.00  0.00    -0.269 OA
ATOM      2  N   UNL     1      33.493 -15.129 -23.465  0.00  0.00    -0.240 N 
ATOM      3  N   UNL     1      33.305 -15.890 -21.133  0.00  0.00    -0.174 N 
ATOM      4  N   UNL     1      32.768 -15.489 -19.962  0.00  0.00    -0.171 NA
ATOM      5  C   UNL     1      33.081 -15.013 -22.151  0.00  0.00    +0.133 C 
ATOM      6  C   UNL     1      32.360 -13.982 -21.614  0.00  0.00    +0.064 C 
ATOM      7  C   UNL     1      31.967 -12.894 -22.441  0.00  0.00    +0.057 C 
ATOM      8  C   UNL     1      32.336 -12.938 -23.740  0.00  0.00    +0.073 C 
ATOM      9  C   UNL     1      33.133 -14.080 -24.327  0.00  0.00    +0.255 C 
ATOM     10  C   UNL     1      32.191 -14.318 -20.264  0.00  0.00    +0.122 C 
ATOM     11  C   UNL     1      34.262 -16.275 -23.931  0.00  0.00    +0.122 C 
ENDROOT
BRANCH   3  14
ATOM     12  F   UNL     1      31.984 -18.296 -20.700  0.00  0.00    -0.203 F 
ATOM     13  F   UNL     1      36.030 -20.695 -21.201  0.00  0.00    -0.204 F 
ATOM     14  C   UNL     1      33.991 -17.105 -21.149  0.00  0.00    +0.103 C 
ATOM     15  C   UNL     1      33.305 -18.299 -20.930  0.00  0.00    +0.158 C 
ATOM     16  C   UNL     1      35.365 -17.122 -21.386  0.00  0.00    +0.021 C 
ATOM     17  C   UNL     1      33.995 -19.512 -20.948  0.00  0.00    +0.061 C 
ATOM     18  C   UNL     1      36.054 -18.335 -21.403  0.00  0.00    +0.031 C 
ATOM     19  C   UNL     1      35.368 -19.530 -21.184  0.00  0.00    +0.142 C 
ENDBRANCH   3  14
BRANCH   7  20
ATOM     20  N   UNL     1      31.247 -11.858 -21.911  0.00  0.00    -0.313 N 
ATOM     21  H   UNL     1      30.291 -12.035 -21.758  0.00  0.00    +0.152 HD
BRANCH  20  24
ATOM     22  C   UNL     1      32.460  -8.392 -22.238  0.00  0.00    +0.055 C 
ATOM     23  C   UNL     1      32.011  -9.670 -22.569  0.00  0.00    +0.019 C 
ATOM     24  C   UNL     1      31.696 -10.582 -21.562  0.00  0.00    +0.044 C 
ATOM     25  C   UNL     1      32.596  -8.026 -20.898  0.00  0.00    +0.004 C 
ATOM     26  C   UNL     1      31.831 -10.216 -20.223  0.00  0.00    -0.008 C 
ATOM     27  C   UNL     1      32.280  -8.938 -19.891  0.00  0.00    -0.003 C 
ATOM     28  C   UNL     1      31.501 -11.171 -19.122  0.00  0.00    +0.032 C 
BRANCH  22  31
ATOM     29  O   UNL     1      33.741  -7.654 -24.060  0.00  0.00    -0.270 OA
ATOM     30  N   UNL     1      32.003  -6.285 -23.370  0.00  0.00    -0.302 N 
ATOM     31  C   UNL     1      32.789  -7.441 -23.288  0.00  0.00    +0.246 C 
ATOM     32  H   UNL     1      31.264  -6.177 -22.730  0.00  0.00    +0.150 HD
BRANCH  30  33
ATOM     33  C   UNL     1      32.223  -5.250 -24.341  0.00  0.00    +0.072 C 
ATOM     34  C   UNL     1      31.745  -3.847 -24.103  0.00  0.00    +0.021 C 
ATOM     35  C   UNL     1      31.090  -4.695 -25.154  0.00  0.00    +0.021 C 
ENDBRANCH  30  33
ENDBRANCH  22  31
ENDBRANCH  20  24
ENDBRANCH   7  20
TORSDOF 5
ENDMDL
MODEL 6
REMARK VINA RESULT:     -11.3      7.289     11.220
REMARK  Name = 42647297
REMARK  5 active torsions:
REMARK  status: ('A' for Active; 'I' for Inactive)
REMARK    1  A    between atoms: N_3  and  C_14
REMARK    2  A    between atoms: C_7  and  N_20
REMARK    3  A    between atoms: N_20  and  C_24
REMARK    4  A    between atoms: C_22  and  C_31
REMARK    5  A    between atoms: N_30  and  C_33
REMARK                            x       y       z     vdW  Elec       q    Type
REMARK                         _______ _______ _______ _____ _____    ______ ____
ROOT
ATOM      1  O   UNL     1      32.166 -21.977 -18.998  0.00  0.00    -0.269 OA
ATOM      2  N   UNL     1      33.803 -20.717 -20.097  0.00  0.00    -0.240 N 
ATOM      3  N   UNL     1      35.845 -19.619 -20.920  0.00  0.00    -0.174 N 
ATOM      4  N   UNL     1      37.170 -19.589 -20.665  0.00  0.00    -0.171 NA
ATOM      5  C   UNL     1      35.162 -20.460 -20.095  0.00  0.00    +0.133 C 
ATOM      6  C   UNL     1      36.091 -21.010 -19.255  0.00  0.00    +0.064 C 
ATOM      7  C   UNL     1      35.679 -21.943 -18.266  0.00  0.00    +0.057 C 
ATOM      8  C   UNL     1      34.363 -22.243 -18.206  0.00  0.00    +0.073 C 
ATOM      9  C   UNL     1      33.341 -21.633 -19.138  0.00  0.00    +0.255 C 
ATOM     10  C   UNL     1      37.314 -20.444 -19.643  0.00  0.00    +0.122 C 
ATOM     11  C   UNL     1      32.900 -20.072 -21.040  0.00  0.00    +0.122 C 
ENDROOT
BRANCH   3  14
ATOM     12  F   UNL     1      35.297 -16.925 -20.517  0.00  0.00    -0.203 F 
ATOM     13  F   UNL     1      33.957 -16.444 -25.027  0.00  0.00    -0.204 F 
ATOM     14  C   UNL     1      35.367 -18.815 -21.955  0.00  0.00    +0.103 C 
ATOM     15  C   UNL     1      35.100 -17.466 -21.728  0.00  0.00    +0.158 C 
ATOM     16  C   UNL     1      35.158 -19.364 -23.220  0.00  0.00    +0.021 C 
ATOM     17  C   UNL     1      34.624 -16.664 -22.766  0.00  0.00    +0.061 C 
ATOM     18  C   UNL     1      34.681 -18.563 -24.258  0.00  0.00    +0.031 C 
ATOM     19  C   UNL     1      34.414 -17.213 -24.031  0.00  0.00    +0.142 C 
ENDBRANCH   3  14
BRANCH   7  20
ATOM     20  N   UNL     1      36.602 -22.496 -17.421  0.00  0.00    -0.313 N 
ATOM     21  H   UNL     1      37.530 -22.509 -17.749  0.00  0.00    +0.152 HD
BRANCH  20  24
ATOM     22  C   UNL     1      34.872 -23.674 -14.386  0.00  0.00    +0.055 C 
ATOM     23  C   UNL     1      35.097 -23.128 -15.650  0.00  0.00    +0.019 C 
ATOM     24  C   UNL     1      36.395 -23.045 -16.153  0.00  0.00    +0.044 C 
ATOM     25  C   UNL     1      35.946 -24.137 -13.625  0.00  0.00    +0.004 C 
ATOM     26  C   UNL     1      37.469 -23.509 -15.393  0.00  0.00    -0.008 C 
ATOM     27  C   UNL     1      37.244 -24.055 -14.129  0.00  0.00    -0.003 C 
ATOM     28  C   UNL     1      38.870 -23.434 -15.907  0.00  0.00    +0.032 C 
BRANCH  22  31
ATOM     29  O   UNL     1      33.269 -24.463 -12.865  0.00  0.00    -0.270 OA
ATOM     30  N   UNL     1      32.526 -23.037 -14.534  0.00  0.00    -0.302 N 
ATOM     31  C   UNL     1      33.519 -23.760 -13.860  0.00  0.00    +0.246 C 
ATOM     32  H   UNL     1      32.789 -22.499 -15.315  0.00  0.00    +0.150 HD
BRANCH  30  33
ATOM     33  C   UNL     1      31.144 -23.042 -14.142  0.00  0.00    +0.072 C 
ATOM     34  C   UNL     1      30.224 -24.153 -14.558  0.00  0.00    +0.021 C 
ATOM     35  C   UNL     1      30.054 -22.779 -15.139  0.00  0.00    +0.021 C 
ENDBRANCH  30  33
ENDBRANCH  22  31
ENDBRANCH  20  24
ENDBRANCH   7  20
TORSDOF 5
ENDMDL
MODEL 7
REMARK VINA RESULT:     -11.2      3.618     10.107
REMARK  Name = 42647297
REMARK  5 active torsions:
REMARK  status: ('A' for Active; 'I' for Inactive)
REMARK    1  A    between atoms: N_3  and  C_14
REMARK    2  A    between atoms: C_7  and  N_20
REMARK    3  A    between atoms: N_20  and  C_24
REMARK    4  A    between atoms: C_22  and  C_31
REMARK    5  A    between atoms: N_30  and  C_33
REMARK                            x       y       z     vdW  Elec       q    Type
REMARK                         _______ _______ _______ _____ _____    ______ ____
ROOT
ATOM      1  O   UNL     1      33.695 -16.831 -25.976  0.00  0.00    -0.269 OA
ATOM      2  N   UNL     1      34.278 -17.195 -23.739  0.00  0.00    -0.240 N 
ATOM      3  N   UNL     1      34.882 -17.065 -21.358  0.00  0.00    -0.174 N 
ATOM      4  N   UNL     1      35.095 -16.137 -20.401  0.00  0.00    -0.171 NA
ATOM      5  C   UNL     1      34.557 -16.522 -22.564  0.00  0.00    +0.133 C 
ATOM      6  C   UNL     1      34.558 -15.166 -22.385  0.00  0.00    +0.064 C 
ATOM      7  C   UNL     1      34.249 -14.313 -23.480  0.00  0.00    +0.057 C 
ATOM      8  C   UNL     1      33.967 -14.900 -24.663  0.00  0.00    +0.073 C 
ATOM      9  C   UNL     1      33.967 -16.399 -24.854  0.00  0.00    +0.255 C 
ATOM     10  C   UNL     1      34.895 -14.975 -21.038  0.00  0.00    +0.122 C 
ATOM     11  C   UNL     1      34.308 -18.649 -23.818  0.00  0.00    +0.122 C 
ENDROOT
BRANCH   3  14
ATOM     12  F   UNL     1      32.663 -18.634 -20.783  0.00  0.00    -0.203 F 
ATOM     13  F   UNL     1      35.430 -22.378 -19.947  0.00  0.00    -0.204 F 
ATOM     14  C   UNL     1      35.018 -18.407 -21.000  0.00  0.00    +0.103 C 
ATOM     15  C   UNL     1      33.888 -19.173 -20.718  0.00  0.00    +0.158 C 
ATOM     16  C   UNL     1      36.287 -18.980 -20.928  0.00  0.00    +0.021 C 
ATOM     17  C   UNL     1      34.028 -20.516 -20.362  0.00  0.00    +0.061 C 
ATOM     18  C   UNL     1      36.427 -20.322 -20.572  0.00  0.00    +0.031 C 
ATOM     19  C   UNL     1      35.297 -21.089 -20.289  0.00  0.00    +0.142 C 
ENDBRANCH   3  14
BRANCH   7  20
ATOM     20  N   UNL     1      34.249 -12.955 -23.309  0.00  0.00    -0.313 N 
ATOM     21  H   UNL     1      35.106 -12.502 -23.477  0.00  0.00    +0.152 HD
BRANCH  20  24
ATOM     22  C   UNL     1      32.137  -9.957 -22.940  0.00  0.00    +0.055 C 
ATOM     23  C   UNL     1      33.188 -10.793 -23.314  0.00  0.00    +0.019 C 
ATOM     24  C   UNL     1      33.188 -12.132 -22.926  0.00  0.00    +0.044 C 
ATOM     25  C   UNL     1      31.082 -10.461 -22.177  0.00  0.00    +0.004 C 
ATOM     26  C   UNL     1      32.133 -12.636 -22.164  0.00  0.00    -0.008 C 
ATOM     27  C   UNL     1      31.081 -11.801 -21.790  0.00  0.00    -0.003 C 
ATOM     28  C   UNL     1      32.105 -14.067 -21.734  0.00  0.00    +0.032 C 
BRANCH  22  31
ATOM     29  O   UNL     1      33.023  -8.120 -24.099  0.00  0.00    -0.270 OA
ATOM     30  N   UNL     1      31.119  -7.747 -22.832  0.00  0.00    -0.302 N 
ATOM     31  C   UNL     1      32.138  -8.560 -23.344  0.00  0.00    +0.246 C 
ATOM     32  H   UNL     1      30.448  -8.157 -22.240  0.00  0.00    +0.150 HD
BRANCH  30  33
ATOM     33  C   UNL     1      31.005  -6.346 -23.127  0.00  0.00    +0.072 C 
ATOM     34  C   UNL     1      31.900  -5.338 -22.466  0.00  0.00    +0.021 C 
ATOM     35  C   UNL     1      30.439  -5.385 -22.122  0.00  0.00    +0.021 C 
ENDBRANCH  30  33
ENDBRANCH  22  31
ENDBRANCH  20  24
ENDBRANCH   7  20
TORSDOF 5
ENDMDL
MODEL 8
REMARK VINA RESULT:     -10.9      1.848      2.625
REMARK  Name = 42647297
REMARK  5 active torsions:
REMARK  status: ('A' for Active; 'I' for Inactive)
REMARK    1  A    between atoms: N_3  and  C_14
REMARK    2  A    between atoms: C_7  and  N_20
REMARK    3  A    between atoms: N_20  and  C_24
REMARK    4  A    between atoms: C_22  and  C_31
REMARK    5  A    between atoms: N_30  and  C_33
REMARK                            x       y       z     vdW  Elec       q    Type
REMARK                         _______ _______ _______ _____ _____    ______ ____
ROOT
ATOM      1  O   UNL     1      31.305 -13.090 -20.647  0.00  0.00    -0.269 OA
ATOM      2  N   UNL     1      31.951 -11.127 -21.742  0.00  0.00    -0.240 N 
ATOM      3  N   UNL     1      32.919  -9.378 -23.177  0.00  0.00    -0.174 N 
ATOM      4  N   UNL     1      33.782  -9.256 -24.207  0.00  0.00    -0.171 NA
ATOM      5  C   UNL     1      32.759 -10.666 -22.765  0.00  0.00    +0.133 C 
ATOM      6  C   UNL     1      33.562 -11.427 -23.570  0.00  0.00    +0.064 C 
ATOM      7  C   UNL     1      33.611 -12.835 -23.384  0.00  0.00    +0.057 C 
ATOM      8  C   UNL     1      32.847 -13.358 -22.401  0.00  0.00    +0.073 C 
ATOM      9  C   UNL     1      31.962 -12.512 -21.514  0.00  0.00    +0.255 C 
ATOM     10  C   UNL     1      34.173 -10.516 -24.443  0.00  0.00    +0.122 C 
ATOM     11  C   UNL     1      31.134 -10.223 -20.943  0.00  0.00    +0.122 C 
ENDROOT
BRANCH   3  14
ATOM     12  F   UNL     1      30.831  -8.145 -24.533  0.00  0.00    -0.203 F 
ATOM     13  F   UNL     1      30.576  -4.771 -21.228  0.00  0.00    -0.204 F 
ATOM     14  C   UNL     1      32.327  -8.214 -22.687  0.00  0.00    +0.103 C 
ATOM     15  C   UNL     1      31.279  -7.614 -23.386  0.00  0.00    +0.158 C 
ATOM     16  C   UNL     1      32.783  -7.651 -21.495  0.00  0.00    +0.021 C 
ATOM     17  C   UNL     1      30.688  -6.451 -22.892  0.00  0.00    +0.061 C 
ATOM     18  C   UNL     1      32.192  -6.488 -21.003  0.00  0.00    +0.031 C 
ATOM     19  C   UNL     1      31.144  -5.888 -21.701  0.00  0.00    +0.142 C 
ENDBRANCH   3  14
BRANCH   7  20
ATOM     20  N   UNL     1      34.413 -13.603 -24.184  0.00  0.00    -0.313 N 
ATOM     21  H   UNL     1      35.178 -13.140 -24.595  0.00  0.00    +0.152 HD
BRANCH  20  24
ATOM     22  C   UNL     1      34.728 -17.268 -23.937  0.00  0.00    +0.055 C 
ATOM     23  C   UNL     1      34.849 -15.909 -23.644  0.00  0.00    +0.019 C 
ATOM     24  C   UNL     1      34.283 -14.959 -24.493  0.00  0.00    +0.044 C 
ATOM     25  C   UNL     1      34.040 -17.676 -25.080  0.00  0.00    +0.004 C 
ATOM     26  C   UNL     1      33.594 -15.367 -25.635  0.00  0.00    -0.008 C 
ATOM     27  C   UNL     1      33.472 -16.725 -25.928  0.00  0.00    -0.003 C 
ATOM     28  C   UNL     1      32.976 -14.372 -26.563  0.00  0.00    +0.032 C 
BRANCH  22  31
ATOM     29  O   UNL     1      36.548 -18.280 -22.856  0.00  0.00    -0.270 OA
ATOM     30  N   UNL     1      34.450 -19.182 -22.458  0.00  0.00    -0.302 N 
ATOM     31  C   UNL     1      35.319 -18.259 -23.052  0.00  0.00    +0.246 C 
ATOM     32  H   UNL     1      33.489 -19.111 -22.653  0.00  0.00    +0.150 HD
BRANCH  30  33
ATOM     33  C   UNL     1      34.893 -20.229 -21.579  0.00  0.00    +0.072 C 
ATOM     34  C   UNL     1      34.199 -20.493 -20.274  0.00  0.00    +0.021 C 
ATOM     35  C   UNL     1      35.584 -19.914 -20.284  0.00  0.00    +0.021 C 
ENDBRANCH  30  33
ENDBRANCH  22  31
ENDBRANCH  20  24
ENDBRANCH   7  20
TORSDOF 5
ENDMDL
MODEL 9
REMARK VINA RESULT:     -10.6      3.613      9.452
REMARK  Name = 42647297
REMARK  5 active torsions:
REMARK  status: ('A' for Active; 'I' for Inactive)
REMARK    1  A    between atoms: N_3  and  C_14
REMARK    2  A    between atoms: C_7  and  N_20
REMARK    3  A    between atoms: N_20  and  C_24
REMARK    4  A    between atoms: C_22  and  C_31
REMARK    5  A    between atoms: N_30  and  C_33
REMARK                            x       y       z     vdW  Elec       q    Type
REMARK                         _______ _______ _______ _____ _____    ______ ____
ROOT
ATOM      1  O   UNL     1      32.319 -13.683 -20.286  0.00  0.00    -0.269 OA
ATOM      2  N   UNL     1      33.329 -15.500 -21.359  0.00  0.00    -0.240 N 
ATOM      3  N   UNL     1      34.374 -17.107 -22.902  0.00  0.00    -0.174 N 
ATOM      4  N   UNL     1      34.744 -17.196 -24.197  0.00  0.00    -0.171 NA
ATOM      5  C   UNL     1      33.809 -15.907 -22.590  0.00  0.00    +0.133 C 
ATOM      6  C   UNL     1      33.808 -15.174 -23.745  0.00  0.00    +0.064 C 
ATOM      7  C   UNL     1      33.275 -13.856 -23.740  0.00  0.00    +0.057 C 
ATOM      8  C   UNL     1      32.786 -13.390 -22.571  0.00  0.00    +0.073 C 
ATOM      9  C   UNL     1      32.789 -14.205 -21.298  0.00  0.00    +0.255 C 
ATOM     10  C   UNL     1      34.393 -16.008 -24.708  0.00  0.00    +0.122 C 
ATOM     11  C   UNL     1      33.379 -16.368 -20.190  0.00  0.00    +0.122 C 
ENDROOT
BRANCH   3  14
ATOM     12  F   UNL     1      36.948 -17.781 -22.101  0.00  0.00    -0.203 F 
ATOM     13  F   UNL     1      35.302 -21.480 -19.657  0.00  0.00    -0.204 F 
ATOM     14  C   UNL     1      34.611 -18.211 -22.084  0.00  0.00    +0.103 C 
ATOM     15  C   UNL     1      35.912 -18.528 -21.695  0.00  0.00    +0.158 C 
ATOM     16  C   UNL     1      33.543 -18.997 -21.653  0.00  0.00    +0.021 C 
ATOM     17  C   UNL     1      36.145 -19.633 -20.874  0.00  0.00    +0.061 C 
ATOM     18  C   UNL     1      33.776 -20.102 -20.834  0.00  0.00    +0.031 C 
ATOM     19  C   UNL     1      35.077 -20.420 -20.444  0.00  0.00    +0.142 C 
ENDBRANCH   3  14
BRANCH   7  20
ATOM     20  N   UNL     1      33.269 -13.117 -24.891  0.00  0.00    -0.313 N 
ATOM     21  H   UNL     1      32.733 -13.480 -25.632  0.00  0.00    +0.152 HD
BRANCH  20  24
ATOM     22  C   UNL     1      34.507  -9.671 -24.454  0.00  0.00    +0.055 C 
ATOM     23  C   UNL     1      33.854 -10.881 -24.214  0.00  0.00    +0.019 C 
ATOM     24  C   UNL     1      33.929 -11.912 -25.148  0.00  0.00    +0.044 C 
ATOM     25  C   UNL     1      35.235  -9.495 -25.631  0.00  0.00    +0.004 C 
ATOM     26  C   UNL     1      34.658 -11.736 -26.325  0.00  0.00    -0.008 C 
ATOM     27  C   UNL     1      35.311 -10.527 -26.566  0.00  0.00    -0.003 C 
ATOM     28  C   UNL     1      34.757 -12.824 -27.344  0.00  0.00    +0.032 C 
BRANCH  22  31
ATOM     29  O   UNL     1      35.336  -7.749 -23.396  0.00  0.00    -0.270 OA
ATOM     30  N   UNL     1      33.305  -8.573 -22.643  0.00  0.00    -0.302 N 
ATOM     31  C   UNL     1      34.428  -8.595 -23.480  0.00  0.00    +0.246 C 
ATOM     32  H   UNL     1      32.621  -9.271 -22.762  0.00  0.00    +0.150 HD
BRANCH  30  33
ATOM     33  C   UNL     1      33.101  -7.584 -21.622  0.00  0.00    +0.072 C 
ATOM     34  C   UNL     1      32.351  -7.909 -20.364  0.00  0.00    +0.021 C 
ATOM     35  C   UNL     1      31.747  -6.985 -21.381  0.00  0.00    +0.021 C 
ENDBRANCH  30  33
ENDBRANCH  22  31
ENDBRANCH  20  24
ENDBRANCH   7  20
TORSDOF 5
ENDMDL
