MODEL 1
REMARK VINA RESULT:      -9.4      0.000      0.000
REMARK  Name = 15547703
REMARK  12 active torsions:
REMARK  status: ('A' for Active; 'I' for Inactive)
REMARK    1  A    between atoms: N_2  and  C_19
REMARK    2  A    between atoms: C_3  and  C_5
REMARK    3  A    between atoms: C_5  and  C_6
REMARK    4  A    between atoms: C_5  and  C_10
REMARK    5  A    between atoms: C_6  and  C_7
REMARK    6  A    between atoms: C_10  and  C_13
REMARK    7  A    between atoms: C_10  and  O_17
REMARK    8  A    between atoms: N_12  and  O_15
REMARK    9  A    between atoms: C_19  and  C_20
REMARK   10  A    between atoms: C_19  and  C_27
REMARK   11  A    between atoms: C_27  and  O_28
REMARK   12  A    between atoms: O_28  and  C_29
REMARK                            x       y       z     vdW  Elec       q    Type
REMARK                         _______ _______ _______ _____ _____    ______ ____
ROOT
ATOM      1  O   UNL     1      35.000 -15.675 -20.253  0.00  0.00    -0.275 OA
ATOM      2  N   UNL     1      34.162 -15.550 -22.410  0.00  0.00    -0.293 N 
ATOM      3  C   UNL     1      34.726 -16.208 -21.326  0.00  0.00    +0.225 C 
ATOM      4  H   UNL     1      33.976 -16.060 -23.232  0.00  0.00    +0.150 HD
ENDROOT
BRANCH   3   5
ATOM      5  C   UNL     1      35.009 -17.685 -21.619  0.00  0.00    +0.112 C 
BRANCH   5   6
ATOM      6  C   UNL     1      35.632 -17.873 -23.020  0.00  0.00    +0.012 C 
BRANCH   6   7
ATOM      7  C   UNL     1      34.646 -18.365 -24.104  0.00  0.00    +0.001 C 
ATOM      8  C   UNL     1      34.997 -19.801 -24.503  0.00  0.00    +0.000 C 
ATOM      9  C   UNL     1      34.650 -17.473 -25.346  0.00  0.00    +0.000 C 
ENDBRANCH   6   7
ENDBRANCH   5   6
BRANCH   5  10
ATOM     10  C   UNL     1      33.689 -18.475 -21.448  0.00  0.00    +0.197 C 
BRANCH  10  13
ATOM     11  O   UNL     1      35.003 -20.090 -20.219  0.00  0.00    -0.270 OA
ATOM     12  N   UNL     1      32.764 -20.526 -20.577  0.00  0.00    -0.195 N 
ATOM     13  C   UNL     1      33.908 -19.773 -20.678  0.00  0.00    +0.272 C 
ATOM     14  H   UNL     1      31.908 -20.230 -20.962  0.00  0.00    +0.182 HD
BRANCH  12  15
ATOM     15  O   UNL     1      32.890 -21.742 -19.893  0.00  0.00    -0.295 OA
ATOM     16  H   UNL     1      32.009 -22.122 -19.745  0.00  0.00    +0.241 HD
ENDBRANCH  12  15
ENDBRANCH  10  13
BRANCH  10  17
ATOM     17  O   UNL     1      32.728 -17.685 -20.765  0.00  0.00    -0.375 OA
ATOM     18  H   UNL     1      31.842 -17.900 -21.091  0.00  0.00    +0.211 HD
ENDBRANCH  10  17
ENDBRANCH   5  10
ENDBRANCH   3   5
BRANCH   2  19
ATOM     19  C   UNL     1      33.841 -14.144 -22.373  0.00  0.00    +0.194 C 
BRANCH  19  20
ATOM     20  C   UNL     1      33.689 -13.581 -23.766  0.00  0.00    +0.006 C 
ATOM     21  C   UNL     1      34.031 -12.254 -24.024  0.00  0.00    -0.002 C 
ATOM     22  C   UNL     1      33.206 -14.390 -24.796  0.00  0.00    -0.002 C 
ATOM     23  C   UNL     1      33.890 -11.734 -25.310  0.00  0.00    -0.000 C 
ATOM     24  C   UNL     1      33.066 -13.870 -26.082  0.00  0.00    -0.000 C 
ATOM     25  C   UNL     1      33.408 -12.542 -26.340  0.00  0.00    -0.000 C 
ENDBRANCH  19  20
BRANCH  19  27
ATOM     26  O   UNL     1      31.765 -14.696 -21.257  0.00  0.00    -0.248 OA
ATOM     27  C   UNL     1      32.621 -13.853 -21.506  0.00  0.00    +0.339 C 
BRANCH  27  28
ATOM     28  O   UNL     1      32.588 -12.555 -21.093  0.00  0.00    -0.451 OA
BRANCH  28  29
ATOM     29  C   UNL     1      31.294 -11.975 -20.982  0.00  0.00    +0.169 C 
ATOM     30  C   UNL     1      31.188 -11.157 -19.704  0.00  0.00    +0.044 C 
ATOM     31  C   UNL     1      31.112 -10.931 -22.074  0.00  0.00    +0.044 C 
ATOM     32  C   UNL     1      31.919  -9.856 -20.030  0.00  0.00    +0.004 C 
ATOM     33  C   UNL     1      31.843  -9.697 -21.549  0.00  0.00    +0.004 C 
ENDBRANCH  28  29
ENDBRANCH  27  28
ENDBRANCH  19  27
ENDBRANCH   2  19
TORSDOF 12
ENDMDL
MODEL 2
REMARK VINA RESULT:      -8.7      7.346     11.951
REMARK  Name = 15547703
REMARK  12 active torsions:
REMARK  status: ('A' for Active; 'I' for Inactive)
REMARK    1  A    between atoms: N_2  and  C_19
REMARK    2  A    between atoms: C_3  and  C_5
REMARK    3  A    between atoms: C_5  and  C_6
REMARK    4  A    between atoms: C_5  and  C_10
REMARK    5  A    between atoms: C_6  and  C_7
REMARK    6  A    between atoms: C_10  and  C_13
REMARK    7  A    between atoms: C_10  and  O_17
REMARK    8  A    between atoms: N_12  and  O_15
REMARK    9  A    between atoms: C_19  and  C_20
REMARK   10  A    between atoms: C_19  and  C_27
REMARK   11  A    between atoms: C_27  and  O_28
REMARK   12  A    between atoms: O_28  and  C_29
REMARK                            x       y       z     vdW  Elec       q    Type
REMARK                         _______ _______ _______ _____ _____    ______ ____
ROOT
ATOM      1  O   UNL     1      35.697 -26.181 -15.826  0.00  0.00    -0.275 OA
ATOM      2  N   UNL     1      35.095 -24.036 -15.184  0.00  0.00    -0.293 N 
ATOM      3  C   UNL     1      35.742 -25.254 -15.021  0.00  0.00    +0.225 C 
ATOM      4  H   UNL     1      35.188 -23.350 -14.484  0.00  0.00    +0.150 HD
ENDROOT
BRANCH   3   5
ATOM      5  C   UNL     1      36.504 -25.339 -13.695  0.00  0.00    +0.112 C 
BRANCH   5   6
ATOM      6  C   UNL     1      35.748 -24.610 -12.561  0.00  0.00    +0.012 C 
BRANCH   6   7
ATOM      7  C   UNL     1      36.615 -24.254 -11.332  0.00  0.00    +0.001 C 
ATOM      8  C   UNL     1      35.791 -24.435 -10.054  0.00  0.00    +0.000 C 
ATOM      9  C   UNL     1      37.158 -22.825 -11.393  0.00  0.00    +0.000 C 
ENDBRANCH   6   7
ENDBRANCH   5   6
BRANCH   5  10
ATOM     10  C   UNL     1      37.927 -24.771 -13.915  0.00  0.00    +0.197 C 
BRANCH  10  13
ATOM     11  O   UNL     1      38.719 -26.991 -14.453  0.00  0.00    -0.270 OA
ATOM     12  N   UNL     1      39.765 -25.177 -15.425  0.00  0.00    -0.195 N 
ATOM     13  C   UNL     1      38.830 -25.779 -14.618  0.00  0.00    +0.272 C 
ATOM     14  H   UNL     1      39.815 -24.199 -15.526  0.00  0.00    +0.182 HD
BRANCH  12  15
ATOM     15  O   UNL     1      40.641 -26.040 -16.096  0.00  0.00    -0.295 OA
ATOM     16  H   UNL     1      41.220 -25.523 -16.679  0.00  0.00    +0.241 HD
ENDBRANCH  12  15
ENDBRANCH  10  13
BRANCH  10  17
ATOM     17  O   UNL     1      37.867 -23.582 -14.687  0.00  0.00    -0.375 OA
ATOM     18  H   UNL     1      37.271 -23.715 -15.440  0.00  0.00    +0.211 HD
ENDBRANCH  10  17
ENDBRANCH   5  10
ENDBRANCH   3   5
BRANCH   2  19
ATOM     19  C   UNL     1      34.289 -23.746 -16.345  0.00  0.00    +0.194 C 
BRANCH  19  20
ATOM     20  C   UNL     1      32.880 -23.372 -15.951  0.00  0.00    +0.006 C 
ATOM     21  C   UNL     1      31.892 -23.245 -16.928  0.00  0.00    -0.002 C 
ATOM     22  C   UNL     1      32.565 -23.155 -14.609  0.00  0.00    -0.002 C 
ATOM     23  C   UNL     1      30.591 -22.899 -16.565  0.00  0.00    -0.000 C 
ATOM     24  C   UNL     1      31.263 -22.809 -14.245  0.00  0.00    -0.000 C 
ATOM     25  C   UNL     1      30.276 -22.681 -15.223  0.00  0.00    -0.000 C 
ENDBRANCH  19  20
BRANCH  19  27
ATOM     26  O   UNL     1      36.125 -22.428 -17.212  0.00  0.00    -0.248 OA
ATOM     27  C   UNL     1      34.927 -22.692 -17.241  0.00  0.00    +0.339 C 
BRANCH  27  28
ATOM     28  O   UNL     1      34.005 -22.067 -18.028  0.00  0.00    -0.451 OA
BRANCH  28  29
ATOM     29  C   UNL     1      34.064 -22.378 -19.414  0.00  0.00    +0.169 C 
ATOM     30  C   UNL     1      33.127 -21.474 -20.201  0.00  0.00    +0.044 C 
ATOM     31  C   UNL     1      35.435 -22.007 -19.958  0.00  0.00    +0.044 C 
ATOM     32  C   UNL     1      33.882 -20.149 -20.301  0.00  0.00    +0.004 C 
ATOM     33  C   UNL     1      35.365 -20.496 -20.176  0.00  0.00    +0.004 C 
ENDBRANCH  28  29
ENDBRANCH  27  28
ENDBRANCH  19  27
ENDBRANCH   2  19
TORSDOF 12
ENDMDL
MODEL 3
REMARK VINA RESULT:      -8.7      1.811      2.867
REMARK  Name = 15547703
REMARK  12 active torsions:
REMARK  status: ('A' for Active; 'I' for Inactive)
REMARK    1  A    between atoms: N_2  and  C_19
REMARK    2  A    between atoms: C_3  and  C_5
REMARK    3  A    between atoms: C_5  and  C_6
REMARK    4  A    between atoms: C_5  and  C_10
REMARK    5  A    between atoms: C_6  and  C_7
REMARK    6  A    between atoms: C_10  and  C_13
REMARK    7  A    between atoms: C_10  and  O_17
REMARK    8  A    between atoms: N_12  and  O_15
REMARK    9  A    between atoms: C_19  and  C_20
REMARK   10  A    between atoms: C_19  and  C_27
REMARK   11  A    between atoms: C_27  and  O_28
REMARK   12  A    between atoms: O_28  and  C_29
REMARK                            x       y       z     vdW  Elec       q    Type
REMARK                         _______ _______ _______ _____ _____    ______ ____
ROOT
ATOM      1  O   UNL     1      34.968 -15.866 -20.651  0.00  0.00    -0.275 OA
ATOM      2  N   UNL     1      33.854 -15.534 -22.657  0.00  0.00    -0.293 N 
ATOM      3  C   UNL     1      34.491 -16.306 -21.695  0.00  0.00    +0.225 C 
ATOM      4  H   UNL     1      33.502 -15.974 -23.464  0.00  0.00    +0.150 HD
ENDROOT
BRANCH   3   5
ATOM      5  C   UNL     1      34.570 -17.784 -22.088  0.00  0.00    +0.112 C 
BRANCH   5   6
ATOM      6  C   UNL     1      34.966 -18.668 -20.884  0.00  0.00    +0.012 C 
BRANCH   6   7
ATOM      7  C   UNL     1      34.335 -20.079 -20.883  0.00  0.00    +0.001 C 
ATOM      8  C   UNL     1      32.849 -19.976 -20.526  0.00  0.00    +0.000 C 
ATOM      9  C   UNL     1      35.031 -21.030 -19.908  0.00  0.00    +0.000 C 
ENDBRANCH   6   7
ENDBRANCH   5   6
BRANCH   5  10
ATOM     10  C   UNL     1      35.558 -17.920 -23.271  0.00  0.00    +0.197 C 
BRANCH  10  13
ATOM     11  O   UNL     1      34.238 -18.054 -25.292  0.00  0.00    -0.270 OA
ATOM     12  N   UNL     1      35.185 -19.987 -24.459  0.00  0.00    -0.195 N 
ATOM     13  C   UNL     1      34.920 -18.639 -24.455  0.00  0.00    +0.272 C 
ATOM     14  H   UNL     1      35.739 -20.412 -23.764  0.00  0.00    +0.182 HD
BRANCH  12  15
ATOM     15  O   UNL     1      34.621 -20.719 -25.511  0.00  0.00    -0.295 OA
ATOM     16  H   UNL     1      35.132 -20.566 -26.321  0.00  0.00    +0.241 HD
ENDBRANCH  12  15
ENDBRANCH  10  13
BRANCH  10  17
ATOM     17  O   UNL     1      36.002 -16.639 -23.689  0.00  0.00    -0.375 OA
ATOM     18  H   UNL     1      36.096 -16.628 -24.654  0.00  0.00    +0.211 HD
ENDBRANCH  10  17
ENDBRANCH   5  10
ENDBRANCH   3   5
BRANCH   2  19
ATOM     19  C   UNL     1      33.695 -14.107 -22.513  0.00  0.00    +0.194 C 
BRANCH  19  20
ATOM     20  C   UNL     1      33.636 -13.426 -23.860  0.00  0.00    +0.006 C 
ATOM     21  C   UNL     1      33.201 -14.132 -24.981  0.00  0.00    -0.002 C 
ATOM     22  C   UNL     1      34.017 -12.089 -23.982  0.00  0.00    -0.002 C 
ATOM     23  C   UNL     1      33.147 -13.504 -26.225  0.00  0.00    -0.000 C 
ATOM     24  C   UNL     1      33.963 -11.460 -25.226  0.00  0.00    -0.000 C 
ATOM     25  C   UNL     1      33.528 -12.168 -26.348  0.00  0.00    -0.000 C 
ENDBRANCH  19  20
BRANCH  19  27
ATOM     26  O   UNL     1      31.620 -14.550 -21.347  0.00  0.00    -0.248 OA
ATOM     27  C   UNL     1      32.499 -13.745 -21.641  0.00  0.00    +0.339 C 
BRANCH  27  28
ATOM     28  O   UNL     1      32.513 -12.432 -21.277  0.00  0.00    -0.451 OA
BRANCH  28  29
ATOM     29  C   UNL     1      31.239 -11.814 -21.143  0.00  0.00    +0.169 C 
ATOM     30  C   UNL     1      31.160 -11.040 -19.836  0.00  0.00    +0.044 C 
ATOM     31  C   UNL     1      31.091 -10.726 -22.195  0.00  0.00    +0.044 C 
ATOM     32  C   UNL     1      31.934  -9.753 -20.116  0.00  0.00    +0.004 C 
ATOM     33  C   UNL     1      31.863  -9.536 -21.627  0.00  0.00    +0.004 C 
ENDBRANCH  28  29
ENDBRANCH  27  28
ENDBRANCH  19  27
ENDBRANCH   2  19
TORSDOF 12
ENDMDL
MODEL 4
REMARK VINA RESULT:      -8.2      7.997     11.434
REMARK  Name = 15547703
REMARK  12 active torsions:
REMARK  status: ('A' for Active; 'I' for Inactive)
REMARK    1  A    between atoms: N_2  and  C_19
REMARK    2  A    between atoms: C_3  and  C_5
REMARK    3  A    between atoms: C_5  and  C_6
REMARK    4  A    between atoms: C_5  and  C_10
REMARK    5  A    between atoms: C_6  and  C_7
REMARK    6  A    between atoms: C_10  and  C_13
REMARK    7  A    between atoms: C_10  and  O_17
REMARK    8  A    between atoms: N_12  and  O_15
REMARK    9  A    between atoms: C_19  and  C_20
REMARK   10  A    between atoms: C_19  and  C_27
REMARK   11  A    between atoms: C_27  and  O_28
REMARK   12  A    between atoms: O_28  and  C_29
REMARK                            x       y       z     vdW  Elec       q    Type
REMARK                         _______ _______ _______ _____ _____    ______ ____
ROOT
ATOM      1  O   UNL     1      33.903 -23.206 -14.183  0.00  0.00    -0.275 OA
ATOM      2  N   UNL     1      35.075 -23.386 -16.175  0.00  0.00    -0.293 N 
ATOM      3  C   UNL     1      34.888 -23.585 -14.814  0.00  0.00    +0.225 C 
ATOM      4  H   UNL     1      35.897 -23.725 -16.597  0.00  0.00    +0.150 HD
ENDROOT
BRANCH   3   5
ATOM      5  C   UNL     1      36.070 -24.307 -14.160  0.00  0.00    +0.112 C 
BRANCH   5   6
ATOM      6  C   UNL     1      37.140 -23.307 -13.669  0.00  0.00    +0.012 C 
BRANCH   6   7
ATOM      7  C   UNL     1      37.338 -23.273 -12.137  0.00  0.00    +0.001 C 
ATOM      8  C   UNL     1      38.665 -23.947 -11.776  0.00  0.00    +0.000 C 
ATOM      9  C   UNL     1      36.195 -23.958 -11.384  0.00  0.00    +0.000 C 
ENDBRANCH   6   7
ENDBRANCH   5   6
BRANCH   5  10
ATOM     10  C   UNL     1      36.637 -25.328 -15.175  0.00  0.00    +0.197 C 
BRANCH  10  13
ATOM     11  O   UNL     1      37.651 -26.906 -13.650  0.00  0.00    -0.270 OA
ATOM     12  N   UNL     1      38.994 -25.844 -15.200  0.00  0.00    -0.195 N 
ATOM     13  C   UNL     1      37.797 -26.121 -14.584  0.00  0.00    +0.272 C 
ATOM     14  H   UNL     1      39.062 -25.205 -15.945  0.00  0.00    +0.182 HD
BRANCH  12  15
ATOM     15  O   UNL     1      40.112 -26.526 -14.701  0.00  0.00    -0.295 OA
ATOM     16  H   UNL     1      39.832 -27.130 -13.994  0.00  0.00    +0.241 HD
ENDBRANCH  12  15
ENDBRANCH  10  13
BRANCH  10  17
ATOM     17  O   UNL     1      35.620 -26.228 -15.587  0.00  0.00    -0.375 OA
ATOM     18  H   UNL     1      35.955 -26.789 -16.303  0.00  0.00    +0.211 HD
ENDBRANCH  10  17
ENDBRANCH   5  10
ENDBRANCH   3   5
BRANCH   2  19
ATOM     19  C   UNL     1      34.103 -22.697 -16.990  0.00  0.00    +0.194 C 
BRANCH  19  20
ATOM     20  C   UNL     1      34.764 -22.008 -18.161  0.00  0.00    +0.006 C 
ATOM     21  C   UNL     1      33.988 -21.518 -19.211  0.00  0.00    -0.002 C 
ATOM     22  C   UNL     1      36.151 -21.860 -18.191  0.00  0.00    -0.002 C 
ATOM     23  C   UNL     1      34.597 -20.882 -20.292  0.00  0.00    -0.000 C 
ATOM     24  C   UNL     1      36.761 -21.223 -19.272  0.00  0.00    -0.000 C 
ATOM     25  C   UNL     1      35.984 -20.734 -20.323  0.00  0.00    -0.000 C 
ENDBRANCH  19  20
BRANCH  19  27
ATOM     26  O   UNL     1      33.150 -24.601 -18.140  0.00  0.00    -0.248 OA
ATOM     27  C   UNL     1      32.970 -23.613 -17.436  0.00  0.00    +0.339 C 
BRANCH  27  28
ATOM     28  O   UNL     1      31.757 -23.173 -16.996  0.00  0.00    -0.451 OA
BRANCH  28  29
ATOM     29  C   UNL     1      31.271 -23.789 -15.810  0.00  0.00    +0.169 C 
ATOM     30  C   UNL     1      30.605 -22.757 -14.912  0.00  0.00    +0.044 C 
ATOM     31  C   UNL     1      30.126 -24.728 -16.160  0.00  0.00    +0.044 C 
ATOM     32  C   UNL     1      29.235 -22.533 -15.551  0.00  0.00    +0.004 C 
ATOM     33  C   UNL     1      28.915 -23.811 -16.326  0.00  0.00    +0.004 C 
ENDBRANCH  28  29
ENDBRANCH  27  28
ENDBRANCH  19  27
ENDBRANCH   2  19
TORSDOF 12
ENDMDL
MODEL 5
REMARK VINA RESULT:      -8.0      6.547     10.618
REMARK  Name = 15547703
REMARK  12 active torsions:
REMARK  status: ('A' for Active; 'I' for Inactive)
REMARK    1  A    between atoms: N_2  and  C_19
REMARK    2  A    between atoms: C_3  and  C_5
REMARK    3  A    between atoms: C_5  and  C_6
REMARK    4  A    between atoms: C_5  and  C_10
REMARK    5  A    between atoms: C_6  and  C_7
REMARK    6  A    between atoms: C_10  and  C_13
REMARK    7  A    between atoms: C_10  and  O_17
REMARK    8  A    between atoms: N_12  and  O_15
REMARK    9  A    between atoms: C_19  and  C_20
REMARK   10  A    between atoms: C_19  and  C_27
REMARK   11  A    between atoms: C_27  and  O_28
REMARK   12  A    between atoms: O_28  and  C_29
REMARK                            x       y       z     vdW  Elec       q    Type
REMARK                         _______ _______ _______ _____ _____    ______ ____
ROOT
ATOM      1  O   UNL     1      33.825 -24.713 -17.155  0.00  0.00    -0.275 OA
ATOM      2  N   UNL     1      33.611 -22.434 -17.522  0.00  0.00    -0.293 N 
ATOM      3  C   UNL     1      33.234 -23.650 -16.971  0.00  0.00    +0.225 C 
ATOM      4  H   UNL     1      33.076 -21.632 -17.319  0.00  0.00    +0.150 HD
ENDROOT
BRANCH   3   5
ATOM      5  C   UNL     1      31.965 -23.540 -16.120  0.00  0.00    +0.112 C 
BRANCH   5   6
ATOM      6  C   UNL     1      30.901 -22.655 -16.807  0.00  0.00    +0.012 C 
BRANCH   6   7
ATOM      7  C   UNL     1      29.449 -23.168 -16.671  0.00  0.00    +0.001 C 
ATOM      8  C   UNL     1      28.695 -22.309 -15.651  0.00  0.00    +0.000 C 
ATOM      9  C   UNL     1      29.385 -24.637 -16.249  0.00  0.00    +0.000 C 
ENDBRANCH   6   7
ENDBRANCH   5   6
BRANCH   5  10
ATOM     10  C   UNL     1      32.362 -23.008 -14.722  0.00  0.00    +0.197 C 
BRANCH  10  13
ATOM     11  O   UNL     1      32.819 -24.792 -13.155  0.00  0.00    -0.270 OA
ATOM     12  N   UNL     1      30.686 -23.913 -13.240  0.00  0.00    -0.195 N 
ATOM     13  C   UNL     1      32.003 -24.002 -13.622  0.00  0.00    +0.272 C 
ATOM     14  H   UNL     1      30.068 -23.262 -13.644  0.00  0.00    +0.182 HD
BRANCH  12  15
ATOM     15  O   UNL     1      30.277 -24.805 -12.240  0.00  0.00    -0.295 OA
ATOM     16  H   UNL     1      30.888 -25.558 -12.210  0.00  0.00    +0.241 HD
ENDBRANCH  12  15
ENDBRANCH  10  13
BRANCH  10  17
ATOM     17  O   UNL     1      33.755 -22.745 -14.674  0.00  0.00    -0.375 OA
ATOM     18  H   UNL     1      33.938 -22.094 -13.980  0.00  0.00    +0.211 HD
ENDBRANCH  10  17
ENDBRANCH   5  10
ENDBRANCH   3   5
BRANCH   2  19
ATOM     19  C   UNL     1      34.760 -22.306 -18.386  0.00  0.00    +0.194 C 
BRANCH  19  20
ATOM     20  C   UNL     1      34.505 -21.306 -19.489  0.00  0.00    +0.006 C 
ATOM     21  C   UNL     1      33.208 -20.858 -19.739  0.00  0.00    -0.002 C 
ATOM     22  C   UNL     1      35.568 -20.830 -20.258  0.00  0.00    -0.002 C 
ATOM     23  C   UNL     1      32.972 -19.935 -20.758  0.00  0.00    -0.000 C 
ATOM     24  C   UNL     1      35.332 -19.907 -21.276  0.00  0.00    -0.000 C 
ATOM     25  C   UNL     1      34.034 -19.459 -21.527  0.00  0.00    -0.000 C 
ENDBRANCH  19  20
BRANCH  19  27
ATOM     26  O   UNL     1      36.757 -21.034 -17.886  0.00  0.00    -0.248 OA
ATOM     27  C   UNL     1      36.032 -21.985 -17.611  0.00  0.00    +0.339 C 
BRANCH  27  28
ATOM     28  O   UNL     1      36.273 -22.897 -16.628  0.00  0.00    -0.451 OA
BRANCH  28  29
ATOM     29  C   UNL     1      37.279 -22.541 -15.689  0.00  0.00    +0.169 C 
ATOM     30  C   UNL     1      36.789 -22.783 -14.269  0.00  0.00    +0.044 C 
ATOM     31  C   UNL     1      38.452 -23.503 -15.815  0.00  0.00    +0.044 C 
ATOM     32  C   UNL     1      36.920 -24.293 -14.080  0.00  0.00    +0.004 C 
ATOM     33  C   UNL     1      38.009 -24.749 -15.051  0.00  0.00    +0.004 C 
ENDBRANCH  28  29
ENDBRANCH  27  28
ENDBRANCH  19  27
ENDBRANCH   2  19
TORSDOF 12
ENDMDL
MODEL 6
REMARK VINA RESULT:      -8.0      7.962     11.317
REMARK  Name = 15547703
REMARK  12 active torsions:
REMARK  status: ('A' for Active; 'I' for Inactive)
REMARK    1  A    between atoms: N_2  and  C_19
REMARK    2  A    between atoms: C_3  and  C_5
REMARK    3  A    between atoms: C_5  and  C_6
REMARK    4  A    between atoms: C_5  and  C_10
REMARK    5  A    between atoms: C_6  and  C_7
REMARK    6  A    between atoms: C_10  and  C_13
REMARK    7  A    between atoms: C_10  and  O_17
REMARK    8  A    between atoms: N_12  and  O_15
REMARK    9  A    between atoms: C_19  and  C_20
REMARK   10  A    between atoms: C_19  and  C_27
REMARK   11  A    between atoms: C_27  and  O_28
REMARK   12  A    between atoms: O_28  and  C_29
REMARK                            x       y       z     vdW  Elec       q    Type
REMARK                         _______ _______ _______ _____ _____    ______ ____
ROOT
ATOM      1  O   UNL     1      34.318 -22.349 -14.249  0.00  0.00    -0.275 OA
ATOM      2  N   UNL     1      35.160 -23.260 -16.208  0.00  0.00    -0.293 N 
ATOM      3  C   UNL     1      35.140 -23.050 -14.836  0.00  0.00    +0.225 C 
ATOM      4  H   UNL     1      35.859 -23.839 -16.590  0.00  0.00    +0.150 HD
ENDROOT
BRANCH   3   5
ATOM      5  C   UNL     1      36.288 -23.765 -14.116  0.00  0.00    +0.112 C 
BRANCH   5   6
ATOM      6  C   UNL     1      37.255 -24.431 -15.120  0.00  0.00    +0.012 C 
BRANCH   6   7
ATOM      7  C   UNL     1      37.804 -25.805 -14.673  0.00  0.00    +0.001 C 
ATOM      8  C   UNL     1      39.323 -25.837 -14.863  0.00  0.00    +0.000 C 
ATOM      9  C   UNL     1      37.168 -26.967 -15.439  0.00  0.00    +0.000 C 
ENDBRANCH   6   7
ENDBRANCH   5   6
BRANCH   5  10
ATOM     10  C   UNL     1      35.678 -24.781 -13.121  0.00  0.00    +0.197 C 
BRANCH  10  13
ATOM     11  O   UNL     1      35.379 -24.934 -10.726  0.00  0.00    -0.270 OA
ATOM     12  N   UNL     1      36.717 -23.252 -11.570  0.00  0.00    -0.195 N 
ATOM     13  C   UNL     1      35.899 -24.351 -11.674  0.00  0.00    +0.272 C 
ATOM     14  H   UNL     1      37.111 -22.818 -12.360  0.00  0.00    +0.182 HD
BRANCH  12  15
ATOM     15  O   UNL     1      36.957 -22.789 -10.270  0.00  0.00    -0.295 OA
ATOM     16  H   UNL     1      36.788 -23.504  -9.636  0.00  0.00    +0.241 HD
ENDBRANCH  12  15
ENDBRANCH  10  13
BRANCH  10  17
ATOM     17  O   UNL     1      34.286 -24.925 -13.356  0.00  0.00    -0.375 OA
ATOM     18  H   UNL     1      34.099 -24.773 -14.295  0.00  0.00    +0.211 HD
ENDBRANCH  10  17
ENDBRANCH   5  10
ENDBRANCH   3   5
BRANCH   2  19
ATOM     19  C   UNL     1      34.192 -22.656 -17.090  0.00  0.00    +0.194 C 
BRANCH  19  20
ATOM     20  C   UNL     1      34.868 -21.964 -18.250  0.00  0.00    +0.006 C 
ATOM     21  C   UNL     1      36.257 -21.837 -18.274  0.00  0.00    -0.002 C 
ATOM     22  C   UNL     1      34.103 -21.451 -19.298  0.00  0.00    -0.002 C 
ATOM     23  C   UNL     1      36.881 -21.197 -19.344  0.00  0.00    -0.000 C 
ATOM     24  C   UNL     1      34.727 -20.811 -20.369  0.00  0.00    -0.000 C 
ATOM     25  C   UNL     1      36.117 -20.684 -20.392  0.00  0.00    -0.000 C 
ENDBRANCH  19  20
BRANCH  19  27
ATOM     26  O   UNL     1      33.390 -24.577 -18.325  0.00  0.00    -0.248 OA
ATOM     27  C   UNL     1      33.138 -23.652 -17.560  0.00  0.00    +0.339 C 
BRANCH  27  28
ATOM     28  O   UNL     1      31.903 -23.358 -17.064  0.00  0.00    -0.451 OA
BRANCH  28  29
ATOM     29  C   UNL     1      31.629 -23.850 -15.758  0.00  0.00    +0.169 C 
ATOM     30  C   UNL     1      31.051 -22.745 -14.886  0.00  0.00    +0.044 C 
ATOM     31  C   UNL     1      30.494 -24.861 -15.827  0.00  0.00    +0.044 C 
ATOM     32  C   UNL     1      29.592 -22.642 -15.329  0.00  0.00    +0.004 C 
ATOM     33  C   UNL     1      29.227 -24.010 -15.905  0.00  0.00    +0.004 C 
ENDBRANCH  28  29
ENDBRANCH  27  28
ENDBRANCH  19  27
ENDBRANCH   2  19
TORSDOF 12
ENDMDL
MODEL 7
REMARK VINA RESULT:      -7.9      7.862     11.690
REMARK  Name = 15547703
REMARK  12 active torsions:
REMARK  status: ('A' for Active; 'I' for Inactive)
REMARK    1  A    between atoms: N_2  and  C_19
REMARK    2  A    between atoms: C_3  and  C_5
REMARK    3  A    between atoms: C_5  and  C_6
REMARK    4  A    between atoms: C_5  and  C_10
REMARK    5  A    between atoms: C_6  and  C_7
REMARK    6  A    between atoms: C_10  and  C_13
REMARK    7  A    between atoms: C_10  and  O_17
REMARK    8  A    between atoms: N_12  and  O_15
REMARK    9  A    between atoms: C_19  and  C_20
REMARK   10  A    between atoms: C_19  and  C_27
REMARK   11  A    between atoms: C_27  and  O_28
REMARK   12  A    between atoms: O_28  and  C_29
REMARK                            x       y       z     vdW  Elec       q    Type
REMARK                         _______ _______ _______ _____ _____    ______ ____
ROOT
ATOM      1  O   UNL     1      36.037 -22.457 -14.746  0.00  0.00    -0.275 OA
ATOM      2  N   UNL     1      35.048 -23.678 -16.451  0.00  0.00    -0.293 N 
ATOM      3  C   UNL     1      35.895 -23.510 -15.364  0.00  0.00    +0.225 C 
ATOM      4  H   UNL     1      34.999 -24.560 -16.885  0.00  0.00    +0.150 HD
ENDROOT
BRANCH   3   5
ATOM      5  C   UNL     1      36.677 -24.784 -15.029  0.00  0.00    +0.112 C 
BRANCH   5   6
ATOM      6  C   UNL     1      36.091 -25.496 -13.790  0.00  0.00    +0.012 C 
BRANCH   6   7
ATOM      7  C   UNL     1      36.579 -24.938 -12.434  0.00  0.00    +0.001 C 
ATOM      8  C   UNL     1      37.414 -26.000 -11.713  0.00  0.00    +0.000 C 
ATOM      9  C   UNL     1      35.424 -24.498 -11.533  0.00  0.00    +0.000 C 
ENDBRANCH   6   7
ENDBRANCH   5   6
BRANCH   5  10
ATOM     10  C   UNL     1      38.166 -24.406 -14.843  0.00  0.00    +0.197 C 
BRANCH  10  13
ATOM     11  O   UNL     1      38.643 -26.768 -15.031  0.00  0.00    -0.270 OA
ATOM     12  N   UNL     1      40.324 -25.352 -14.325  0.00  0.00    -0.195 N 
ATOM     13  C   UNL     1      39.052 -25.643 -14.754  0.00  0.00    +0.272 C 
ATOM     14  H   UNL     1      40.606 -24.433 -14.114  0.00  0.00    +0.182 HD
BRANCH  12  15
ATOM     15  O   UNL     1      41.195 -26.443 -14.205  0.00  0.00    -0.295 OA
ATOM     16  H   UNL     1      42.002 -26.162 -13.745  0.00  0.00    +0.241 HD
ENDBRANCH  12  15
ENDBRANCH  10  13
BRANCH  10  17
ATOM     17  O   UNL     1      38.605 -23.595 -15.922  0.00  0.00    -0.375 OA
ATOM     18  H   UNL     1      38.764 -22.693 -15.605  0.00  0.00    +0.211 HD
ENDBRANCH  10  17
ENDBRANCH   5  10
ENDBRANCH   3   5
BRANCH   2  19
ATOM     19  C   UNL     1      34.237 -22.600 -16.964  0.00  0.00    +0.194 C 
BRANCH  19  20
ATOM     20  C   UNL     1      34.860 -21.988 -18.196  0.00  0.00    +0.006 C 
ATOM     21  C   UNL     1      34.051 -21.553 -19.246  0.00  0.00    -0.002 C 
ATOM     22  C   UNL     1      36.247 -21.856 -18.285  0.00  0.00    -0.002 C 
ATOM     23  C   UNL     1      34.626 -20.989 -20.384  0.00  0.00    -0.000 C 
ATOM     24  C   UNL     1      36.822 -21.292 -19.423  0.00  0.00    -0.000 C 
ATOM     25  C   UNL     1      36.012 -20.857 -20.473  0.00  0.00    -0.000 C 
ENDBRANCH  19  20
BRANCH  19  27
ATOM     26  O   UNL     1      32.145 -22.654 -18.181  0.00  0.00    -0.248 OA
ATOM     27  C   UNL     1      32.795 -23.028 -17.210  0.00  0.00    +0.339 C 
BRANCH  27  28
ATOM     28  O   UNL     1      32.324 -23.826 -16.210  0.00  0.00    -0.451 OA
BRANCH  28  29
ATOM     29  C   UNL     1      31.937 -23.157 -15.017  0.00  0.00    +0.169 C 
ATOM     30  C   UNL     1      30.430 -23.242 -14.825  0.00  0.00    +0.044 C 
ATOM     31  C   UNL     1      32.479 -23.914 -13.814  0.00  0.00    +0.044 C 
ATOM     32  C   UNL     1      30.199 -24.657 -14.298  0.00  0.00    +0.004 C 
ATOM     33  C   UNL     1      31.505 -25.075 -13.622  0.00  0.00    +0.004 C 
ENDBRANCH  28  29
ENDBRANCH  27  28
ENDBRANCH  19  27
ENDBRANCH   2  19
TORSDOF 12
ENDMDL
MODEL 8
REMARK VINA RESULT:      -7.8      7.346     11.723
REMARK  Name = 15547703
REMARK  12 active torsions:
REMARK  status: ('A' for Active; 'I' for Inactive)
REMARK    1  A    between atoms: N_2  and  C_19
REMARK    2  A    between atoms: C_3  and  C_5
REMARK    3  A    between atoms: C_5  and  C_6
REMARK    4  A    between atoms: C_5  and  C_10
REMARK    5  A    between atoms: C_6  and  C_7
REMARK    6  A    between atoms: C_10  and  C_13
REMARK    7  A    between atoms: C_10  and  O_17
REMARK    8  A    between atoms: N_12  and  O_15
REMARK    9  A    between atoms: C_19  and  C_20
REMARK   10  A    between atoms: C_19  and  C_27
REMARK   11  A    between atoms: C_27  and  O_28
REMARK   12  A    between atoms: O_28  and  C_29
REMARK                            x       y       z     vdW  Elec       q    Type
REMARK                         _______ _______ _______ _____ _____    ______ ____
ROOT
ATOM      1  O   UNL     1      35.696 -26.084 -15.746  0.00  0.00    -0.275 OA
ATOM      2  N   UNL     1      36.011 -23.792 -15.607  0.00  0.00    -0.293 N 
ATOM      3  C   UNL     1      36.242 -25.109 -15.235  0.00  0.00    +0.225 C 
ATOM      4  H   UNL     1      36.495 -23.073 -15.139  0.00  0.00    +0.150 HD
ENDROOT
BRANCH   3   5
ATOM      5  C   UNL     1      37.239 -25.224 -14.077  0.00  0.00    +0.112 C 
BRANCH   5   6
ATOM      6  C   UNL     1      38.188 -26.428 -14.268  0.00  0.00    +0.012 C 
BRANCH   6   7
ATOM      7  C   UNL     1      39.560 -26.076 -14.887  0.00  0.00    +0.001 C 
ATOM      8  C   UNL     1      40.671 -26.379 -13.878  0.00  0.00    +0.000 C 
ATOM      9  C   UNL     1      39.648 -24.612 -15.321  0.00  0.00    +0.000 C 
ENDBRANCH   6   7
ENDBRANCH   5   6
BRANCH   5  10
ATOM     10  C   UNL     1      36.440 -25.307 -12.755  0.00  0.00    +0.197 C 
BRANCH  10  13
ATOM     11  O   UNL     1      37.078 -24.513 -10.562  0.00  0.00    -0.270 OA
ATOM     12  N   UNL     1      37.092 -23.023 -12.326  0.00  0.00    -0.195 N 
ATOM     13  C   UNL     1      36.906 -24.257 -11.751  0.00  0.00    +0.272 C 
ATOM     14  H   UNL     1      36.942 -22.867 -13.286  0.00  0.00    +0.182 HD
BRANCH  12  15
ATOM     15  O   UNL     1      37.510 -22.002 -11.463  0.00  0.00    -0.295 OA
ATOM     16  H   UNL     1      38.363 -22.243 -11.067  0.00  0.00    +0.241 HD
ENDBRANCH  12  15
ENDBRANCH  10  13
BRANCH  10  17
ATOM     17  O   UNL     1      35.055 -25.127 -13.005  0.00  0.00    -0.375 OA
ATOM     18  H   UNL     1      34.582 -25.952 -12.815  0.00  0.00    +0.211 HD
ENDBRANCH  10  17
ENDBRANCH   5  10
ENDBRANCH   3   5
BRANCH   2  19
ATOM     19  C   UNL     1      35.082 -23.442 -16.655  0.00  0.00    +0.194 C 
BRANCH  19  20
ATOM     20  C   UNL     1      33.685 -23.265 -16.109  0.00  0.00    +0.006 C 
ATOM     21  C   UNL     1      33.497 -22.923 -14.770  0.00  0.00    -0.002 C 
ATOM     22  C   UNL     1      32.582 -23.443 -16.946  0.00  0.00    -0.002 C 
ATOM     23  C   UNL     1      32.207 -22.760 -14.267  0.00  0.00    -0.000 C 
ATOM     24  C   UNL     1      31.292 -23.279 -16.442  0.00  0.00    -0.000 C 
ATOM     25  C   UNL     1      31.104 -22.938 -15.102  0.00  0.00    -0.000 C 
ENDBRANCH  19  20
BRANCH  19  27
ATOM     26  O   UNL     1      36.677 -21.770 -17.375  0.00  0.00    -0.248 OA
ATOM     27  C   UNL     1      35.540 -22.226 -17.450  0.00  0.00    +0.339 C 
BRANCH  27  28
ATOM     28  O   UNL     1      34.533 -21.700 -18.202  0.00  0.00    -0.451 OA
BRANCH  28  29
ATOM     29  C   UNL     1      34.540 -22.055 -19.579  0.00  0.00    +0.169 C 
ATOM     30  C   UNL     1      33.325 -21.470 -20.283  0.00  0.00    +0.044 C 
ATOM     31  C   UNL     1      35.704 -21.364 -20.273  0.00  0.00    +0.044 C 
ATOM     32  C   UNL     1      33.685 -20.001 -20.494  0.00  0.00    +0.004 C 
ATOM     33  C   UNL     1      35.212 -19.938 -20.518  0.00  0.00    +0.004 C 
ENDBRANCH  28  29
ENDBRANCH  27  28
ENDBRANCH  19  27
ENDBRANCH   2  19
TORSDOF 12
ENDMDL
MODEL 9
REMARK VINA RESULT:      -7.6      2.658      3.557
REMARK  Name = 15547703
REMARK  12 active torsions:
REMARK  status: ('A' for Active; 'I' for Inactive)
REMARK    1  A    between atoms: N_2  and  C_19
REMARK    2  A    between atoms: C_3  and  C_5
REMARK    3  A    between atoms: C_5  and  C_6
REMARK    4  A    between atoms: C_5  and  C_10
REMARK    5  A    between atoms: C_6  and  C_7
REMARK    6  A    between atoms: C_10  and  C_13
REMARK    7  A    between atoms: C_10  and  O_17
REMARK    8  A    between atoms: N_12  and  O_15
REMARK    9  A    between atoms: C_19  and  C_20
REMARK   10  A    between atoms: C_19  and  C_27
REMARK   11  A    between atoms: C_27  and  O_28
REMARK   12  A    between atoms: O_28  and  C_29
REMARK                            x       y       z     vdW  Elec       q    Type
REMARK                         _______ _______ _______ _____ _____    ______ ____
ROOT
ATOM      1  O   UNL     1      34.969 -14.431 -21.426  0.00  0.00    -0.275 OA
ATOM      2  N   UNL     1      33.489 -13.893 -23.128  0.00  0.00    -0.293 N 
ATOM      3  C   UNL     1      34.164 -14.771 -22.291  0.00  0.00    +0.225 C 
ATOM      4  H   UNL     1      32.861 -14.257 -23.793  0.00  0.00    +0.150 HD
ENDROOT
BRANCH   3   5
ATOM      5  C   UNL     1      33.824 -16.236 -22.582  0.00  0.00    +0.112 C 
BRANCH   5   6
ATOM      6  C   UNL     1      33.897 -17.098 -21.302  0.00  0.00    +0.012 C 
BRANCH   6   7
ATOM      7  C   UNL     1      34.390 -18.546 -21.526  0.00  0.00    +0.001 C 
ATOM      8  C   UNL     1      33.404 -19.527 -20.885  0.00  0.00    +0.000 C 
ATOM      9  C   UNL     1      35.790 -18.782 -20.957  0.00  0.00    +0.000 C 
ENDBRANCH   6   7
ENDBRANCH   5   6
BRANCH   5  10
ATOM     10  C   UNL     1      34.777 -16.744 -23.691  0.00  0.00    +0.197 C 
BRANCH  10  13
ATOM     11  O   UNL     1      33.908 -18.094 -25.499  0.00  0.00    -0.270 OA
ATOM     12  N   UNL     1      33.557 -15.812 -25.553  0.00  0.00    -0.195 N 
ATOM     13  C   UNL     1      34.036 -16.977 -25.004  0.00  0.00    +0.272 C 
ATOM     14  H   UNL     1      33.685 -14.939 -25.118  0.00  0.00    +0.182 HD
BRANCH  12  15
ATOM     15  O   UNL     1      32.874 -15.945 -26.769  0.00  0.00    -0.295 OA
ATOM     16  H   UNL     1      33.402 -16.486 -27.378  0.00  0.00    +0.241 HD
ENDBRANCH  12  15
ENDBRANCH  10  13
BRANCH  10  17
ATOM     17  O   UNL     1      35.823 -15.809 -23.906  0.00  0.00    -0.375 OA
ATOM     18  H   UNL     1      35.520 -15.120 -24.516  0.00  0.00    +0.211 HD
ENDBRANCH  10  17
ENDBRANCH   5  10
ENDBRANCH   3   5
BRANCH   2  19
ATOM     19  C   UNL     1      33.679 -12.465 -23.055  0.00  0.00    +0.194 C 
BRANCH  19  20
ATOM     20  C   UNL     1      34.161 -11.910 -24.374  0.00  0.00    +0.006 C 
ATOM     21  C   UNL     1      34.981 -10.783 -24.400  0.00  0.00    -0.002 C 
ATOM     22  C   UNL     1      33.786 -12.527 -25.569  0.00  0.00    -0.002 C 
ATOM     23  C   UNL     1      35.426 -10.270 -25.618  0.00  0.00    -0.000 C 
ATOM     24  C   UNL     1      34.231 -12.015 -26.787  0.00  0.00    -0.000 C 
ATOM     25  C   UNL     1      35.051 -10.886 -26.812  0.00  0.00    -0.000 C 
ENDBRANCH  19  20
BRANCH  19  27
ATOM     26  O   UNL     1      31.398 -12.327 -22.256  0.00  0.00    -0.248 OA
ATOM     27  C   UNL     1      32.434 -11.741 -22.555  0.00  0.00    +0.339 C 
BRANCH  27  28
ATOM     28  O   UNL     1      32.607 -10.390 -22.528  0.00  0.00    -0.451 OA
BRANCH  28  29
ATOM     29  C   UNL     1      31.520  -9.638 -22.004  0.00  0.00    +0.169 C 
ATOM     30  C   UNL     1      31.907  -9.001 -20.677  0.00  0.00    +0.044 C 
ATOM     31  C   UNL     1      31.258  -8.435 -22.898  0.00  0.00    +0.044 C 
ATOM     32  C   UNL     1      32.758  -7.796 -21.075  0.00  0.00    +0.004 C 
ATOM     33  C   UNL     1      32.319  -7.415 -22.488  0.00  0.00    +0.004 C 
ENDBRANCH  28  29
ENDBRANCH  27  28
ENDBRANCH  19  27
ENDBRANCH   2  19
TORSDOF 12
ENDMDL
