MODEL 1
REMARK VINA RESULT:     -12.2      0.000      0.000
REMARK  Name = 16122554
REMARK  11 active torsions:
REMARK  status: ('A' for Active; 'I' for Inactive)
REMARK    1  A    between atoms: C_1  and  C_19
REMARK    2  A    between atoms: C_3  and  C_7
REMARK    3  A    between atoms: C_10  and  C_13
REMARK    4  A    between atoms: C_19  and  C_20
REMARK    5  A    between atoms: C_20  and  P_21
REMARK    6  A    between atoms: C_20  and  P_27
REMARK    7  A    between atoms: C_20  and  O_33
REMARK    8  A    between atoms: P_21  and  O_23
REMARK    9  A    between atoms: P_21  and  O_25
REMARK   10  A    between atoms: P_27  and  O_29
REMARK   11  A    between atoms: P_27  and  O_31
REMARK                            x       y       z     vdW  Elec       q    Type
REMARK                         _______ _______ _______ _____ _____    ______ ____
ROOT
ATOM      1  C   UNL     1      35.248 -23.253 -15.932  0.00  0.00    -0.019 C 
ATOM      2  C   UNL     1      35.364 -22.423 -17.037  0.00  0.00    -0.004 C 
ATOM      3  C   UNL     1      34.286 -22.297 -17.913  0.00  0.00    -0.000 C 
ATOM      4  C   UNL     1      34.081 -23.959 -15.683  0.00  0.00    -0.004 C 
ATOM      5  C   UNL     1      33.105 -23.001 -17.675  0.00  0.00    -0.000 C 
ATOM      6  C   UNL     1      33.003 -23.833 -16.559  0.00  0.00    -0.000 C 
ENDROOT
BRANCH   3   7
ATOM      7  C   UNL     1      34.391 -21.435 -19.071  0.00  0.00    -0.000 C 
ATOM      8  C   UNL     1      35.646 -21.098 -19.579  0.00  0.00    -0.000 C 
ATOM      9  C   UNL     1      33.238 -20.941 -19.679  0.00  0.00    -0.000 C 
ATOM     10  C   UNL     1      34.593 -19.773 -21.303  0.00  0.00    +0.000 C 
ATOM     11  C   UNL     1      35.748 -20.268 -20.695  0.00  0.00    -0.000 C 
ATOM     12  C   UNL     1      33.339 -20.110 -20.795  0.00  0.00    -0.000 C 
BRANCH  10  13
ATOM     13  C   UNL     1      34.699 -18.911 -22.460  0.00  0.00    +0.000 C 
ATOM     14  C   UNL     1      34.521 -19.436 -23.739  0.00  0.00    +0.000 C 
ATOM     15  C   UNL     1      34.979 -17.555 -22.296  0.00  0.00    +0.000 C 
ATOM     16  C   UNL     1      34.623 -18.606 -24.855  0.00  0.00    +0.000 C 
ATOM     17  C   UNL     1      35.081 -16.723 -23.411  0.00  0.00    +0.000 C 
ATOM     18  C   UNL     1      34.904 -17.249 -24.691  0.00  0.00    +0.000 C 
ENDBRANCH  10  13
ENDBRANCH   3   7
BRANCH   1  19
ATOM     19  C   UNL     1      36.412 -23.390 -14.982  0.00  0.00    +0.077 C 
BRANCH  19  20
ATOM     20  C   UNL     1      36.505 -24.710 -14.177  0.00  0.00    +0.279 C 
BRANCH  20  21
ATOM     21  P   UNL     1      35.996 -24.539 -12.432  0.00  0.00    +0.372 P 
ATOM     22  O   UNL     1      36.311 -23.217 -11.796  0.00  0.00    -0.255 OA
BRANCH  21  23
ATOM     23  O   UNL     1      36.668 -25.826 -11.721  0.00  0.00    -0.322 OA
ATOM     24  H   UNL     1      36.473 -26.621 -12.243  0.00  0.00    +0.220 HD
ENDBRANCH  21  23
BRANCH  21  25
ATOM     25  O   UNL     1      34.423 -24.913 -12.451  0.00  0.00    -0.322 OA
ATOM     26  H   UNL     1      34.002 -24.496 -13.220  0.00  0.00    +0.220 HD
ENDBRANCH  21  25
ENDBRANCH  20  21
BRANCH  20  27
ATOM     27  P   UNL     1      38.113 -25.510 -14.622  0.00  0.00    +0.372 P 
ATOM     28  O   UNL     1      38.839 -26.139 -13.470  0.00  0.00    -0.255 OA
BRANCH  27  29
ATOM     29  O   UNL     1      37.695 -26.524 -15.809  0.00  0.00    -0.322 OA
ATOM     30  H   UNL     1      37.850 -27.437 -15.523  0.00  0.00    +0.220 HD
ENDBRANCH  27  29
BRANCH  27  31
ATOM     31  O   UNL     1      38.929 -24.348 -15.392  0.00  0.00    -0.322 OA
ATOM     32  H   UNL     1      39.806 -24.679 -15.641  0.00  0.00    +0.220 HD
ENDBRANCH  27  31
ENDBRANCH  20  27
BRANCH  20  33
ATOM     33  O   UNL     1      35.576 -25.657 -14.707  0.00  0.00    -0.366 OA
ATOM     34  H   UNL     1      36.036 -26.491 -14.895  0.00  0.00    +0.212 HD
ENDBRANCH  20  33
ENDBRANCH  19  20
ENDBRANCH   1  19
TORSDOF 11
ENDMDL
MODEL 2
REMARK VINA RESULT:     -12.0      3.344      4.882
REMARK  Name = 16122554
REMARK  11 active torsions:
REMARK  status: ('A' for Active; 'I' for Inactive)
REMARK    1  A    between atoms: C_1  and  C_19
REMARK    2  A    between atoms: C_3  and  C_7
REMARK    3  A    between atoms: C_10  and  C_13
REMARK    4  A    between atoms: C_19  and  C_20
REMARK    5  A    between atoms: C_20  and  P_21
REMARK    6  A    between atoms: C_20  and  P_27
REMARK    7  A    between atoms: C_20  and  O_33
REMARK    8  A    between atoms: P_21  and  O_23
REMARK    9  A    between atoms: P_21  and  O_25
REMARK   10  A    between atoms: P_27  and  O_29
REMARK   11  A    between atoms: P_27  and  O_31
REMARK                            x       y       z     vdW  Elec       q    Type
REMARK                         _______ _______ _______ _____ _____    ______ ____
ROOT
ATOM      1  C   UNL     1      32.868 -23.516 -16.797  0.00  0.00    -0.019 C 
ATOM      2  C   UNL     1      32.960 -22.675 -17.895  0.00  0.00    -0.004 C 
ATOM      3  C   UNL     1      34.185 -22.083 -18.204  0.00  0.00    -0.000 C 
ATOM      4  C   UNL     1      33.971 -23.780 -16.000  0.00  0.00    -0.004 C 
ATOM      5  C   UNL     1      35.303 -22.340 -17.410  0.00  0.00    -0.000 C 
ATOM      6  C   UNL     1      35.197 -23.188 -16.308  0.00  0.00    -0.000 C 
ENDROOT
BRANCH   3   7
ATOM      7  C   UNL     1      34.296 -21.202 -19.347  0.00  0.00    -0.000 C 
ATOM      8  C   UNL     1      33.147 -20.677 -19.937  0.00  0.00    -0.000 C 
ATOM      9  C   UNL     1      35.552 -20.879 -19.857  0.00  0.00    -0.000 C 
ATOM     10  C   UNL     1      34.511 -19.505 -21.550  0.00  0.00    +0.000 C 
ATOM     11  C   UNL     1      33.254 -19.828 -21.038  0.00  0.00    -0.000 C 
ATOM     12  C   UNL     1      35.661 -20.030 -20.959  0.00  0.00    -0.000 C 
BRANCH  10  13
ATOM     13  C   UNL     1      34.623 -18.625 -22.692  0.00  0.00    +0.000 C 
ATOM     14  C   UNL     1      34.816 -17.257 -22.503  0.00  0.00    +0.000 C 
ATOM     15  C   UNL     1      34.536 -19.145 -23.984  0.00  0.00    +0.000 C 
ATOM     16  C   UNL     1      34.923 -16.408 -23.605  0.00  0.00    +0.000 C 
ATOM     17  C   UNL     1      34.642 -18.296 -25.086  0.00  0.00    +0.000 C 
ATOM     18  C   UNL     1      34.836 -16.928 -24.896  0.00  0.00    +0.000 C 
ENDBRANCH  10  13
ENDBRANCH   3   7
BRANCH   1  19
ATOM     19  C   UNL     1      31.545 -24.159 -16.463  0.00  0.00    +0.077 C 
BRANCH  19  20
ATOM     20  C   UNL     1      30.787 -23.599 -15.233  0.00  0.00    +0.279 C 
BRANCH  20  21
ATOM     21  P   UNL     1      30.774 -24.734 -13.803  0.00  0.00    +0.372 P 
ATOM     22  O   UNL     1      30.493 -24.094 -12.475  0.00  0.00    -0.255 OA
BRANCH  21  23
ATOM     23  O   UNL     1      32.197 -25.491 -13.918  0.00  0.00    -0.322 OA
ATOM     24  H   UNL     1      32.379 -25.964 -13.090  0.00  0.00    +0.220 HD
ENDBRANCH  21  23
BRANCH  21  25
ATOM     25  O   UNL     1      29.716 -25.879 -14.230  0.00  0.00    -0.322 OA
ATOM     26  H   UNL     1      29.272 -26.219 -13.437  0.00  0.00    +0.220 HD
ENDBRANCH  21  25
ENDBRANCH  20  21
BRANCH  20  27
ATOM     27  P   UNL     1      29.219 -22.840 -15.857  0.00  0.00    +0.372 P 
ATOM     28  O   UNL     1      29.280 -22.353 -17.275  0.00  0.00    -0.255 OA
BRANCH  27  29
ATOM     29  O   UNL     1      28.121 -23.992 -15.570  0.00  0.00    -0.322 OA
ATOM     30  H   UNL     1      28.412 -24.535 -14.821  0.00  0.00    +0.220 HD
ENDBRANCH  27  29
BRANCH  27  31
ATOM     31  O   UNL     1      28.868 -21.707 -14.760  0.00  0.00    -0.322 OA
ATOM     32  H   UNL     1      28.153 -22.023 -14.186  0.00  0.00    +0.220 HD
ENDBRANCH  27  31
ENDBRANCH  20  27
BRANCH  20  33
ATOM     33  O   UNL     1      31.468 -22.444 -14.740  0.00  0.00    -0.366 OA
ATOM     34  H   UNL     1      30.896 -21.973 -14.114  0.00  0.00    +0.212 HD
ENDBRANCH  20  33
ENDBRANCH  19  20
ENDBRANCH   1  19
TORSDOF 11
ENDMDL
MODEL 3
REMARK VINA RESULT:     -11.6      1.195      2.690
REMARK  Name = 16122554
REMARK  11 active torsions:
REMARK  status: ('A' for Active; 'I' for Inactive)
REMARK    1  A    between atoms: C_1  and  C_19
REMARK    2  A    between atoms: C_3  and  C_7
REMARK    3  A    between atoms: C_10  and  C_13
REMARK    4  A    between atoms: C_19  and  C_20
REMARK    5  A    between atoms: C_20  and  P_21
REMARK    6  A    between atoms: C_20  and  P_27
REMARK    7  A    between atoms: C_20  and  O_33
REMARK    8  A    between atoms: P_21  and  O_23
REMARK    9  A    between atoms: P_21  and  O_25
REMARK   10  A    between atoms: P_27  and  O_29
REMARK   11  A    between atoms: P_27  and  O_31
REMARK                            x       y       z     vdW  Elec       q    Type
REMARK                         _______ _______ _______ _____ _____    ______ ____
ROOT
ATOM      1  C   UNL     1      34.583 -24.598 -15.226  0.00  0.00    -0.019 C 
ATOM      2  C   UNL     1      34.890 -23.794 -16.314  0.00  0.00    -0.004 C 
ATOM      3  C   UNL     1      33.880 -23.046 -16.919  0.00  0.00    -0.000 C 
ATOM      4  C   UNL     1      33.291 -24.671 -14.729  0.00  0.00    -0.004 C 
ATOM      5  C   UNL     1      32.575 -23.111 -16.429  0.00  0.00    -0.000 C 
ATOM      6  C   UNL     1      32.280 -23.924 -15.334  0.00  0.00    -0.000 C 
ENDROOT
BRANCH   3   7
ATOM      7  C   UNL     1      34.185 -22.204 -18.055  0.00  0.00    -0.000 C 
ATOM      8  C   UNL     1      35.511 -21.903 -18.366  0.00  0.00    -0.000 C 
ATOM      9  C   UNL     1      33.152 -21.693 -18.840  0.00  0.00    -0.000 C 
ATOM     10  C   UNL     1      34.770 -20.579 -20.246  0.00  0.00    +0.000 C 
ATOM     11  C   UNL     1      35.804 -21.091 -19.461  0.00  0.00    -0.000 C 
ATOM     12  C   UNL     1      33.444 -20.880 -19.935  0.00  0.00    -0.000 C 
BRANCH  10  13
ATOM     13  C   UNL     1      35.074 -19.736 -21.381  0.00  0.00    +0.000 C 
ATOM     14  C   UNL     1      36.192 -18.904 -21.353  0.00  0.00    +0.000 C 
ATOM     15  C   UNL     1      34.248 -19.756 -22.505  0.00  0.00    +0.000 C 
ATOM     16  C   UNL     1      36.485 -18.091 -22.448  0.00  0.00    +0.000 C 
ATOM     17  C   UNL     1      34.540 -18.943 -23.600  0.00  0.00    +0.000 C 
ATOM     18  C   UNL     1      35.659 -18.110 -23.572  0.00  0.00    +0.000 C 
ENDBRANCH  10  13
ENDBRANCH   3   7
BRANCH   1  19
ATOM     19  C   UNL     1      35.675 -25.406 -14.569  0.00  0.00    +0.077 C 
BRANCH  19  20
ATOM     20  C   UNL     1      36.768 -24.614 -13.808  0.00  0.00    +0.279 C 
BRANCH  20  21
ATOM     21  P   UNL     1      38.429 -24.764 -14.550  0.00  0.00    +0.372 P 
ATOM     22  O   UNL     1      39.574 -24.726 -13.580  0.00  0.00    -0.255 OA
BRANCH  21  23
ATOM     23  O   UNL     1      38.439 -23.604 -15.675  0.00  0.00    -0.322 OA
ATOM     24  H   UNL     1      37.653 -23.693 -16.238  0.00  0.00    +0.220 HD
ENDBRANCH  21  23
BRANCH  21  25
ATOM     25  O   UNL     1      38.339 -26.120 -15.425  0.00  0.00    -0.322 OA
ATOM     26  H   UNL     1      39.173 -26.609 -15.348  0.00  0.00    +0.220 HD
ENDBRANCH  21  25
ENDBRANCH  20  21
BRANCH  20  27
ATOM     27  P   UNL     1      36.505 -24.917 -12.002  0.00  0.00    +0.372 P 
ATOM     28  O   UNL     1      35.168 -24.475 -11.482  0.00  0.00    -0.255 OA
BRANCH  27  29
ATOM     29  O   UNL     1      36.814 -26.497 -11.852  0.00  0.00    -0.322 OA
ATOM     30  H   UNL     1      37.658 -26.617 -11.389  0.00  0.00    +0.220 HD
ENDBRANCH  27  29
BRANCH  27  31
ATOM     31  O   UNL     1      37.778 -24.217 -11.297  0.00  0.00    -0.322 OA
ATOM     32  H   UNL     1      37.865 -23.306 -11.617  0.00  0.00    +0.220 HD
ENDBRANCH  27  31
ENDBRANCH  20  27
BRANCH  20  33
ATOM     33  O   UNL     1      36.487 -23.216 -13.891  0.00  0.00    -0.366 OA
ATOM     34  H   UNL     1      37.308 -22.731 -14.071  0.00  0.00    +0.212 HD
ENDBRANCH  20  33
ENDBRANCH  19  20
ENDBRANCH   1  19
TORSDOF 11
ENDMDL
MODEL 4
REMARK VINA RESULT:     -11.3      2.583      3.876
REMARK  Name = 16122554
REMARK  11 active torsions:
REMARK  status: ('A' for Active; 'I' for Inactive)
REMARK    1  A    between atoms: C_1  and  C_19
REMARK    2  A    between atoms: C_3  and  C_7
REMARK    3  A    between atoms: C_10  and  C_13
REMARK    4  A    between atoms: C_19  and  C_20
REMARK    5  A    between atoms: C_20  and  P_21
REMARK    6  A    between atoms: C_20  and  P_27
REMARK    7  A    between atoms: C_20  and  O_33
REMARK    8  A    between atoms: P_21  and  O_23
REMARK    9  A    between atoms: P_21  and  O_25
REMARK   10  A    between atoms: P_27  and  O_29
REMARK   11  A    between atoms: P_27  and  O_31
REMARK                            x       y       z     vdW  Elec       q    Type
REMARK                         _______ _______ _______ _____ _____    ______ ____
ROOT
ATOM      1  C   UNL     1      34.655 -23.245 -16.750  0.00  0.00    -0.019 C 
ATOM      2  C   UNL     1      34.490 -22.443 -17.869  0.00  0.00    -0.004 C 
ATOM      3  C   UNL     1      35.564 -21.682 -18.330  0.00  0.00    -0.000 C 
ATOM      4  C   UNL     1      35.868 -23.304 -16.081  0.00  0.00    -0.004 C 
ATOM      5  C   UNL     1      36.790 -21.732 -17.666  0.00  0.00    -0.000 C 
ATOM      6  C   UNL     1      36.943 -22.543 -16.541  0.00  0.00    -0.000 C 
ENDROOT
BRANCH   3   7
ATOM      7  C   UNL     1      35.407 -20.840 -19.496  0.00  0.00    -0.000 C 
ATOM      8  C   UNL     1      36.516 -20.199 -20.049  0.00  0.00    -0.000 C 
ATOM      9  C   UNL     1      34.147 -20.670 -20.068  0.00  0.00    -0.000 C 
ATOM     10  C   UNL     1      35.103 -19.217 -21.745  0.00  0.00    +0.000 C 
ATOM     11  C   UNL     1      36.364 -19.388 -21.173  0.00  0.00    -0.000 C 
ATOM     12  C   UNL     1      33.994 -19.858 -21.192  0.00  0.00    -0.000 C 
BRANCH  10  13
ATOM     13  C   UNL     1      34.945 -18.375 -22.910  0.00  0.00    +0.000 C 
ATOM     14  C   UNL     1      34.665 -18.946 -24.150  0.00  0.00    +0.000 C 
ATOM     15  C   UNL     1      35.076 -16.991 -22.794  0.00  0.00    +0.000 C 
ATOM     16  C   UNL     1      34.514 -18.135 -25.275  0.00  0.00    +0.000 C 
ATOM     17  C   UNL     1      34.925 -16.179 -23.918  0.00  0.00    +0.000 C 
ATOM     18  C   UNL     1      34.644 -16.751 -25.158  0.00  0.00    +0.000 C 
ENDBRANCH  10  13
ENDBRANCH   3   7
BRANCH   1  19
ATOM     19  C   UNL     1      33.495 -24.071 -16.251  0.00  0.00    +0.077 C 
BRANCH  19  20
ATOM     20  C   UNL     1      32.630 -23.451 -15.125  0.00  0.00    +0.279 C 
BRANCH  20  21
ATOM     21  P   UNL     1      33.008 -24.113 -13.466  0.00  0.00    +0.372 P 
ATOM     22  O   UNL     1      34.426 -24.557 -13.258  0.00  0.00    -0.255 OA
BRANCH  21  23
ATOM     23  O   UNL     1      31.888 -25.259 -13.259  0.00  0.00    -0.322 OA
ATOM     24  H   UNL     1      31.147 -25.099 -13.864  0.00  0.00    +0.220 HD
ENDBRANCH  21  23
BRANCH  21  25
ATOM     25  O   UNL     1      32.522 -22.941 -12.464  0.00  0.00    -0.322 OA
ATOM     26  H   UNL     1      31.557 -22.858 -12.510  0.00  0.00    +0.220 HD
ENDBRANCH  21  25
ENDBRANCH  20  21
BRANCH  20  27
ATOM     27  P   UNL     1      30.889 -23.387 -15.746  0.00  0.00    +0.372 P 
ATOM     28  O   UNL     1      30.701 -22.583 -17.000  0.00  0.00    -0.255 OA
BRANCH  27  29
ATOM     29  O   UNL     1      30.488 -24.948 -15.862  0.00  0.00    -0.322 OA
ATOM     30  H   UNL     1      29.682 -25.035 -16.394  0.00  0.00    +0.220 HD
ENDBRANCH  27  29
BRANCH  27  31
ATOM     31  O   UNL     1      30.036 -22.875 -14.473  0.00  0.00    -0.322 OA
ATOM     32  H   UNL     1      30.149 -21.917 -14.372  0.00  0.00    +0.220 HD
ENDBRANCH  27  31
ENDBRANCH  20  27
BRANCH  20  33
ATOM     33  O   UNL     1      32.927 -22.059 -15.008  0.00  0.00    -0.366 OA
ATOM     34  H   UNL     1      32.552 -21.716 -14.182  0.00  0.00    +0.212 HD
ENDBRANCH  20  33
ENDBRANCH  19  20
ENDBRANCH   1  19
TORSDOF 11
ENDMDL
MODEL 5
REMARK VINA RESULT:     -10.5      7.988     10.822
REMARK  Name = 16122554
REMARK  11 active torsions:
REMARK  status: ('A' for Active; 'I' for Inactive)
REMARK    1  A    between atoms: C_1  and  C_19
REMARK    2  A    between atoms: C_3  and  C_7
REMARK    3  A    between atoms: C_10  and  C_13
REMARK    4  A    between atoms: C_19  and  C_20
REMARK    5  A    between atoms: C_20  and  P_21
REMARK    6  A    between atoms: C_20  and  P_27
REMARK    7  A    between atoms: C_20  and  O_33
REMARK    8  A    between atoms: P_21  and  O_23
REMARK    9  A    between atoms: P_21  and  O_25
REMARK   10  A    between atoms: P_27  and  O_29
REMARK   11  A    between atoms: P_27  and  O_31
REMARK                            x       y       z     vdW  Elec       q    Type
REMARK                         _______ _______ _______ _____ _____    ______ ____
ROOT
ATOM      1  C   UNL     1      34.706 -16.655 -23.433  0.00  0.00    -0.019 C 
ATOM      2  C   UNL     1      34.718 -17.478 -22.317  0.00  0.00    -0.004 C 
ATOM      3  C   UNL     1      34.680 -18.862 -22.486  0.00  0.00    -0.000 C 
ATOM      4  C   UNL     1      34.656 -17.183 -24.714  0.00  0.00    -0.004 C 
ATOM      5  C   UNL     1      34.630 -19.407 -23.770  0.00  0.00    -0.000 C 
ATOM      6  C   UNL     1      34.618 -18.567 -24.884  0.00  0.00    -0.000 C 
ENDROOT
BRANCH   3   7
ATOM      7  C   UNL     1      34.692 -19.733 -21.331  0.00  0.00    -0.000 C 
ATOM      8  C   UNL     1      33.491 -20.181 -20.781  0.00  0.00    -0.000 C 
ATOM      9  C   UNL     1      35.905 -20.127 -20.768  0.00  0.00    -0.000 C 
ATOM     10  C   UNL     1      34.717 -21.414 -19.104  0.00  0.00    +0.000 C 
ATOM     11  C   UNL     1      33.503 -21.021 -19.668  0.00  0.00    -0.000 C 
ATOM     12  C   UNL     1      35.918 -20.967 -19.654  0.00  0.00    -0.000 C 
BRANCH  10  13
ATOM     13  C   UNL     1      34.729 -22.285 -17.950  0.00  0.00    +0.000 C 
ATOM     14  C   UNL     1      33.601 -23.041 -17.634  0.00  0.00    +0.000 C 
ATOM     15  C   UNL     1      35.870 -22.368 -17.151  0.00  0.00    +0.000 C 
ATOM     16  C   UNL     1      33.612 -23.880 -16.520  0.00  0.00    +0.000 C 
ATOM     17  C   UNL     1      35.882 -23.207 -16.037  0.00  0.00    +0.000 C 
ATOM     18  C   UNL     1      34.753 -23.963 -15.721  0.00  0.00    +0.000 C 
ENDBRANCH  10  13
ENDBRANCH   3   7
BRANCH   1  19
ATOM     19  C   UNL     1      34.749 -15.158 -23.251  0.00  0.00    +0.077 C 
BRANCH  19  20
ATOM     20  C   UNL     1      33.451 -14.478 -22.747  0.00  0.00    +0.279 C 
BRANCH  20  21
ATOM     21  P   UNL     1      33.058 -12.921 -23.615  0.00  0.00    +0.372 P 
ATOM     22  O   UNL     1      32.048 -12.043 -22.937  0.00  0.00    -0.255 OA
BRANCH  21  23
ATOM     23  O   UNL     1      32.656 -13.416 -25.101  0.00  0.00    -0.322 OA
ATOM     24  H   UNL     1      33.373 -13.200 -25.718  0.00  0.00    +0.220 HD
ENDBRANCH  21  23
BRANCH  21  25
ATOM     25  O   UNL     1      34.501 -12.229 -23.839  0.00  0.00    -0.322 OA
ATOM     26  H   UNL     1      34.789 -12.373 -24.754  0.00  0.00    +0.220 HD
ENDBRANCH  21  25
ENDBRANCH  20  21
BRANCH  20  27
ATOM     27  P   UNL     1      33.477 -14.553 -20.899  0.00  0.00    +0.372 P 
ATOM     28  O   UNL     1      34.847 -14.662 -20.296  0.00  0.00    -0.255 OA
BRANCH  27  29
ATOM     29  O   UNL     1      32.639 -13.238 -20.472  0.00  0.00    -0.322 OA
ATOM     30  H   UNL     1      32.568 -13.201 -19.505  0.00  0.00    +0.220 HD
ENDBRANCH  27  29
BRANCH  27  31
ATOM     31  O   UNL     1      32.475 -15.768 -20.541  0.00  0.00    -0.322 OA
ATOM     32  H   UNL     1      32.050 -15.597 -19.687  0.00  0.00    +0.220 HD
ENDBRANCH  27  31
ENDBRANCH  20  27
BRANCH  20  33
ATOM     33  O   UNL     1      32.331 -15.317 -23.036  0.00  0.00    -0.366 OA
ATOM     34  H   UNL     1      31.732 -15.330 -22.273  0.00  0.00    +0.212 HD
ENDBRANCH  20  33
ENDBRANCH  19  20
ENDBRANCH   1  19
TORSDOF 11
ENDMDL
MODEL 6
REMARK VINA RESULT:     -10.1     11.203     14.008
REMARK  Name = 16122554
REMARK  11 active torsions:
REMARK  status: ('A' for Active; 'I' for Inactive)
REMARK    1  A    between atoms: C_1  and  C_19
REMARK    2  A    between atoms: C_3  and  C_7
REMARK    3  A    between atoms: C_10  and  C_13
REMARK    4  A    between atoms: C_19  and  C_20
REMARK    5  A    between atoms: C_20  and  P_21
REMARK    6  A    between atoms: C_20  and  P_27
REMARK    7  A    between atoms: C_20  and  O_33
REMARK    8  A    between atoms: P_21  and  O_23
REMARK    9  A    between atoms: P_21  and  O_25
REMARK   10  A    between atoms: P_27  and  O_29
REMARK   11  A    between atoms: P_27  and  O_31
REMARK                            x       y       z     vdW  Elec       q    Type
REMARK                         _______ _______ _______ _____ _____    ______ ____
ROOT
ATOM      1  C   UNL     1      32.474 -10.631 -23.086  0.00  0.00    -0.019 C 
ATOM      2  C   UNL     1      32.673 -11.907 -22.582  0.00  0.00    -0.004 C 
ATOM      3  C   UNL     1      33.462 -12.810 -23.297  0.00  0.00    -0.000 C 
ATOM      4  C   UNL     1      33.044 -10.235 -24.286  0.00  0.00    -0.004 C 
ATOM      5  C   UNL     1      34.041 -12.424 -24.506  0.00  0.00    -0.000 C 
ATOM      6  C   UNL     1      33.833 -11.137 -25.001  0.00  0.00    -0.000 C 
ENDROOT
BRANCH   3   7
ATOM      7  C   UNL     1      33.678 -14.146 -22.784  0.00  0.00    -0.000 C 
ATOM      8  C   UNL     1      33.068 -14.545 -21.596  0.00  0.00    -0.000 C 
ATOM      9  C   UNL     1      34.497 -15.034 -23.480  0.00  0.00    -0.000 C 
ATOM     10  C   UNL     1      34.097 -16.721 -21.798  0.00  0.00    +0.000 C 
ATOM     11  C   UNL     1      33.277 -15.832 -21.102  0.00  0.00    -0.000 C 
ATOM     12  C   UNL     1      34.707 -16.322 -22.987  0.00  0.00    -0.000 C 
BRANCH  10  13
ATOM     13  C   UNL     1      34.314 -18.056 -21.286  0.00  0.00    +0.000 C 
ATOM     14  C   UNL     1      35.612 -18.537 -21.119  0.00  0.00    +0.000 C 
ATOM     15  C   UNL     1      33.224 -18.864 -20.961  0.00  0.00    +0.000 C 
ATOM     16  C   UNL     1      35.821 -19.825 -20.626  0.00  0.00    +0.000 C 
ATOM     17  C   UNL     1      33.432 -20.152 -20.468  0.00  0.00    +0.000 C 
ATOM     18  C   UNL     1      34.731 -20.633 -20.301  0.00  0.00    +0.000 C 
ENDBRANCH  10  13
ENDBRANCH   3   7
BRANCH   1  19
ATOM     19  C   UNL     1      31.624  -9.653 -22.313  0.00  0.00    +0.077 C 
BRANCH  19  20
ATOM     20  C   UNL     1      32.343  -8.413 -21.725  0.00  0.00    +0.279 C 
BRANCH  20  21
ATOM     21  P   UNL     1      32.350  -8.370 -19.900  0.00  0.00    +0.372 P 
ATOM     22  O   UNL     1      32.531  -9.697 -19.225  0.00  0.00    -0.255 OA
BRANCH  21  23
ATOM     23  O   UNL     1      30.978  -7.594 -19.542  0.00  0.00    -0.322 OA
ATOM     24  H   UNL     1      30.689  -7.846 -18.651  0.00  0.00    +0.220 HD
ENDBRANCH  21  23
BRANCH  21  25
ATOM     25  O   UNL     1      33.489  -7.280 -19.545  0.00  0.00    -0.322 OA
ATOM     26  H   UNL     1      34.330  -7.549 -19.947  0.00  0.00    +0.220 HD
ENDBRANCH  21  25
ENDBRANCH  20  21
BRANCH  20  27
ATOM     27  P   UNL     1      31.793  -6.945 -22.708  0.00  0.00    +0.372 P 
ATOM     28  O   UNL     1      30.477  -7.118 -23.407  0.00  0.00    -0.255 OA
BRANCH  27  29
ATOM     29  O   UNL     1      31.847  -5.746 -21.626  0.00  0.00    -0.322 OA
ATOM     30  H   UNL     1      30.971  -5.634 -21.225  0.00  0.00    +0.220 HD
ENDBRANCH  27  29
BRANCH  27  31
ATOM     31  O   UNL     1      33.046  -6.631 -23.678  0.00  0.00    -0.322 OA
ATOM     32  H   UNL     1      33.514  -5.844 -23.357  0.00  0.00    +0.220 HD
ENDBRANCH  27  31
ENDBRANCH  20  27
BRANCH  20  33
ATOM     33  O   UNL     1      33.730  -8.462 -22.066  0.00  0.00    -0.366 OA
ATOM     34  H   UNL     1      34.033  -9.384 -22.058  0.00  0.00    +0.212 HD
ENDBRANCH  20  33
ENDBRANCH  19  20
ENDBRANCH   1  19
TORSDOF 11
ENDMDL
MODEL 7
REMARK VINA RESULT:      -9.9     11.084     13.995
REMARK  Name = 16122554
REMARK  11 active torsions:
REMARK  status: ('A' for Active; 'I' for Inactive)
REMARK    1  A    between atoms: C_1  and  C_19
REMARK    2  A    between atoms: C_3  and  C_7
REMARK    3  A    between atoms: C_10  and  C_13
REMARK    4  A    between atoms: C_19  and  C_20
REMARK    5  A    between atoms: C_20  and  P_21
REMARK    6  A    between atoms: C_20  and  P_27
REMARK    7  A    between atoms: C_20  and  O_33
REMARK    8  A    between atoms: P_21  and  O_23
REMARK    9  A    between atoms: P_21  and  O_25
REMARK   10  A    between atoms: P_27  and  O_29
REMARK   11  A    between atoms: P_27  and  O_31
REMARK                            x       y       z     vdW  Elec       q    Type
REMARK                         _______ _______ _______ _____ _____    ______ ____
ROOT
ATOM      1  C   UNL     1      31.942 -12.183 -21.349  0.00  0.00    -0.019 C 
ATOM      2  C   UNL     1      32.063 -11.113 -22.224  0.00  0.00    -0.004 C 
ATOM      3  C   UNL     1      32.010  -9.812 -21.725  0.00  0.00    -0.000 C 
ATOM      4  C   UNL     1      31.768 -11.982 -19.989  0.00  0.00    -0.004 C 
ATOM      5  C   UNL     1      31.835  -9.595 -20.357  0.00  0.00    -0.000 C 
ATOM      6  C   UNL     1      31.714 -10.680 -19.489  0.00  0.00    -0.000 C 
ENDROOT
BRANCH   3   7
ATOM      7  C   UNL     1      32.135  -8.686 -22.625  0.00  0.00    -0.000 C 
ATOM      8  C   UNL     1      31.024  -8.233 -23.335  0.00  0.00    -0.000 C 
ATOM      9  C   UNL     1      33.367  -8.052 -22.781  0.00  0.00    -0.000 C 
ATOM     10  C   UNL     1      32.378  -6.514 -24.359  0.00  0.00    +0.000 C 
ATOM     11  C   UNL     1      31.145  -7.147 -24.202  0.00  0.00    -0.000 C 
ATOM     12  C   UNL     1      33.489  -6.966 -23.648  0.00  0.00    -0.000 C 
BRANCH  10  13
ATOM     13  C   UNL     1      32.503  -5.389 -25.259  0.00  0.00    +0.000 C 
ATOM     14  C   UNL     1      31.574  -4.351 -25.211  0.00  0.00    +0.000 C 
ATOM     15  C   UNL     1      33.554  -5.342 -26.175  0.00  0.00    +0.000 C 
ATOM     16  C   UNL     1      31.694  -3.265 -26.079  0.00  0.00    +0.000 C 
ATOM     17  C   UNL     1      33.675  -4.257 -27.043  0.00  0.00    +0.000 C 
ATOM     18  C   UNL     1      32.745  -3.219 -26.995  0.00  0.00    +0.000 C 
ENDBRANCH  10  13
ENDBRANCH   3   7
BRANCH   1  19
ATOM     19  C   UNL     1      32.001 -13.591 -21.887  0.00  0.00    +0.077 C 
BRANCH  19  20
ATOM     20  C   UNL     1      33.395 -14.118 -22.313  0.00  0.00    +0.279 C 
BRANCH  20  21
ATOM     21  P   UNL     1      33.620 -14.211 -24.122  0.00  0.00    +0.372 P 
ATOM     22  O   UNL     1      34.377 -15.408 -24.616  0.00  0.00    -0.255 OA
BRANCH  21  23
ATOM     23  O   UNL     1      34.275 -12.780 -24.488  0.00  0.00    -0.322 OA
ATOM     24  H   UNL     1      33.572 -12.154 -24.726  0.00  0.00    +0.220 HD
ENDBRANCH  21  23
BRANCH  21  25
ATOM     25  O   UNL     1      32.118 -14.084 -24.704  0.00  0.00    -0.322 OA
ATOM     26  H   UNL     1      31.507 -13.879 -23.979  0.00  0.00    +0.220 HD
ENDBRANCH  21  25
ENDBRANCH  20  21
BRANCH  20  27
ATOM     27  P   UNL     1      33.783 -15.569 -21.232  0.00  0.00    +0.372 P 
ATOM     28  O   UNL     1      34.827 -15.308 -20.186  0.00  0.00    -0.255 OA
BRANCH  27  29
ATOM     29  O   UNL     1      32.331 -15.996 -20.665  0.00  0.00    -0.322 OA
ATOM     30  H   UNL     1      32.432 -16.392 -19.786  0.00  0.00    +0.220 HD
ENDBRANCH  27  29
BRANCH  27  31
ATOM     31  O   UNL     1      34.140 -16.750 -22.274  0.00  0.00    -0.322 OA
ATOM     32  H   UNL     1      34.129 -16.398 -23.178  0.00  0.00    +0.220 HD
ENDBRANCH  27  31
ENDBRANCH  20  27
BRANCH  20  33
ATOM     33  O   UNL     1      34.400 -13.193 -21.895  0.00  0.00    -0.366 OA
ATOM     34  H   UNL     1      34.125 -12.291 -22.123  0.00  0.00    +0.212 HD
ENDBRANCH  20  33
ENDBRANCH  19  20
ENDBRANCH   1  19
TORSDOF 11
ENDMDL
MODEL 8
REMARK VINA RESULT:      -9.8     12.102     14.432
REMARK  Name = 16122554
REMARK  11 active torsions:
REMARK  status: ('A' for Active; 'I' for Inactive)
REMARK    1  A    between atoms: C_1  and  C_19
REMARK    2  A    between atoms: C_3  and  C_7
REMARK    3  A    between atoms: C_10  and  C_13
REMARK    4  A    between atoms: C_19  and  C_20
REMARK    5  A    between atoms: C_20  and  P_21
REMARK    6  A    between atoms: C_20  and  P_27
REMARK    7  A    between atoms: C_20  and  O_33
REMARK    8  A    between atoms: P_21  and  O_23
REMARK    9  A    between atoms: P_21  and  O_25
REMARK   10  A    between atoms: P_27  and  O_29
REMARK   11  A    between atoms: P_27  and  O_31
REMARK                            x       y       z     vdW  Elec       q    Type
REMARK                         _______ _______ _______ _____ _____    ______ ____
ROOT
ATOM      1  C   UNL     1      31.643  -9.841 -21.767  0.00  0.00    -0.019 C 
ATOM      2  C   UNL     1      32.149 -11.094 -22.076  0.00  0.00    -0.004 C 
ATOM      3  C   UNL     1      32.171 -12.085 -21.094  0.00  0.00    -0.000 C 
ATOM      4  C   UNL     1      31.159  -9.554 -20.500  0.00  0.00    -0.004 C 
ATOM      5  C   UNL     1      31.687 -11.810 -19.815  0.00  0.00    -0.000 C 
ATOM      6  C   UNL     1      31.181 -10.544 -19.517  0.00  0.00    -0.000 C 
ENDROOT
BRANCH   3   7
ATOM      7  C   UNL     1      32.696 -13.398 -21.402  0.00  0.00    -0.000 C 
ATOM      8  C   UNL     1      32.619 -14.419 -20.455  0.00  0.00    -0.000 C 
ATOM      9  C   UNL     1      33.279 -13.641 -22.645  0.00  0.00    -0.000 C 
ATOM     10  C   UNL     1      33.709 -15.928 -21.996  0.00  0.00    +0.000 C 
ATOM     11  C   UNL     1      33.126 -15.685 -20.752  0.00  0.00    -0.000 C 
ATOM     12  C   UNL     1      33.785 -14.906 -22.942  0.00  0.00    -0.000 C 
BRANCH  10  13
ATOM     13  C   UNL     1      34.234 -17.240 -22.303  0.00  0.00    +0.000 C 
ATOM     14  C   UNL     1      34.725 -17.514 -23.579  0.00  0.00    +0.000 C 
ATOM     15  C   UNL     1      34.249 -18.232 -21.323  0.00  0.00    +0.000 C 
ATOM     16  C   UNL     1      35.231 -18.779 -23.876  0.00  0.00    +0.000 C 
ATOM     17  C   UNL     1      34.755 -19.499 -21.619  0.00  0.00    +0.000 C 
ATOM     18  C   UNL     1      35.245 -19.772 -22.896  0.00  0.00    +0.000 C 
ENDBRANCH  10  13
ENDBRANCH   3   7
BRANCH   1  19
ATOM     19  C   UNL     1      31.617  -8.769 -22.828  0.00  0.00    +0.077 C 
BRANCH  19  20
ATOM     20  C   UNL     1      32.610  -7.592 -22.657  0.00  0.00    +0.279 C 
BRANCH  20  21
ATOM     21  P   UNL     1      31.808  -5.952 -22.665  0.00  0.00    +0.372 P 
ATOM     22  O   UNL     1      32.152  -5.072 -23.830  0.00  0.00    -0.255 OA
BRANCH  21  23
ATOM     23  O   UNL     1      32.179  -5.350 -21.212  0.00  0.00    -0.322 OA
ATOM     24  H   UNL     1      33.141  -5.237 -21.146  0.00  0.00    +0.220 HD
ENDBRANCH  21  23
BRANCH  21  25
ATOM     25  O   UNL     1      30.234  -6.293 -22.527  0.00  0.00    -0.322 OA
ATOM     26  H   UNL     1      29.718  -5.476 -22.616  0.00  0.00    +0.220 HD
ENDBRANCH  21  25
ENDBRANCH  20  21
BRANCH  20  27
ATOM     27  P   UNL     1      34.065  -7.942 -23.745  0.00  0.00    +0.372 P 
ATOM     28  O   UNL     1      34.111  -9.335 -24.300  0.00  0.00    -0.255 OA
BRANCH  27  29
ATOM     29  O   UNL     1      33.984  -6.763 -24.848  0.00  0.00    -0.322 OA
ATOM     30  H   UNL     1      33.301  -6.125 -24.588  0.00  0.00    +0.220 HD
ENDBRANCH  27  29
BRANCH  27  31
ATOM     31  O   UNL     1      35.339  -7.523 -22.843  0.00  0.00    -0.322 OA
ATOM     32  H   UNL     1      35.078  -7.494 -21.909  0.00  0.00    +0.220 HD
ENDBRANCH  27  31
ENDBRANCH  20  27
BRANCH  20  33
ATOM     33  O   UNL     1      33.215  -7.664 -21.365  0.00  0.00    -0.366 OA
ATOM     34  H   UNL     1      32.594  -7.331 -20.698  0.00  0.00    +0.212 HD
ENDBRANCH  20  33
ENDBRANCH  19  20
ENDBRANCH   1  19
TORSDOF 11
ENDMDL
MODEL 9
REMARK VINA RESULT:      -9.5     11.371     14.184
REMARK  Name = 16122554
REMARK  11 active torsions:
REMARK  status: ('A' for Active; 'I' for Inactive)
REMARK    1  A    between atoms: C_1  and  C_19
REMARK    2  A    between atoms: C_3  and  C_7
REMARK    3  A    between atoms: C_10  and  C_13
REMARK    4  A    between atoms: C_19  and  C_20
REMARK    5  A    between atoms: C_20  and  P_21
REMARK    6  A    between atoms: C_20  and  P_27
REMARK    7  A    between atoms: C_20  and  O_33
REMARK    8  A    between atoms: P_21  and  O_23
REMARK    9  A    between atoms: P_21  and  O_25
REMARK   10  A    between atoms: P_27  and  O_29
REMARK   11  A    between atoms: P_27  and  O_31
REMARK                            x       y       z     vdW  Elec       q    Type
REMARK                         _______ _______ _______ _____ _____    ______ ____
ROOT
ATOM      1  C   UNL     1      31.939 -12.305 -21.399  0.00  0.00    -0.019 C 
ATOM      2  C   UNL     1      31.942 -11.116 -22.113  0.00  0.00    -0.004 C 
ATOM      3  C   UNL     1      31.814  -9.907 -21.429  0.00  0.00    -0.000 C 
ATOM      4  C   UNL     1      31.811 -12.314 -20.019  0.00  0.00    -0.004 C 
ATOM      5  C   UNL     1      31.684  -9.901 -20.040  0.00  0.00    -0.000 C 
ATOM      6  C   UNL     1      31.683 -11.104 -19.334  0.00  0.00    -0.000 C 
ENDROOT
BRANCH   3   7
ATOM      7  C   UNL     1      31.815  -8.658 -22.161  0.00  0.00    -0.000 C 
ATOM      8  C   UNL     1      32.381  -7.517 -21.593  0.00  0.00    -0.000 C 
ATOM      9  C   UNL     1      31.250  -8.596 -23.434  0.00  0.00    -0.000 C 
ATOM     10  C   UNL     1      31.816  -6.252 -23.572  0.00  0.00    +0.000 C 
ATOM     11  C   UNL     1      32.382  -6.314 -22.298  0.00  0.00    -0.000 C 
ATOM     12  C   UNL     1      31.251  -7.393 -24.140  0.00  0.00    -0.000 C 
BRANCH  10  13
ATOM     13  C   UNL     1      31.817  -5.004 -24.303  0.00  0.00    +0.000 C 
ATOM     14  C   UNL     1      32.330  -4.954 -25.598  0.00  0.00    +0.000 C 
ATOM     15  C   UNL     1      31.305  -3.849 -23.711  0.00  0.00    +0.000 C 
ATOM     16  C   UNL     1      32.332  -3.751 -26.303  0.00  0.00    +0.000 C 
ATOM     17  C   UNL     1      31.306  -2.645 -24.415  0.00  0.00    +0.000 C 
ATOM     18  C   UNL     1      31.820  -2.596 -25.712  0.00  0.00    +0.000 C 
ENDBRANCH  10  13
ENDBRANCH   3   7
BRANCH   1  19
ATOM     19  C   UNL     1      32.080 -13.613 -22.137  0.00  0.00    +0.077 C 
BRANCH  19  20
ATOM     20  C   UNL     1      33.474 -13.933 -22.733  0.00  0.00    +0.279 C 
BRANCH  20  21
ATOM     21  P   UNL     1      33.508 -13.925 -24.558  0.00  0.00    +0.372 P 
ATOM     22  O   UNL     1      34.211 -12.756 -25.184  0.00  0.00    -0.255 OA
BRANCH  21  23
ATOM     23  O   UNL     1      31.950 -14.089 -24.958  0.00  0.00    -0.322 OA
ATOM     24  H   UNL     1      31.420 -14.196 -24.153  0.00  0.00    +0.220 HD
ENDBRANCH  21  23
BRANCH  21  25
ATOM     25  O   UNL     1      34.136 -15.364 -24.938  0.00  0.00    -0.322 OA
ATOM     26  H   UNL     1      34.650 -15.700 -24.188  0.00  0.00    +0.220 HD
ENDBRANCH  21  25
ENDBRANCH  20  21
BRANCH  20  27
ATOM     27  P   UNL     1      34.163 -15.360 -21.777  0.00  0.00    +0.372 P 
ATOM     28  O   UNL     1      35.052 -16.273 -22.570  0.00  0.00    -0.255 OA
BRANCH  27  29
ATOM     29  O   UNL     1      34.865 -14.641 -20.511  0.00  0.00    -0.322 OA
ATOM     30  H   UNL     1      35.551 -14.032 -20.826  0.00  0.00    +0.220 HD
ENDBRANCH  27  29
BRANCH  27  31
ATOM     31  O   UNL     1      32.860 -16.065 -21.133  0.00  0.00    -0.322 OA
ATOM     32  H   UNL     1      32.545 -16.765 -21.725  0.00  0.00    +0.220 HD
ENDBRANCH  27  31
ENDBRANCH  20  27
BRANCH  20  33
ATOM     33  O   UNL     1      34.393 -12.899 -22.374  0.00  0.00    -0.366 OA
ATOM     34  H   UNL     1      35.182 -12.959 -22.935  0.00  0.00    +0.212 HD
ENDBRANCH  20  33
ENDBRANCH  19  20
ENDBRANCH   1  19
TORSDOF 11
ENDMDL
