MODEL 1
REMARK VINA RESULT:      -7.4      0.000      0.000
REMARK  Name = 68238
REMARK  0 active torsions:
REMARK  status: ('A' for Active; 'I' for Inactive)
REMARK                            x       y       z     vdW  Elec       q    Type
REMARK                         _______ _______ _______ _____ _____    ______ ____
ROOT
ATOM      1  O   UNL     1      35.227 -16.790 -20.432  0.00  0.00    -0.287 OA
ATOM      2  O   UNL     1      34.027 -17.217 -25.592  0.00  0.00    -0.287 OA
ATOM      3  C   UNL     1      34.441 -15.710 -22.385  0.00  0.00    +0.016 C 
ATOM      4  C   UNL     1      35.082 -18.199 -22.327  0.00  0.00    +0.016 C 
ATOM      5  C   UNL     1      34.162 -15.811 -23.695  0.00  0.00    +0.016 C 
ATOM      6  C   UNL     1      34.804 -18.300 -23.637  0.00  0.00    +0.016 C 
ATOM      7  C   UNL     1      34.936 -16.893 -21.622  0.00  0.00    +0.187 C 
ATOM      8  C   UNL     1      34.313 -17.116 -24.401  0.00  0.00    +0.187 C 
ATOM      9  C   UNL     1      34.281 -14.460 -21.561  0.00  0.00    +0.034 C 
ATOM     10  C   UNL     1      35.539 -19.333 -21.449  0.00  0.00    +0.034 C 
ATOM     11  C   UNL     1      33.705 -14.677 -24.573  0.00  0.00    +0.034 C 
ATOM     12  C   UNL     1      34.962 -19.551 -24.461  0.00  0.00    +0.034 C 
ENDROOT
TORSDOF 0
ENDMDL
MODEL 2
REMARK VINA RESULT:      -7.4      0.238      3.266
REMARK  Name = 68238
REMARK  0 active torsions:
REMARK  status: ('A' for Active; 'I' for Inactive)
REMARK                            x       y       z     vdW  Elec       q    Type
REMARK                         _______ _______ _______ _____ _____    ______ ____
ROOT
ATOM      1  O   UNL     1      35.181 -16.481 -20.420  0.00  0.00    -0.287 OA
ATOM      2  O   UNL     1      34.128 -17.292 -25.566  0.00  0.00    -0.287 OA
ATOM      3  C   UNL     1      35.202 -17.996 -22.238  0.00  0.00    +0.016 C 
ATOM      4  C   UNL     1      34.406 -15.562 -22.457  0.00  0.00    +0.016 C 
ATOM      5  C   UNL     1      34.912 -18.209 -23.531  0.00  0.00    +0.016 C 
ATOM      6  C   UNL     1      34.115 -15.774 -23.751  0.00  0.00    +0.016 C 
ATOM      7  C   UNL     1      34.951 -16.665 -21.614  0.00  0.00    +0.187 C 
ATOM      8  C   UNL     1      34.363 -17.107 -24.374  0.00  0.00    +0.187 C 
ATOM      9  C   UNL     1      35.802 -19.017 -21.307  0.00  0.00    +0.034 C 
ATOM     10  C   UNL     1      34.241 -14.250 -21.738  0.00  0.00    +0.034 C 
ATOM     11  C   UNL     1      35.077 -19.520 -24.251  0.00  0.00    +0.034 C 
ATOM     12  C   UNL     1      33.517 -14.754 -24.683  0.00  0.00    +0.034 C 
ENDROOT
TORSDOF 0
ENDMDL
MODEL 3
REMARK VINA RESULT:      -7.4      0.164      3.136
REMARK  Name = 68238
REMARK  0 active torsions:
REMARK  status: ('A' for Active; 'I' for Inactive)
REMARK                            x       y       z     vdW  Elec       q    Type
REMARK                         _______ _______ _______ _____ _____    ______ ____
ROOT
ATOM      1  O   UNL     1      34.032 -16.998 -25.518  0.00  0.00    -0.287 OA
ATOM      2  O   UNL     1      35.240 -16.820 -20.345  0.00  0.00    -0.287 OA
ATOM      3  C   UNL     1      34.192 -15.679 -23.559  0.00  0.00    +0.016 C 
ATOM      4  C   UNL     1      34.808 -18.175 -23.619  0.00  0.00    +0.016 C 
ATOM      5  C   UNL     1      34.473 -15.641 -22.246  0.00  0.00    +0.016 C 
ATOM      6  C   UNL     1      35.089 -18.136 -22.306  0.00  0.00    +0.016 C 
ATOM      7  C   UNL     1      34.325 -16.953 -24.324  0.00  0.00    +0.187 C 
ATOM      8  C   UNL     1      34.952 -16.863 -21.540  0.00  0.00    +0.187 C 
ATOM      9  C   UNL     1      33.748 -14.501 -24.384  0.00  0.00    +0.034 C 
ATOM     10  C   UNL     1      34.953 -19.387 -24.499  0.00  0.00    +0.034 C 
ATOM     11  C   UNL     1      34.329 -14.428 -21.366  0.00  0.00    +0.034 C 
ATOM     12  C   UNL     1      35.535 -19.314 -21.481  0.00  0.00    +0.034 C 
ENDROOT
TORSDOF 0
ENDMDL
MODEL 4
REMARK VINA RESULT:      -7.3      1.084      4.517
REMARK  Name = 68238
REMARK  0 active torsions:
REMARK  status: ('A' for Active; 'I' for Inactive)
REMARK                            x       y       z     vdW  Elec       q    Type
REMARK                         _______ _______ _______ _____ _____    ______ ____
ROOT
ATOM      1  O   UNL     1      34.128 -17.532 -25.863  0.00  0.00    -0.287 OA
ATOM      2  O   UNL     1      34.605 -15.039 -21.193  0.00  0.00    -0.287 OA
ATOM      3  C   UNL     1      34.726 -17.690 -23.579  0.00  0.00    +0.016 C 
ATOM      4  C   UNL     1      33.853 -15.521 -24.648  0.00  0.00    +0.016 C 
ATOM      5  C   UNL     1      34.871 -17.053 -22.405  0.00  0.00    +0.016 C 
ATOM      6  C   UNL     1      33.999 -14.884 -23.475  0.00  0.00    +0.016 C 
ATOM      7  C   UNL     1      34.225 -16.959 -24.779  0.00  0.00    +0.187 C 
ATOM      8  C   UNL     1      34.503 -15.614 -22.275  0.00  0.00    +0.187 C 
ATOM      9  C   UNL     1      35.019 -19.148 -23.814  0.00  0.00    +0.034 C 
ATOM     10  C   UNL     1      33.312 -14.900 -25.908  0.00  0.00    +0.034 C 
ATOM     11  C   UNL     1      35.411 -17.674 -21.145  0.00  0.00    +0.034 C 
ATOM     12  C   UNL     1      33.704 -13.427 -23.239  0.00  0.00    +0.034 C 
ENDROOT
TORSDOF 0
ENDMDL
MODEL 5
REMARK VINA RESULT:      -7.3      1.179      1.500
REMARK  Name = 68238
REMARK  0 active torsions:
REMARK  status: ('A' for Active; 'I' for Inactive)
REMARK                            x       y       z     vdW  Elec       q    Type
REMARK                         _______ _______ _______ _____ _____    ______ ____
ROOT
ATOM      1  O   UNL     1      34.580 -14.783 -21.287  0.00  0.00    -0.287 OA
ATOM      2  O   UNL     1      34.048 -17.455 -25.850  0.00  0.00    -0.287 OA
ATOM      3  C   UNL     1      33.900 -14.729 -23.553  0.00  0.00    +0.016 C 
ATOM      4  C   UNL     1      34.829 -16.843 -22.422  0.00  0.00    +0.016 C 
ATOM      5  C   UNL     1      33.790 -15.397 -24.713  0.00  0.00    +0.016 C 
ATOM      6  C   UNL     1      34.719 -17.511 -23.582  0.00  0.00    +0.016 C 
ATOM      7  C   UNL     1      34.443 -15.405 -22.339  0.00  0.00    +0.187 C 
ATOM      8  C   UNL     1      34.179 -16.835 -24.797  0.00  0.00    +0.187 C 
ATOM      9  C   UNL     1      33.495 -13.295 -23.339  0.00  0.00    +0.034 C 
ATOM     10  C   UNL     1      35.314 -17.434 -21.126  0.00  0.00    +0.034 C 
ATOM     11  C   UNL     1      33.304 -14.807 -26.009  0.00  0.00    +0.034 C 
ATOM     12  C   UNL     1      35.122 -18.946 -23.795  0.00  0.00    +0.034 C 
ENDROOT
TORSDOF 0
ENDMDL
MODEL 6
REMARK VINA RESULT:      -7.3      1.273      3.361
REMARK  Name = 68238
REMARK  0 active torsions:
REMARK  status: ('A' for Active; 'I' for Inactive)
REMARK                            x       y       z     vdW  Elec       q    Type
REMARK                         _______ _______ _______ _____ _____    ______ ____
ROOT
ATOM      1  O   UNL     1      34.117 -17.493 -25.840  0.00  0.00    -0.287 OA
ATOM      2  O   UNL     1      34.407 -14.599 -21.392  0.00  0.00    -0.287 OA
ATOM      3  C   UNL     1      33.766 -15.391 -24.811  0.00  0.00    +0.016 C 
ATOM      4  C   UNL     1      34.718 -17.421 -23.553  0.00  0.00    +0.016 C 
ATOM      5  C   UNL     1      33.815 -14.668 -23.681  0.00  0.00    +0.016 C 
ATOM      6  C   UNL     1      34.767 -16.698 -22.423  0.00  0.00    +0.016 C 
ATOM      7  C   UNL     1      34.198 -16.819 -24.815  0.00  0.00    +0.187 C 
ATOM      8  C   UNL     1      34.332 -15.271 -22.419  0.00  0.00    +0.187 C 
ATOM      9  C   UNL     1      33.310 -14.875 -26.150  0.00  0.00    +0.034 C 
ATOM     10  C   UNL     1      35.173 -18.850 -23.686  0.00  0.00    +0.034 C 
ATOM     11  C   UNL     1      33.362 -13.238 -23.549  0.00  0.00    +0.034 C 
ATOM     12  C   UNL     1      35.225 -17.213 -21.085  0.00  0.00    +0.034 C 
ENDROOT
TORSDOF 0
ENDMDL
MODEL 7
REMARK VINA RESULT:      -7.2      0.596      4.502
REMARK  Name = 68238
REMARK  0 active torsions:
REMARK  status: ('A' for Active; 'I' for Inactive)
REMARK                            x       y       z     vdW  Elec       q    Type
REMARK                         _______ _______ _______ _____ _____    ______ ____
ROOT
ATOM      1  O   UNL     1      34.009 -16.324 -25.628  0.00  0.00    -0.287 OA
ATOM      2  O   UNL     1      35.120 -17.154 -20.497  0.00  0.00    -0.287 OA
ATOM      3  C   UNL     1      34.604 -17.884 -23.951  0.00  0.00    +0.016 C 
ATOM      4  C   UNL     1      34.210 -15.391 -23.464  0.00  0.00    +0.016 C 
ATOM      5  C   UNL     1      34.910 -18.089 -22.660  0.00  0.00    +0.016 C 
ATOM      6  C   UNL     1      34.516 -15.596 -22.172  0.00  0.00    +0.016 C 
ATOM      7  C   UNL     1      34.252 -16.519 -24.439  0.00  0.00    +0.187 C 
ATOM      8  C   UNL     1      34.872 -16.960 -21.686  0.00  0.00    +0.187 C 
ATOM      9  C   UNL     1      34.564 -18.953 -25.011  0.00  0.00    +0.034 C 
ATOM     10  C   UNL     1      33.793 -14.071 -24.055  0.00  0.00    +0.034 C 
ATOM     11  C   UNL     1      35.326 -19.409 -22.068  0.00  0.00    +0.034 C 
ATOM     12  C   UNL     1      34.554 -14.527 -21.112  0.00  0.00    +0.034 C 
ENDROOT
TORSDOF 0
ENDMDL
MODEL 8
REMARK VINA RESULT:      -6.7      2.015      3.967
REMARK  Name = 68238
REMARK  0 active torsions:
REMARK  status: ('A' for Active; 'I' for Inactive)
REMARK                            x       y       z     vdW  Elec       q    Type
REMARK                         _______ _______ _______ _____ _____    ______ ____
ROOT
ATOM      1  O   UNL     1      32.160 -13.220 -23.457  0.00  0.00    -0.287 OA
ATOM      2  O   UNL     1      35.426 -17.336 -22.660  0.00  0.00    -0.287 OA
ATOM      3  C   UNL     1      33.419 -14.973 -24.426  0.00  0.00    +0.016 C 
ATOM      4  C   UNL     1      33.314 -14.564 -21.890  0.00  0.00    +0.016 C 
ATOM      5  C   UNL     1      34.265 -15.997 -24.227  0.00  0.00    +0.016 C 
ATOM      6  C   UNL     1      34.160 -15.588 -21.691  0.00  0.00    +0.016 C 
ATOM      7  C   UNL     1      32.905 -14.181 -23.272  0.00  0.00    +0.187 C 
ATOM      8  C   UNL     1      34.678 -16.378 -22.845  0.00  0.00    +0.187 C 
ATOM      9  C   UNL     1      32.899 -14.530 -25.768  0.00  0.00    +0.034 C 
ATOM     10  C   UNL     1      32.695 -13.730 -20.802  0.00  0.00    +0.034 C 
ATOM     11  C   UNL     1      34.885 -16.832 -25.315  0.00  0.00    +0.034 C 
ATOM     12  C   UNL     1      34.680 -16.033 -20.349  0.00  0.00    +0.034 C 
ENDROOT
TORSDOF 0
ENDMDL
MODEL 9
REMARK VINA RESULT:      -6.7      1.999      3.702
REMARK  Name = 68238
REMARK  0 active torsions:
REMARK  status: ('A' for Active; 'I' for Inactive)
REMARK                            x       y       z     vdW  Elec       q    Type
REMARK                         _______ _______ _______ _____ _____    ______ ____
ROOT
ATOM      1  O   UNL     1      35.344 -17.350 -22.556  0.00  0.00    -0.287 OA
ATOM      2  O   UNL     1      32.180 -13.184 -23.491  0.00  0.00    -0.287 OA
ATOM      3  C   UNL     1      34.244 -16.014 -24.169  0.00  0.00    +0.016 C 
ATOM      4  C   UNL     1      34.108 -15.551 -21.644  0.00  0.00    +0.016 C 
ATOM      5  C   UNL     1      33.423 -14.977 -24.403  0.00  0.00    +0.016 C 
ATOM      6  C   UNL     1      33.287 -14.514 -21.878  0.00  0.00    +0.016 C 
ATOM      7  C   UNL     1      34.624 -16.378 -22.773  0.00  0.00    +0.187 C 
ATOM      8  C   UNL     1      32.904 -14.153 -23.274  0.00  0.00    +0.187 C 
ATOM      9  C   UNL     1      34.864 -16.884 -25.230  0.00  0.00    +0.034 C 
ATOM     10  C   UNL     1      34.597 -15.978 -20.285  0.00  0.00    +0.034 C 
ATOM     11  C   UNL     1      32.935 -14.550 -25.762  0.00  0.00    +0.034 C 
ATOM     12  C   UNL     1      32.669 -13.643 -20.817  0.00  0.00    +0.034 C 
ENDROOT
TORSDOF 0
ENDMDL
