MODEL 1
REMARK VINA RESULT:      -9.3      0.000      0.000
REMARK  Name = 445501
REMARK  9 active torsions:
REMARK  status: ('A' for Active; 'I' for Inactive)
REMARK    1  A    between atoms: C_3  and  C_9
REMARK    2  A    between atoms: C_7  and  C_21
REMARK    3  A    between atoms: C_9  and  O_10
REMARK    4  A    between atoms: O_10  and  C_11
REMARK    5  A    between atoms: C_11  and  C_12
REMARK    6  A    between atoms: C_12  and  C_13
REMARK    7  A    between atoms: C_13  and  C_15
REMARK    8  A    between atoms: C_21  and  C_22
REMARK    9  A    between atoms: C_22  and  C_25
REMARK                            x       y       z     vdW  Elec       q    Type
REMARK                         _______ _______ _______ _____ _____    ______ ____
ROOT
ATOM      1  O   UNL     1      35.002 -16.322 -20.196  0.00  0.00    -0.267 OA
ATOM      2  N   UNL     1      34.485 -15.842 -22.429  0.00  0.00    -0.266 N 
ATOM      3  C   UNL     1      34.002 -14.480 -22.251  0.00  0.00    +0.175 C 
ATOM      4  C   UNL     1      33.986 -13.890 -23.656  0.00  0.00    +0.033 C 
ATOM      5  C   UNL     1      33.752 -15.107 -24.550  0.00  0.00    +0.024 C 
ATOM      6  C   UNL     1      34.511 -16.217 -23.839  0.00  0.00    +0.094 C 
ATOM      7  C   UNL     1      34.998 -16.589 -21.389  0.00  0.00    +0.284 C 
ENDROOT
BRANCH   3   9
ATOM      8  O   UNL     1      32.133 -15.607 -21.236  0.00  0.00    -0.248 OA
ATOM      9  C   UNL     1      32.624 -14.574 -21.668  0.00  0.00    +0.335 C 
BRANCH   9  10
ATOM     10  O   UNL     1      32.031 -13.347 -21.702  0.00  0.00    -0.447 OA
BRANCH  10  11
ATOM     11  C   UNL     1      31.991 -12.650 -20.453  0.00  0.00    +0.209 C 
BRANCH  11  12
ATOM     12  C   UNL     1      31.193 -11.366 -20.630  0.00  0.00    +0.052 C 
BRANCH  12  13
ATOM     13  C   UNL     1      31.691 -10.556 -21.826  0.00  0.00    +0.032 C 
BRANCH  13  15
ATOM     14  N   UNL     1      32.469  -7.438 -19.821  0.00  0.00    -0.243 NA
ATOM     15  C   UNL     1      31.882  -9.103 -21.474  0.00  0.00    -0.003 C 
ATOM     16  C   UNL     1      31.663  -8.102 -22.415  0.00  0.00    -0.001 C 
ATOM     17  C   UNL     1      32.281  -8.722 -20.203  0.00  0.00    +0.095 C 
ATOM     18  C   UNL     1      31.846  -6.770 -22.060  0.00  0.00    +0.020 C 
ATOM     19  C   UNL     1      32.247  -6.494 -20.763  0.00  0.00    +0.099 C 
ENDBRANCH  13  15
ENDBRANCH  12  13
ENDBRANCH  11  12
ENDBRANCH  10  11
ENDBRANCH   9  10
ENDBRANCH   3   9
BRANCH   7  21
ATOM     20  O   UNL     1      36.791 -17.829 -22.119  0.00  0.00    -0.287 OA
ATOM     21  C   UNL     1      35.615 -17.878 -21.782  0.00  0.00    +0.225 C 
BRANCH  21  22
ATOM     22  C   UNL     1      34.765 -19.148 -21.705  0.00  0.00    +0.060 C 
ATOM     23  C   UNL     1      35.536 -20.197 -20.884  0.00  0.00    +0.008 C 
ATOM     24  C   UNL     1      34.566 -19.706 -23.126  0.00  0.00    +0.008 C 
BRANCH  22  25
ATOM     25  C   UNL     1      33.398 -18.877 -21.029  0.00  0.00    +0.007 C 
ATOM     26  C   UNL     1      32.767 -20.085 -20.345  0.00  0.00    +0.000 C 
ENDBRANCH  22  25
ENDBRANCH  21  22
ENDBRANCH   7  21
TORSDOF 9
ENDMDL
MODEL 2
REMARK VINA RESULT:      -8.8      7.493     11.771
REMARK  Name = 445501
REMARK  9 active torsions:
REMARK  status: ('A' for Active; 'I' for Inactive)
REMARK    1  A    between atoms: C_3  and  C_9
REMARK    2  A    between atoms: C_7  and  C_21
REMARK    3  A    between atoms: C_9  and  O_10
REMARK    4  A    between atoms: O_10  and  C_11
REMARK    5  A    between atoms: C_11  and  C_12
REMARK    6  A    between atoms: C_12  and  C_13
REMARK    7  A    between atoms: C_13  and  C_15
REMARK    8  A    between atoms: C_21  and  C_22
REMARK    9  A    between atoms: C_22  and  C_25
REMARK                            x       y       z     vdW  Elec       q    Type
REMARK                         _______ _______ _______ _____ _____    ______ ____
ROOT
ATOM      1  O   UNL     1      36.423 -26.100 -15.790  0.00  0.00    -0.267 OA
ATOM      2  N   UNL     1      35.166 -24.868 -14.245  0.00  0.00    -0.266 N 
ATOM      3  C   UNL     1      33.986 -24.634 -15.065  0.00  0.00    +0.175 C 
ATOM      4  C   UNL     1      32.917 -24.176 -14.078  0.00  0.00    +0.033 C 
ATOM      5  C   UNL     1      33.723 -23.503 -12.968  0.00  0.00    +0.024 C 
ATOM      6  C   UNL     1      34.990 -24.342 -12.896  0.00  0.00    +0.094 C 
ATOM      7  C   UNL     1      36.228 -25.636 -14.676  0.00  0.00    +0.284 C 
ENDROOT
BRANCH   3   9
ATOM      8  O   UNL     1      35.010 -22.574 -15.774  0.00  0.00    -0.248 OA
ATOM      9  C   UNL     1      34.338 -23.558 -16.047  0.00  0.00    +0.335 C 
BRANCH   9  10
ATOM     10  O   UNL     1      33.795 -23.856 -17.262  0.00  0.00    -0.447 OA
BRANCH  10  11
ATOM     11  C   UNL     1      33.108 -22.780 -17.909  0.00  0.00    +0.209 C 
BRANCH  11  12
ATOM     12  C   UNL     1      33.863 -22.405 -19.176  0.00  0.00    +0.052 C 
BRANCH  12  13
ATOM     13  C   UNL     1      33.233 -21.196 -19.867  0.00  0.00    +0.032 C 
BRANCH  13  15
ATOM     14  N   UNL     1      34.808 -18.211 -21.585  0.00  0.00    -0.243 NA
ATOM     15  C   UNL     1      34.279 -20.250 -20.398  0.00  0.00    -0.003 C 
ATOM     16  C   UNL     1      35.635 -20.504 -20.216  0.00  0.00    -0.001 C 
ATOM     17  C   UNL     1      33.921 -19.100 -21.083  0.00  0.00    +0.095 C 
ATOM     18  C   UNL     1      36.577 -19.613 -20.718  0.00  0.00    +0.020 C 
ATOM     19  C   UNL     1      36.116 -18.492 -21.388  0.00  0.00    +0.099 C 
ENDBRANCH  13  15
ENDBRANCH  12  13
ENDBRANCH  11  12
ENDBRANCH  10  11
ENDBRANCH   9  10
ENDBRANCH   3   9
BRANCH   7  21
ATOM     20  O   UNL     1      37.097 -26.952 -13.003  0.00  0.00    -0.287 OA
ATOM     21  C   UNL     1      37.257 -25.925 -13.648  0.00  0.00    +0.225 C 
BRANCH  21  22
ATOM     22  C   UNL     1      38.431 -24.955 -13.499  0.00  0.00    +0.060 C 
ATOM     23  C   UNL     1      38.382 -24.350 -12.085  0.00  0.00    +0.008 C 
ATOM     24  C   UNL     1      38.268 -23.809 -14.515  0.00  0.00    +0.008 C 
BRANCH  22  25
ATOM     25  C   UNL     1      39.789 -25.671 -13.700  0.00  0.00    +0.007 C 
ATOM     26  C   UNL     1      40.353 -25.597 -15.116  0.00  0.00    +0.000 C 
ENDBRANCH  22  25
ENDBRANCH  21  22
ENDBRANCH   7  21
TORSDOF 9
ENDMDL
MODEL 3
REMARK VINA RESULT:      -8.6      2.179      8.939
REMARK  Name = 445501
REMARK  9 active torsions:
REMARK  status: ('A' for Active; 'I' for Inactive)
REMARK    1  A    between atoms: C_3  and  C_9
REMARK    2  A    between atoms: C_7  and  C_21
REMARK    3  A    between atoms: C_9  and  O_10
REMARK    4  A    between atoms: O_10  and  C_11
REMARK    5  A    between atoms: C_11  and  C_12
REMARK    6  A    between atoms: C_12  and  C_13
REMARK    7  A    between atoms: C_13  and  C_15
REMARK    8  A    between atoms: C_21  and  C_22
REMARK    9  A    between atoms: C_22  and  C_25
REMARK                            x       y       z     vdW  Elec       q    Type
REMARK                         _______ _______ _______ _____ _____    ______ ____
ROOT
ATOM      1  O   UNL     1      33.470 -11.565 -24.338  0.00  0.00    -0.267 OA
ATOM      2  N   UNL     1      33.097 -12.948 -22.486  0.00  0.00    -0.266 N 
ATOM      3  C   UNL     1      34.116 -13.953 -22.758  0.00  0.00    +0.175 C 
ATOM      4  C   UNL     1      34.262 -14.716 -21.447  0.00  0.00    +0.033 C 
ATOM      5  C   UNL     1      32.880 -14.595 -20.807  0.00  0.00    +0.024 C 
ATOM      6  C   UNL     1      32.425 -13.202 -21.215  0.00  0.00    +0.094 C 
ATOM      7  C   UNL     1      32.934 -11.826 -23.270  0.00  0.00    +0.284 C 
ENDROOT
BRANCH   3   9
ATOM      8  O   UNL     1      33.004 -14.404 -24.846  0.00  0.00    -0.248 OA
ATOM      9  C   UNL     1      33.590 -14.825 -23.858  0.00  0.00    +0.335 C 
BRANCH   9  10
ATOM     10  O   UNL     1      33.869 -16.130 -23.577  0.00  0.00    -0.447 OA
BRANCH  10  11
ATOM     11  C   UNL     1      34.607 -16.831 -24.582  0.00  0.00    +0.209 C 
BRANCH  11  12
ATOM     12  C   UNL     1      35.051 -18.174 -24.021  0.00  0.00    +0.052 C 
BRANCH  12  13
ATOM     13  C   UNL     1      35.680 -18.024 -22.636  0.00  0.00    +0.032 C 
BRANCH  13  15
ATOM     14  N   UNL     1      35.494 -20.622 -19.887  0.00  0.00    -0.243 NA
ATOM     15  C   UNL     1      35.113 -19.018 -21.656  0.00  0.00    -0.003 C 
ATOM     16  C   UNL     1      33.745 -19.265 -21.595  0.00  0.00    -0.001 C 
ATOM     17  C   UNL     1      35.937 -19.716 -20.788  0.00  0.00    +0.095 C 
ATOM     18  C   UNL     1      33.251 -20.190 -20.681  0.00  0.00    +0.020 C 
ATOM     19  C   UNL     1      34.159 -20.835 -19.857  0.00  0.00    +0.099 C 
ENDBRANCH  13  15
ENDBRANCH  12  13
ENDBRANCH  11  12
ENDBRANCH  10  11
ENDBRANCH   9  10
ENDBRANCH   3   9
BRANCH   7  21
ATOM     20  O   UNL     1      30.904 -11.251 -22.358  0.00  0.00    -0.287 OA
ATOM     21  C   UNL     1      31.982 -10.819 -22.743  0.00  0.00    +0.225 C 
BRANCH  21  22
ATOM     22  C   UNL     1      32.423  -9.354 -22.691  0.00  0.00    +0.060 C 
ATOM     23  C   UNL     1      32.433  -8.905 -21.220  0.00  0.00    +0.008 C 
ATOM     24  C   UNL     1      31.394  -8.493 -23.447  0.00  0.00    +0.008 C 
BRANCH  22  25
ATOM     25  C   UNL     1      33.837  -9.165 -23.292  0.00  0.00    +0.007 C 
ATOM     26  C   UNL     1      34.363  -7.734 -23.262  0.00  0.00    +0.000 C 
ENDBRANCH  22  25
ENDBRANCH  21  22
ENDBRANCH   7  21
TORSDOF 9
ENDMDL
MODEL 4
REMARK VINA RESULT:      -8.5      7.762     11.719
REMARK  Name = 445501
REMARK  9 active torsions:
REMARK  status: ('A' for Active; 'I' for Inactive)
REMARK    1  A    between atoms: C_3  and  C_9
REMARK    2  A    between atoms: C_7  and  C_21
REMARK    3  A    between atoms: C_9  and  O_10
REMARK    4  A    between atoms: O_10  and  C_11
REMARK    5  A    between atoms: C_11  and  C_12
REMARK    6  A    between atoms: C_12  and  C_13
REMARK    7  A    between atoms: C_13  and  C_15
REMARK    8  A    between atoms: C_21  and  C_22
REMARK    9  A    between atoms: C_22  and  C_25
REMARK                            x       y       z     vdW  Elec       q    Type
REMARK                         _______ _______ _______ _____ _____    ______ ____
ROOT
ATOM      1  O   UNL     1      33.546 -23.323 -16.120  0.00  0.00    -0.267 OA
ATOM      2  N   UNL     1      34.669 -23.865 -14.138  0.00  0.00    -0.266 N 
ATOM      3  C   UNL     1      35.900 -23.126 -14.378  0.00  0.00    +0.175 C 
ATOM      4  C   UNL     1      36.582 -23.062 -13.016  0.00  0.00    +0.033 C 
ATOM      5  C   UNL     1      36.096 -24.330 -12.315  0.00  0.00    +0.024 C 
ATOM      6  C   UNL     1      34.668 -24.483 -12.816  0.00  0.00    +0.094 C 
ATOM      7  C   UNL     1      33.599 -23.825 -15.007  0.00  0.00    +0.284 C 
ENDROOT
BRANCH   3   9
ATOM      8  O   UNL     1      36.723 -25.137 -15.415  0.00  0.00    -0.248 OA
ATOM      9  C   UNL     1      36.702 -23.915 -15.369  0.00  0.00    +0.335 C 
BRANCH   9  10
ATOM     10  O   UNL     1      37.385 -23.062 -16.184  0.00  0.00    -0.447 OA
BRANCH  10  11
ATOM     11  C   UNL     1      36.700 -21.851 -16.517  0.00  0.00    +0.209 C 
BRANCH  11  12
ATOM     12  C   UNL     1      36.679 -21.696 -18.031  0.00  0.00    +0.052 C 
BRANCH  12  13
ATOM     13  C   UNL     1      35.344 -22.145 -18.623  0.00  0.00    +0.032 C 
BRANCH  13  15
ATOM     14  N   UNL     1      35.299 -19.532 -21.365  0.00  0.00    -0.243 NA
ATOM     15  C   UNL     1      34.827 -21.161 -19.641  0.00  0.00    -0.003 C 
ATOM     16  C   UNL     1      33.462 -20.957 -19.813  0.00  0.00    -0.001 C 
ATOM     17  C   UNL     1      35.696 -20.431 -20.435  0.00  0.00    +0.095 C 
ATOM     18  C   UNL     1      33.014 -20.042 -20.759  0.00  0.00    +0.020 C 
ATOM     19  C   UNL     1      33.965 -19.362 -21.503  0.00  0.00    +0.099 C 
ENDBRANCH  13  15
ENDBRANCH  12  13
ENDBRANCH  11  12
ENDBRANCH  10  11
ENDBRANCH   9  10
ENDBRANCH   3   9
BRANCH   7  21
ATOM     20  O   UNL     1      32.450 -25.678 -14.276  0.00  0.00    -0.287 OA
ATOM     21  C   UNL     1      32.362 -24.481 -14.518  0.00  0.00    +0.225 C 
BRANCH  21  22
ATOM     22  C   UNL     1      31.109 -23.625 -14.324  0.00  0.00    +0.060 C 
ATOM     23  C   UNL     1      31.552 -22.200 -13.948  0.00  0.00    +0.008 C 
ATOM     24  C   UNL     1      30.288 -24.195 -13.153  0.00  0.00    +0.008 C 
BRANCH  22  25
ATOM     25  C   UNL     1      30.254 -23.569 -15.613  0.00  0.00    +0.007 C 
ATOM     26  C   UNL     1      29.055 -22.628 -15.551  0.00  0.00    +0.000 C 
ENDBRANCH  22  25
ENDBRANCH  21  22
ENDBRANCH   7  21
TORSDOF 9
ENDMDL
MODEL 5
REMARK VINA RESULT:      -8.5      1.538      2.029
REMARK  Name = 445501
REMARK  9 active torsions:
REMARK  status: ('A' for Active; 'I' for Inactive)
REMARK    1  A    between atoms: C_3  and  C_9
REMARK    2  A    between atoms: C_7  and  C_21
REMARK    3  A    between atoms: C_9  and  O_10
REMARK    4  A    between atoms: O_10  and  C_11
REMARK    5  A    between atoms: C_11  and  C_12
REMARK    6  A    between atoms: C_12  and  C_13
REMARK    7  A    between atoms: C_13  and  C_15
REMARK    8  A    between atoms: C_21  and  C_22
REMARK    9  A    between atoms: C_22  and  C_25
REMARK                            x       y       z     vdW  Elec       q    Type
REMARK                         _______ _______ _______ _____ _____    ______ ____
ROOT
ATOM      1  O   UNL     1      35.203 -16.386 -20.228  0.00  0.00    -0.267 OA
ATOM      2  N   UNL     1      34.486 -15.745 -22.363  0.00  0.00    -0.266 N 
ATOM      3  C   UNL     1      34.087 -14.379 -22.057  0.00  0.00    +0.175 C 
ATOM      4  C   UNL     1      33.957 -13.702 -23.416  0.00  0.00    +0.033 C 
ATOM      5  C   UNL     1      33.577 -14.850 -24.350  0.00  0.00    +0.024 C 
ATOM      6  C   UNL     1      34.352 -16.032 -23.788  0.00  0.00    +0.094 C 
ATOM      7  C   UNL     1      35.066 -16.577 -21.428  0.00  0.00    +0.284 C 
ENDROOT
BRANCH   3   9
ATOM      8  O   UNL     1      32.011 -15.408 -21.406  0.00  0.00    -0.248 OA
ATOM      9  C   UNL     1      32.772 -14.454 -21.341  0.00  0.00    +0.335 C 
BRANCH   9  10
ATOM     10  O   UNL     1      32.578 -13.309 -20.625  0.00  0.00    -0.447 OA
BRANCH  10  11
ATOM     11  C   UNL     1      31.461 -12.513 -21.032  0.00  0.00    +0.209 C 
BRANCH  11  12
ATOM     12  C   UNL     1      31.901 -11.060 -21.128  0.00  0.00    +0.052 C 
BRANCH  12  13
ATOM     13  C   UNL     1      31.699 -10.504 -22.537  0.00  0.00    +0.032 C 
BRANCH  13  15
ATOM     14  N   UNL     1      34.900  -9.134 -24.028  0.00  0.00    -0.243 NA
ATOM     15  C   UNL     1      32.790  -9.536 -22.916  0.00  0.00    -0.003 C 
ATOM     16  C   UNL     1      32.730  -8.200 -22.533  0.00  0.00    -0.001 C 
ATOM     17  C   UNL     1      33.887  -9.949 -23.657  0.00  0.00    +0.095 C 
ATOM     18  C   UNL     1      33.753  -7.331 -22.896  0.00  0.00    +0.020 C 
ATOM     19  C   UNL     1      34.805  -7.843 -23.637  0.00  0.00    +0.099 C 
ENDBRANCH  13  15
ENDBRANCH  12  13
ENDBRANCH  11  12
ENDBRANCH  10  11
ENDBRANCH   9  10
ENDBRANCH   3   9
BRANCH   7  21
ATOM     20  O   UNL     1      36.698 -17.830 -22.453  0.00  0.00    -0.287 OA
ATOM     21  C   UNL     1      35.579 -17.863 -21.957  0.00  0.00    +0.225 C 
BRANCH  21  22
ATOM     22  C   UNL     1      34.706 -19.111 -21.816  0.00  0.00    +0.060 C 
ATOM     23  C   UNL     1      34.361 -19.621 -23.226  0.00  0.00    +0.008 C 
ATOM     24  C   UNL     1      33.391 -18.726 -21.112  0.00  0.00    +0.008 C 
BRANCH  22  25
ATOM     25  C   UNL     1      35.435 -20.230 -21.034  0.00  0.00    +0.007 C 
ATOM     26  C   UNL     1      36.649 -19.770 -20.232  0.00  0.00    +0.000 C 
ENDBRANCH  22  25
ENDBRANCH  21  22
ENDBRANCH   7  21
TORSDOF 9
ENDMDL
MODEL 6
REMARK VINA RESULT:      -8.5      2.613      9.448
REMARK  Name = 445501
REMARK  9 active torsions:
REMARK  status: ('A' for Active; 'I' for Inactive)
REMARK    1  A    between atoms: C_3  and  C_9
REMARK    2  A    between atoms: C_7  and  C_21
REMARK    3  A    between atoms: C_9  and  O_10
REMARK    4  A    between atoms: O_10  and  C_11
REMARK    5  A    between atoms: C_11  and  C_12
REMARK    6  A    between atoms: C_12  and  C_13
REMARK    7  A    between atoms: C_13  and  C_15
REMARK    8  A    between atoms: C_21  and  C_22
REMARK    9  A    between atoms: C_22  and  C_25
REMARK                            x       y       z     vdW  Elec       q    Type
REMARK                         _______ _______ _______ _____ _____    ______ ____
ROOT
ATOM      1  O   UNL     1      31.202  -9.983 -22.760  0.00  0.00    -0.267 OA
ATOM      2  N   UNL     1      33.311  -9.931 -23.776  0.00  0.00    -0.266 N 
ATOM      3  C   UNL     1      33.204 -11.153 -24.560  0.00  0.00    +0.175 C 
ATOM      4  C   UNL     1      34.341 -11.062 -25.572  0.00  0.00    +0.033 C 
ATOM      5  C   UNL     1      35.395 -10.225 -24.849  0.00  0.00    +0.024 C 
ATOM      6  C   UNL     1      34.566  -9.235 -24.045  0.00  0.00    +0.094 C 
ATOM      7  C   UNL     1      32.269  -9.443 -23.016  0.00  0.00    +0.284 C 
ENDROOT
BRANCH   3   9
ATOM      8  O   UNL     1      32.977 -12.310 -22.462  0.00  0.00    -0.248 OA
ATOM      9  C   UNL     1      33.387 -12.300 -23.614  0.00  0.00    +0.335 C 
BRANCH   9  10
ATOM     10  O   UNL     1      34.071 -13.301 -24.239  0.00  0.00    -0.447 OA
BRANCH  10  11
ATOM     11  C   UNL     1      33.262 -14.338 -24.802  0.00  0.00    +0.209 C 
BRANCH  11  12
ATOM     12  C   UNL     1      33.927 -15.681 -24.536  0.00  0.00    +0.052 C 
BRANCH  12  13
ATOM     13  C   UNL     1      34.758 -15.652 -23.254  0.00  0.00    +0.032 C 
BRANCH  13  15
ATOM     14  N   UNL     1      35.359 -18.404 -20.722  0.00  0.00    -0.243 NA
ATOM     15  C   UNL     1      34.916 -17.028 -22.661  0.00  0.00    -0.003 C 
ATOM     16  C   UNL     1      34.777 -18.168 -23.446  0.00  0.00    -0.001 C 
ATOM     17  C   UNL     1      35.204 -17.199 -21.316  0.00  0.00    +0.095 C 
ATOM     18  C   UNL     1      34.929 -19.425 -22.871  0.00  0.00    +0.020 C 
ATOM     19  C   UNL     1      35.217 -19.487 -21.517  0.00  0.00    +0.099 C 
ENDBRANCH  13  15
ENDBRANCH  12  13
ENDBRANCH  11  12
ENDBRANCH  10  11
ENDBRANCH   9  10
ENDBRANCH   3   9
BRANCH   7  21
ATOM     20  O   UNL     1      33.042  -8.064 -21.346  0.00  0.00    -0.287 OA
ATOM     21  C   UNL     1      32.486  -8.096 -22.436  0.00  0.00    +0.225 C 
BRANCH  21  22
ATOM     22  C   UNL     1      32.039  -6.874 -23.242  0.00  0.00    +0.060 C 
ATOM     23  C   UNL     1      31.532  -5.806 -22.258  0.00  0.00    +0.008 C 
ATOM     24  C   UNL     1      30.866  -7.278 -24.155  0.00  0.00    +0.008 C 
BRANCH  22  25
ATOM     25  C   UNL     1      33.202  -6.288 -24.078  0.00  0.00    +0.007 C 
ATOM     26  C   UNL     1      32.776  -5.507 -25.317  0.00  0.00    +0.000 C 
ENDBRANCH  22  25
ENDBRANCH  21  22
ENDBRANCH   7  21
TORSDOF 9
ENDMDL
MODEL 7
REMARK VINA RESULT:      -8.4      3.852     10.011
REMARK  Name = 445501
REMARK  9 active torsions:
REMARK  status: ('A' for Active; 'I' for Inactive)
REMARK    1  A    between atoms: C_3  and  C_9
REMARK    2  A    between atoms: C_7  and  C_21
REMARK    3  A    between atoms: C_9  and  O_10
REMARK    4  A    between atoms: O_10  and  C_11
REMARK    5  A    between atoms: C_11  and  C_12
REMARK    6  A    between atoms: C_12  and  C_13
REMARK    7  A    between atoms: C_13  and  C_15
REMARK    8  A    between atoms: C_21  and  C_22
REMARK    9  A    between atoms: C_22  and  C_25
REMARK                            x       y       z     vdW  Elec       q    Type
REMARK                         _______ _______ _______ _____ _____    ______ ____
ROOT
ATOM      1  O   UNL     1      35.036 -16.270 -19.802  0.00  0.00    -0.267 OA
ATOM      2  N   UNL     1      34.779 -17.422 -21.825  0.00  0.00    -0.266 N 
ATOM      3  C   UNL     1      35.009 -18.773 -21.335  0.00  0.00    +0.175 C 
ATOM      4  C   UNL     1      34.501 -19.679 -22.451  0.00  0.00    +0.033 C 
ATOM      5  C   UNL     1      34.707 -18.841 -23.711  0.00  0.00    +0.024 C 
ATOM      6  C   UNL     1      34.423 -17.423 -23.240  0.00  0.00    +0.094 C 
ATOM      7  C   UNL     1      34.749 -16.325 -20.990  0.00  0.00    +0.284 C 
ENDROOT
BRANCH   3   9
ATOM      8  O   UNL     1      37.333 -18.509 -21.906  0.00  0.00    -0.248 OA
ATOM      9  C   UNL     1      36.486 -18.920 -21.125  0.00  0.00    +0.335 C 
BRANCH   9  10
ATOM     10  O   UNL     1      36.716 -19.571 -19.949  0.00  0.00    -0.447 OA
BRANCH  10  11
ATOM     11  C   UNL     1      36.718 -21.000 -20.029  0.00  0.00    +0.209 C 
BRANCH  11  12
ATOM     12  C   UNL     1      36.009 -21.562 -18.805  0.00  0.00    +0.052 C 
BRANCH  12  13
ATOM     13  C   UNL     1      36.849 -21.387 -17.540  0.00  0.00    +0.032 C 
BRANCH  13  15
ATOM     14  N   UNL     1      37.382 -24.016 -14.866  0.00  0.00    -0.243 NA
ATOM     15  C   UNL     1      36.557 -22.462 -16.525  0.00  0.00    -0.003 C 
ATOM     16  C   UNL     1      35.256 -22.898 -16.296  0.00  0.00    -0.001 C 
ATOM     17  C   UNL     1      37.575 -23.047 -15.789  0.00  0.00    +0.095 C 
ATOM     18  C   UNL     1      35.017 -23.892 -15.353  0.00  0.00    +0.020 C 
ATOM     19  C   UNL     1      36.105 -24.413 -14.671  0.00  0.00    +0.099 C 
ENDBRANCH  13  15
ENDBRANCH  12  13
ENDBRANCH  11  12
ENDBRANCH  10  11
ENDBRANCH   9  10
ENDBRANCH   3   9
BRANCH   7  21
ATOM     20  O   UNL     1      35.158 -14.484 -22.305  0.00  0.00    -0.287 OA
ATOM     21  C   UNL     1      34.317 -15.057 -21.626  0.00  0.00    +0.225 C 
BRANCH  21  22
ATOM     22  C   UNL     1      32.874 -14.591 -21.417  0.00  0.00    +0.060 C 
ATOM     23  C   UNL     1      32.862 -13.557 -20.277  0.00  0.00    +0.008 C 
ATOM     24  C   UNL     1      32.016 -15.793 -20.981  0.00  0.00    +0.008 C 
BRANCH  22  25
ATOM     25  C   UNL     1      32.295 -13.944 -22.699  0.00  0.00    +0.007 C 
ATOM     26  C   UNL     1      32.265 -12.419 -22.694  0.00  0.00    +0.000 C 
ENDBRANCH  22  25
ENDBRANCH  21  22
ENDBRANCH   7  21
TORSDOF 9
ENDMDL
MODEL 8
REMARK VINA RESULT:      -8.2      7.387     11.219
REMARK  Name = 445501
REMARK  9 active torsions:
REMARK  status: ('A' for Active; 'I' for Inactive)
REMARK    1  A    between atoms: C_3  and  C_9
REMARK    2  A    between atoms: C_7  and  C_21
REMARK    3  A    between atoms: C_9  and  O_10
REMARK    4  A    between atoms: O_10  and  C_11
REMARK    5  A    between atoms: C_11  and  C_12
REMARK    6  A    between atoms: C_12  and  C_13
REMARK    7  A    between atoms: C_13  and  C_15
REMARK    8  A    between atoms: C_21  and  C_22
REMARK    9  A    between atoms: C_22  and  C_25
REMARK                            x       y       z     vdW  Elec       q    Type
REMARK                         _______ _______ _______ _____ _____    ______ ____
ROOT
ATOM      1  O   UNL     1      35.297 -23.579 -12.983  0.00  0.00    -0.267 OA
ATOM      2  N   UNL     1      36.573 -23.010 -14.863  0.00  0.00    -0.266 N 
ATOM      3  C   UNL     1      35.543 -22.316 -15.622  0.00  0.00    +0.175 C 
ATOM      4  C   UNL     1      36.306 -21.552 -16.697  0.00  0.00    +0.033 C 
ATOM      5  C   UNL     1      37.551 -22.407 -16.926  0.00  0.00    +0.024 C 
ATOM      6  C   UNL     1      37.865 -22.948 -15.539  0.00  0.00    +0.094 C 
ATOM      7  C   UNL     1      36.354 -23.505 -13.594  0.00  0.00    +0.284 C 
ENDROOT
BRANCH   3   9
ATOM      8  O   UNL     1      34.815 -24.568 -16.064  0.00  0.00    -0.248 OA
ATOM      9  C   UNL     1      34.648 -23.365 -16.209  0.00  0.00    +0.335 C 
BRANCH   9  10
ATOM     10  O   UNL     1      33.645 -22.765 -16.912  0.00  0.00    -0.447 OA
BRANCH  10  11
ATOM     11  C   UNL     1      33.374 -23.330 -18.199  0.00  0.00    +0.209 C 
BRANCH  11  12
ATOM     12  C   UNL     1      34.170 -22.569 -19.248  0.00  0.00    +0.052 C 
BRANCH  12  13
ATOM     13  C   UNL     1      33.442 -21.302 -19.696  0.00  0.00    +0.032 C 
BRANCH  13  15
ATOM     14  N   UNL     1      34.697 -18.319 -21.663  0.00  0.00    -0.243 NA
ATOM     15  C   UNL     1      34.385 -20.313 -20.331  0.00  0.00    -0.003 C 
ATOM     16  C   UNL     1      35.763 -20.447 -20.198  0.00  0.00    -0.001 C 
ATOM     17  C   UNL     1      33.907 -19.240 -21.067  0.00  0.00    +0.095 C 
ATOM     18  C   UNL     1      36.608 -19.520 -20.797  0.00  0.00    +0.020 C 
ATOM     19  C   UNL     1      36.030 -18.483 -21.511  0.00  0.00    +0.099 C 
ENDBRANCH  13  15
ENDBRANCH  12  13
ENDBRANCH  11  12
ENDBRANCH  10  11
ENDBRANCH   9  10
ENDBRANCH   3   9
BRANCH   7  21
ATOM     20  O   UNL     1      38.171 -23.194 -12.220  0.00  0.00    -0.287 OA
ATOM     21  C   UNL     1      37.560 -24.011 -12.896  0.00  0.00    +0.225 C 
BRANCH  21  22
ATOM     22  C   UNL     1      37.920 -25.491 -13.043  0.00  0.00    +0.060 C 
ATOM     23  C   UNL     1      37.918 -26.130 -11.642  0.00  0.00    +0.008 C 
ATOM     24  C   UNL     1      39.343 -25.607 -13.619  0.00  0.00    +0.008 C 
BRANCH  22  25
ATOM     25  C   UNL     1      36.905 -26.237 -13.943  0.00  0.00    +0.007 C 
ATOM     26  C   UNL     1      37.489 -26.816 -15.228  0.00  0.00    +0.000 C 
ENDBRANCH  22  25
ENDBRANCH  21  22
ENDBRANCH   7  21
TORSDOF 9
ENDMDL
MODEL 9
REMARK VINA RESULT:      -8.1      6.099     10.024
REMARK  Name = 445501
REMARK  9 active torsions:
REMARK  status: ('A' for Active; 'I' for Inactive)
REMARK    1  A    between atoms: C_3  and  C_9
REMARK    2  A    between atoms: C_7  and  C_21
REMARK    3  A    between atoms: C_9  and  O_10
REMARK    4  A    between atoms: O_10  and  C_11
REMARK    5  A    between atoms: C_11  and  C_12
REMARK    6  A    between atoms: C_12  and  C_13
REMARK    7  A    between atoms: C_13  and  C_15
REMARK    8  A    between atoms: C_21  and  C_22
REMARK    9  A    between atoms: C_22  and  C_25
REMARK                            x       y       z     vdW  Elec       q    Type
REMARK                         _______ _______ _______ _____ _____    ______ ____
ROOT
ATOM      1  O   UNL     1      30.826 -22.224 -17.271  0.00  0.00    -0.267 OA
ATOM      2  N   UNL     1      32.724 -23.189 -16.296  0.00  0.00    -0.266 N 
ATOM      3  C   UNL     1      33.730 -22.647 -17.198  0.00  0.00    +0.175 C 
ATOM      4  C   UNL     1      35.054 -22.868 -16.476  0.00  0.00    +0.033 C 
ATOM      5  C   UNL     1      34.792 -24.111 -15.626  0.00  0.00    +0.024 C 
ATOM      6  C   UNL     1      33.336 -23.955 -15.215  0.00  0.00    +0.094 C 
ATOM      7  C   UNL     1      31.388 -22.860 -16.391  0.00  0.00    +0.284 C 
ENDROOT
BRANCH   3   9
ATOM      8  O   UNL     1      33.552 -24.652 -18.519  0.00  0.00    -0.248 OA
ATOM      9  C   UNL     1      33.650 -23.434 -18.472  0.00  0.00    +0.335 C 
BRANCH   9  10
ATOM     10  O   UNL     1      33.703 -22.584 -19.536  0.00  0.00    -0.447 OA
BRANCH  10  11
ATOM     11  C   UNL     1      33.192 -21.269 -19.298  0.00  0.00    +0.209 C 
BRANCH  11  12
ATOM     12  C   UNL     1      33.360 -20.439 -20.563  0.00  0.00    +0.052 C 
BRANCH  12  13
ATOM     13  C   UNL     1      34.792 -19.928 -20.712  0.00  0.00    +0.032 C 
BRANCH  13  15
ATOM     14  N   UNL     1      35.017 -16.419 -22.120  0.00  0.00    -0.243 NA
ATOM     15  C   UNL     1      34.880 -18.798 -21.705  0.00  0.00    -0.003 C 
ATOM     16  C   UNL     1      34.903 -19.045 -23.074  0.00  0.00    -0.001 C 
ATOM     17  C   UNL     1      34.939 -17.479 -21.284  0.00  0.00    +0.095 C 
ATOM     18  C   UNL     1      34.983 -17.981 -23.966  0.00  0.00    +0.020 C 
ATOM     19  C   UNL     1      35.037 -16.699 -23.443  0.00  0.00    +0.099 C 
ENDBRANCH  13  15
ENDBRANCH  12  13
ENDBRANCH  11  12
ENDBRANCH  10  11
ENDBRANCH   9  10
ENDBRANCH   3   9
BRANCH   7  21
ATOM     20  O   UNL     1      30.721 -22.827 -14.191  0.00  0.00    -0.287 OA
ATOM     21  C   UNL     1      30.536 -23.351 -15.282  0.00  0.00    +0.225 C 
BRANCH  21  22
ATOM     22  C   UNL     1      29.490 -24.427 -15.585  0.00  0.00    +0.060 C 
ATOM     23  C   UNL     1      28.910 -24.926 -14.250  0.00  0.00    +0.008 C 
ATOM     24  C   UNL     1      30.180 -25.615 -16.281  0.00  0.00    +0.008 C 
BRANCH  22  25
ATOM     25  C   UNL     1      28.343 -23.872 -16.464  0.00  0.00    +0.007 C 
ATOM     26  C   UNL     1      27.641 -22.639 -15.905  0.00  0.00    +0.000 C 
ENDBRANCH  22  25
ENDBRANCH  21  22
ENDBRANCH   7  21
TORSDOF 9
ENDMDL
