MODEL 1
REMARK VINA RESULT:      -7.5      0.000      0.000
REMARK  Name = 46937105
REMARK  5 active torsions:
REMARK  status: ('A' for Active; 'I' for Inactive)
REMARK    1  A    between atoms: C_1  and  C_2
REMARK    2  A    between atoms: C_1  and  C_10
REMARK    3  A    between atoms: C_2  and  N_3
REMARK    4  A    between atoms: C_2  and  C_8
REMARK    5  A    between atoms: C_10  and  C_11
REMARK                            x       y       z     vdW  Elec       q    Type
REMARK                         _______ _______ _______ _____ _____    ______ ____
ROOT
ATOM      1  C   UNL     1      34.719 -17.558 -22.282  0.00  0.00    -0.010 C 
ENDROOT
BRANCH   1   2
ATOM      2  C   UNL     1      35.207 -16.748 -23.490  0.00  0.00    -0.006 C 
BRANCH   2   3
ATOM      3  N   UNL     1      34.724 -15.369 -23.443  0.00  0.00    +0.386 N 
ATOM      4  H   UNL     1      35.121 -14.843 -24.222  0.00  0.00    -0.089 HD
ATOM      5  H   UNL     1      35.007 -14.940 -22.562  0.00  0.00    -0.089 HD
ATOM      6  H   UNL     1      33.706 -15.363 -23.513  0.00  0.00    -0.089 HD
ENDBRANCH   2   3
BRANCH   2   8
ATOM      7  O   UNL     1      34.742 -16.738 -25.873  0.00  0.00    -0.298 OA
ATOM      8  C   UNL     1      34.770 -17.368 -24.815  0.00  0.00    +0.131 C 
ATOM      9  C   UNL     1      34.383 -18.827 -24.787  0.00  0.00    +0.070 C 
ENDBRANCH   2   8
ENDBRANCH   1   2
BRANCH   1  10
ATOM     10  C   UNL     1      35.767 -18.514 -21.694  0.00  0.00    +0.025 C 
BRANCH  10  11
ATOM     11  C   UNL     1      35.122 -19.622 -20.903  0.00  0.00    -0.022 C 
ATOM     12  C   UNL     1      33.731 -19.706 -20.823  0.00  0.00    -0.004 C 
ATOM     13  C   UNL     1      35.915 -20.566 -20.249  0.00  0.00    -0.004 C 
ATOM     14  C   UNL     1      33.135 -20.732 -20.091  0.00  0.00    -0.000 C 
ATOM     15  C   UNL     1      35.319 -21.592 -19.517  0.00  0.00    -0.000 C 
ATOM     16  C   UNL     1      33.929 -21.675 -19.438  0.00  0.00    -0.000 C 
ENDBRANCH  10  11
ENDBRANCH   1  10
TORSDOF 5
ENDMDL
MODEL 2
REMARK VINA RESULT:      -7.5      0.071      1.342
REMARK  Name = 46937105
REMARK  5 active torsions:
REMARK  status: ('A' for Active; 'I' for Inactive)
REMARK    1  A    between atoms: C_1  and  C_2
REMARK    2  A    between atoms: C_1  and  C_10
REMARK    3  A    between atoms: C_2  and  N_3
REMARK    4  A    between atoms: C_2  and  C_8
REMARK    5  A    between atoms: C_10  and  C_11
REMARK                            x       y       z     vdW  Elec       q    Type
REMARK                         _______ _______ _______ _____ _____    ______ ____
ROOT
ATOM      1  C   UNL     1      34.704 -17.648 -22.313  0.00  0.00    -0.010 C 
ENDROOT
BRANCH   1   2
ATOM      2  C   UNL     1      35.223 -16.805 -23.485  0.00  0.00    -0.006 C 
BRANCH   2   3
ATOM      3  N   UNL     1      34.791 -15.413 -23.378  0.00  0.00    +0.386 N 
ATOM      4  H   UNL     1      35.004 -14.923 -24.248  0.00  0.00    -0.089 HD
ATOM      5  H   UNL     1      35.282 -14.963 -22.606  0.00  0.00    -0.089 HD
ATOM      6  H   UNL     1      33.786 -15.381 -23.207  0.00  0.00    -0.089 HD
ENDBRANCH   2   3
BRANCH   2   8
ATOM      7  O   UNL     1      34.730 -16.665 -25.858  0.00  0.00    -0.298 OA
ATOM      8  C   UNL     1      34.765 -17.351 -24.835  0.00  0.00    +0.131 C 
ATOM      9  C   UNL     1      34.366 -18.806 -24.880  0.00  0.00    +0.070 C 
ENDBRANCH   2   8
ENDBRANCH   1   2
BRANCH   1  10
ATOM     10  C   UNL     1      35.761 -18.554 -21.666  0.00  0.00    +0.025 C 
BRANCH  10  11
ATOM     11  C   UNL     1      35.124 -19.666 -20.872  0.00  0.00    -0.022 C 
ATOM     12  C   UNL     1      35.923 -20.621 -20.242  0.00  0.00    -0.004 C 
ATOM     13  C   UNL     1      33.735 -19.740 -20.765  0.00  0.00    -0.004 C 
ATOM     14  C   UNL     1      35.334 -21.649 -19.508  0.00  0.00    -0.000 C 
ATOM     15  C   UNL     1      33.145 -20.768 -20.030  0.00  0.00    -0.000 C 
ATOM     16  C   UNL     1      33.945 -21.723 -19.402  0.00  0.00    -0.000 C 
ENDBRANCH  10  11
ENDBRANCH   1  10
TORSDOF 5
ENDMDL
MODEL 3
REMARK VINA RESULT:      -7.3      1.705      2.617
REMARK  Name = 46937105
REMARK  5 active torsions:
REMARK  status: ('A' for Active; 'I' for Inactive)
REMARK    1  A    between atoms: C_1  and  C_2
REMARK    2  A    between atoms: C_1  and  C_10
REMARK    3  A    between atoms: C_2  and  N_3
REMARK    4  A    between atoms: C_2  and  C_8
REMARK    5  A    between atoms: C_10  and  C_11
REMARK                            x       y       z     vdW  Elec       q    Type
REMARK                         _______ _______ _______ _____ _____    ______ ____
ROOT
ATOM      1  C   UNL     1      35.274 -17.207 -21.440  0.00  0.00    -0.010 C 
ENDROOT
BRANCH   1   2
ATOM      2  C   UNL     1      34.566 -16.451 -22.572  0.00  0.00    -0.006 C 
BRANCH   2   3
ATOM      3  N   UNL     1      35.412 -16.347 -23.759  0.00  0.00    +0.386 N 
ATOM      4  H   UNL     1      34.995 -16.882 -24.522  0.00  0.00    -0.089 HD
ATOM      5  H   UNL     1      36.339 -16.718 -23.550  0.00  0.00    -0.089 HD
ATOM      6  H   UNL     1      35.492 -15.368 -24.035  0.00  0.00    -0.089 HD
ENDBRANCH   2   3
BRANCH   2   8
ATOM      7  O   UNL     1      34.405 -14.041 -22.818  0.00  0.00    -0.298 OA
ATOM      8  C   UNL     1      34.147 -15.045 -22.152  0.00  0.00    +0.131 C 
ATOM      9  C   UNL     1      33.365 -14.924 -20.867  0.00  0.00    +0.070 C 
ENDBRANCH   2   8
ENDBRANCH   1   2
BRANCH   1  10
ATOM     10  C   UNL     1      35.698 -18.637 -21.801  0.00  0.00    +0.025 C 
BRANCH  10  11
ATOM     11  C   UNL     1      34.964 -19.658 -20.970  0.00  0.00    -0.022 C 
ATOM     12  C   UNL     1      35.674 -20.655 -20.300  0.00  0.00    -0.004 C 
ATOM     13  C   UNL     1      33.573 -19.605 -20.868  0.00  0.00    -0.004 C 
ATOM     14  C   UNL     1      34.994 -21.599 -19.531  0.00  0.00    -0.000 C 
ATOM     15  C   UNL     1      32.893 -20.549 -20.099  0.00  0.00    -0.000 C 
ATOM     16  C   UNL     1      33.604 -21.546 -19.431  0.00  0.00    -0.000 C 
ENDBRANCH  10  11
ENDBRANCH   1  10
TORSDOF 5
ENDMDL
MODEL 4
REMARK VINA RESULT:      -7.1      3.285      5.488
REMARK  Name = 46937105
REMARK  5 active torsions:
REMARK  status: ('A' for Active; 'I' for Inactive)
REMARK    1  A    between atoms: C_1  and  C_2
REMARK    2  A    between atoms: C_1  and  C_10
REMARK    3  A    between atoms: C_2  and  N_3
REMARK    4  A    between atoms: C_2  and  C_8
REMARK    5  A    between atoms: C_10  and  C_11
REMARK                            x       y       z     vdW  Elec       q    Type
REMARK                         _______ _______ _______ _____ _____    ______ ____
ROOT
ATOM      1  C   UNL     1      35.597 -20.324 -21.145  0.00  0.00    -0.010 C 
ENDROOT
BRANCH   1   2
ATOM      2  C   UNL     1      34.962 -20.747 -19.813  0.00  0.00    -0.006 C 
BRANCH   2   3
ATOM      3  N   UNL     1      35.606 -21.940 -19.267  0.00  0.00    +0.386 N 
ATOM      4  H   UNL     1      36.606 -21.908 -19.467  0.00  0.00    -0.089 HD
ATOM      5  H   UNL     1      35.199 -22.772 -19.694  0.00  0.00    -0.089 HD
ATOM      6  H   UNL     1      35.463 -21.971 -18.257  0.00  0.00    -0.089 HD
ENDBRANCH   2   3
BRANCH   2   8
ATOM      7  O   UNL     1      32.942 -22.070 -19.568  0.00  0.00    -0.298 OA
ATOM      8  C   UNL     1      33.468 -21.022 -19.948  0.00  0.00    +0.131 C 
ATOM      9  C   UNL     1      32.628 -19.928 -20.561  0.00  0.00    +0.070 C 
ENDBRANCH   2   8
ENDBRANCH   1   2
BRANCH   1  10
ATOM     10  C   UNL     1      35.876 -18.819 -21.265  0.00  0.00    +0.025 C 
BRANCH  10  11
ATOM     11  C   UNL     1      35.370 -18.266 -22.573  0.00  0.00    -0.022 C 
ATOM     12  C   UNL     1      35.313 -16.886 -22.773  0.00  0.00    -0.004 C 
ATOM     13  C   UNL     1      34.959 -19.134 -23.585  0.00  0.00    -0.004 C 
ATOM     14  C   UNL     1      34.846 -16.376 -23.983  0.00  0.00    -0.000 C 
ATOM     15  C   UNL     1      34.491 -18.624 -24.795  0.00  0.00    -0.000 C 
ATOM     16  C   UNL     1      34.434 -17.244 -24.994  0.00  0.00    -0.000 C 
ENDBRANCH  10  11
ENDBRANCH   1  10
TORSDOF 5
ENDMDL
MODEL 5
REMARK VINA RESULT:      -6.9      3.851      6.118
REMARK  Name = 46937105
REMARK  5 active torsions:
REMARK  status: ('A' for Active; 'I' for Inactive)
REMARK    1  A    between atoms: C_1  and  C_2
REMARK    2  A    between atoms: C_1  and  C_10
REMARK    3  A    between atoms: C_2  and  N_3
REMARK    4  A    between atoms: C_2  and  C_8
REMARK    5  A    between atoms: C_10  and  C_11
REMARK                            x       y       z     vdW  Elec       q    Type
REMARK                         _______ _______ _______ _____ _____    ______ ____
ROOT
ATOM      1  C   UNL     1      34.936 -20.742 -20.225  0.00  0.00    -0.010 C 
ENDROOT
BRANCH   1   2
ATOM      2  C   UNL     1      34.472 -22.016 -19.507  0.00  0.00    -0.006 C 
BRANCH   2   3
ATOM      3  N   UNL     1      33.044 -21.970 -19.200  0.00  0.00    +0.386 N 
ATOM      4  H   UNL     1      32.733 -20.998 -19.174  0.00  0.00    -0.089 HD
ATOM      5  H   UNL     1      32.877 -22.405 -18.293  0.00  0.00    -0.089 HD
ATOM      6  H   UNL     1      32.525 -22.474 -19.919  0.00  0.00    -0.089 HD
ENDBRANCH   2   3
BRANCH   2   8
ATOM      7  O   UNL     1      34.793 -22.942 -17.286  0.00  0.00    -0.298 OA
ATOM      8  C   UNL     1      35.238 -22.259 -18.210  0.00  0.00    +0.131 C 
ATOM      9  C   UNL     1      36.608 -21.633 -18.102  0.00  0.00    +0.070 C 
ENDBRANCH   2   8
ENDBRANCH   1   2
BRANCH   1  10
ATOM     10  C   UNL     1      33.795 -19.849 -20.732  0.00  0.00    +0.025 C 
BRANCH  10  11
ATOM     11  C   UNL     1      34.300 -18.797 -21.686  0.00  0.00    -0.022 C 
ATOM     12  C   UNL     1      34.639 -19.144 -22.995  0.00  0.00    -0.004 C 
ATOM     13  C   UNL     1      34.428 -17.473 -21.262  0.00  0.00    -0.004 C 
ATOM     14  C   UNL     1      35.105 -18.170 -23.877  0.00  0.00    -0.000 C 
ATOM     15  C   UNL     1      34.894 -16.499 -22.144  0.00  0.00    -0.000 C 
ATOM     16  C   UNL     1      35.233 -16.848 -23.451  0.00  0.00    -0.000 C 
ENDBRANCH  10  11
ENDBRANCH   1  10
TORSDOF 5
ENDMDL
MODEL 6
REMARK VINA RESULT:      -6.9      2.061      2.256
REMARK  Name = 46937105
REMARK  5 active torsions:
REMARK  status: ('A' for Active; 'I' for Inactive)
REMARK    1  A    between atoms: C_1  and  C_2
REMARK    2  A    between atoms: C_1  and  C_10
REMARK    3  A    between atoms: C_2  and  N_3
REMARK    4  A    between atoms: C_2  and  C_8
REMARK    5  A    between atoms: C_10  and  C_11
REMARK                            x       y       z     vdW  Elec       q    Type
REMARK                         _______ _______ _______ _____ _____    ______ ____
ROOT
ATOM      1  C   UNL     1      34.036 -17.109 -21.060  0.00  0.00    -0.010 C 
ENDROOT
BRANCH   1   2
ATOM      2  C   UNL     1      34.440 -15.767 -21.686  0.00  0.00    -0.006 C 
BRANCH   2   3
ATOM      3  N   UNL     1      34.693 -14.752 -20.665  0.00  0.00    +0.386 N 
ATOM      4  H   UNL     1      35.543 -14.990 -20.152  0.00  0.00    -0.089 HD
ATOM      5  H   UNL     1      33.905 -14.716 -20.019  0.00  0.00    -0.089 HD
ATOM      6  H   UNL     1      34.809 -13.842 -21.111  0.00  0.00    -0.089 HD
ENDBRANCH   2   3
BRANCH   2   8
ATOM      7  O   UNL     1      32.312 -14.752 -22.262  0.00  0.00    -0.298 OA
ATOM      8  C   UNL     1      33.379 -15.235 -22.644  0.00  0.00    +0.131 C 
ATOM      9  C   UNL     1      33.699 -15.302 -24.118  0.00  0.00    +0.070 C 
ENDBRANCH   2   8
ENDBRANCH   1   2
BRANCH   1  10
ATOM     10  C   UNL     1      34.544 -18.342 -21.820  0.00  0.00    +0.025 C 
BRANCH  10  11
ATOM     11  C   UNL     1      34.517 -19.575 -20.953  0.00  0.00    -0.022 C 
ATOM     12  C   UNL     1      33.298 -20.104 -20.529  0.00  0.00    -0.004 C 
ATOM     13  C   UNL     1      35.712 -20.188 -20.576  0.00  0.00    -0.004 C 
ATOM     14  C   UNL     1      33.274 -21.245 -19.727  0.00  0.00    -0.000 C 
ATOM     15  C   UNL     1      35.688 -21.329 -19.774  0.00  0.00    -0.000 C 
ATOM     16  C   UNL     1      34.469 -21.857 -19.350  0.00  0.00    -0.000 C 
ENDBRANCH  10  11
ENDBRANCH   1  10
TORSDOF 5
ENDMDL
MODEL 7
REMARK VINA RESULT:      -6.8      3.376      5.785
REMARK  Name = 46937105
REMARK  5 active torsions:
REMARK  status: ('A' for Active; 'I' for Inactive)
REMARK    1  A    between atoms: C_1  and  C_2
REMARK    2  A    between atoms: C_1  and  C_10
REMARK    3  A    between atoms: C_2  and  N_3
REMARK    4  A    between atoms: C_2  and  C_8
REMARK    5  A    between atoms: C_10  and  C_11
REMARK                            x       y       z     vdW  Elec       q    Type
REMARK                         _______ _______ _______ _____ _____    ______ ____
ROOT
ATOM      1  C   UNL     1      34.799 -19.996 -20.605  0.00  0.00    -0.010 C 
ENDROOT
BRANCH   1   2
ATOM      2  C   UNL     1      33.821 -21.135 -20.286  0.00  0.00    -0.006 C 
BRANCH   2   3
ATOM      3  N   UNL     1      32.599 -20.633 -19.661  0.00  0.00    +0.386 N 
ATOM      4  H   UNL     1      32.098 -20.038 -20.322  0.00  0.00    -0.089 HD
ATOM      5  H   UNL     1      32.839 -20.091 -18.831  0.00  0.00    -0.089 HD
ATOM      6  H   UNL     1      32.006 -21.419 -19.395  0.00  0.00    -0.089 HD
ENDBRANCH   2   3
BRANCH   2   8
ATOM      7  O   UNL     1      33.907 -23.272 -19.138  0.00  0.00    -0.298 OA
ATOM      8  C   UNL     1      34.439 -22.184 -19.366  0.00  0.00    +0.131 C 
ATOM      9  C   UNL     1      35.771 -21.843 -18.744  0.00  0.00    +0.070 C 
ENDBRANCH   2   8
ENDBRANCH   1   2
BRANCH   1  10
ATOM     10  C   UNL     1      34.890 -19.638 -22.095  0.00  0.00    +0.025 C 
BRANCH  10  11
ATOM     11  C   UNL     1      34.821 -18.147 -22.310  0.00  0.00    -0.022 C 
ATOM     12  C   UNL     1      34.637 -17.292 -21.223  0.00  0.00    -0.004 C 
ATOM     13  C   UNL     1      34.942 -17.622 -23.597  0.00  0.00    -0.004 C 
ATOM     14  C   UNL     1      34.573 -15.913 -21.423  0.00  0.00    -0.000 C 
ATOM     15  C   UNL     1      34.878 -16.243 -23.797  0.00  0.00    -0.000 C 
ATOM     16  C   UNL     1      34.693 -15.389 -22.710  0.00  0.00    -0.000 C 
ENDBRANCH  10  11
ENDBRANCH   1  10
TORSDOF 5
ENDMDL
MODEL 8
REMARK VINA RESULT:      -6.8      1.598      2.151
REMARK  Name = 46937105
REMARK  5 active torsions:
REMARK  status: ('A' for Active; 'I' for Inactive)
REMARK    1  A    between atoms: C_1  and  C_2
REMARK    2  A    between atoms: C_1  and  C_10
REMARK    3  A    between atoms: C_2  and  N_3
REMARK    4  A    between atoms: C_2  and  C_8
REMARK    5  A    between atoms: C_10  and  C_11
REMARK                            x       y       z     vdW  Elec       q    Type
REMARK                         _______ _______ _______ _____ _____    ______ ____
ROOT
ATOM      1  C   UNL     1      34.546 -19.229 -22.796  0.00  0.00    -0.010 C 
ENDROOT
BRANCH   1   2
ATOM      2  C   UNL     1      35.386 -17.996 -23.157  0.00  0.00    -0.006 C 
BRANCH   2   3
ATOM      3  N   UNL     1      36.696 -18.031 -22.511  0.00  0.00    +0.386 N 
ATOM      4  H   UNL     1      37.241 -18.808 -22.888  0.00  0.00    -0.089 HD
ATOM      5  H   UNL     1      36.577 -18.155 -21.506  0.00  0.00    -0.089 HD
ATOM      6  H   UNL     1      37.187 -17.155 -22.690  0.00  0.00    -0.089 HD
ENDBRANCH   2   3
BRANCH   2   8
ATOM      7  O   UNL     1      33.972 -16.062 -23.549  0.00  0.00    -0.298 OA
ATOM      8  C   UNL     1      34.691 -16.693 -22.773  0.00  0.00    +0.131 C 
ATOM      9  C   UNL     1      34.904 -16.201 -21.362  0.00  0.00    +0.070 C 
ENDBRANCH   2   8
ENDBRANCH   1   2
BRANCH   1  10
ATOM     10  C   UNL     1      33.785 -19.112 -21.469  0.00  0.00    +0.025 C 
BRANCH  10  11
ATOM     11  C   UNL     1      34.150 -20.226 -20.521  0.00  0.00    -0.022 C 
ATOM     12  C   UNL     1      33.148 -20.942 -19.865  0.00  0.00    -0.004 C 
ATOM     13  C   UNL     1      35.491 -20.542 -20.301  0.00  0.00    -0.004 C 
ATOM     14  C   UNL     1      33.487 -21.973 -18.990  0.00  0.00    -0.000 C 
ATOM     15  C   UNL     1      35.830 -21.573 -19.425  0.00  0.00    -0.000 C 
ATOM     16  C   UNL     1      34.828 -22.288 -18.769  0.00  0.00    -0.000 C 
ENDBRANCH  10  11
ENDBRANCH   1  10
TORSDOF 5
ENDMDL
MODEL 9
REMARK VINA RESULT:      -6.7      5.679      8.057
REMARK  Name = 46937105
REMARK  5 active torsions:
REMARK  status: ('A' for Active; 'I' for Inactive)
REMARK    1  A    between atoms: C_1  and  C_2
REMARK    2  A    between atoms: C_1  and  C_10
REMARK    3  A    between atoms: C_2  and  N_3
REMARK    4  A    between atoms: C_2  and  C_8
REMARK    5  A    between atoms: C_10  and  C_11
REMARK                            x       y       z     vdW  Elec       q    Type
REMARK                         _______ _______ _______ _____ _____    ______ ____
ROOT
ATOM      1  C   UNL     1      34.692 -22.915 -16.914  0.00  0.00    -0.010 C 
ENDROOT
BRANCH   1   2
ATOM      2  C   UNL     1      34.261 -23.773 -15.717  0.00  0.00    -0.006 C 
BRANCH   2   3
ATOM      3  N   UNL     1      33.647 -22.961 -14.668  0.00  0.00    +0.386 N 
ATOM      4  H   UNL     1      32.784 -22.545 -15.020  0.00  0.00    -0.089 HD
ATOM      5  H   UNL     1      34.291 -22.222 -14.389  0.00  0.00    -0.089 HD
ATOM      6  H   UNL     1      33.436 -23.550 -13.862  0.00  0.00    -0.089 HD
ENDBRANCH   2   3
BRANCH   2   8
ATOM      7  O   UNL     1      35.810 -25.634 -15.544  0.00  0.00    -0.298 OA
ATOM      8  C   UNL     1      35.428 -24.545 -15.110  0.00  0.00    +0.131 C 
ATOM      9  C   UNL     1      36.134 -23.902 -13.941  0.00  0.00    +0.070 C 
ENDBRANCH   2   8
ENDBRANCH   1   2
BRANCH   1  10
ATOM     10  C   UNL     1      33.671 -22.864 -18.059  0.00  0.00    +0.025 C 
BRANCH  10  11
ATOM     11  C   UNL     1      34.031 -21.810 -19.074  0.00  0.00    -0.022 C 
ATOM     12  C   UNL     1      33.030 -21.049 -19.678  0.00  0.00    -0.004 C 
ATOM     13  C   UNL     1      35.369 -21.593 -19.410  0.00  0.00    -0.004 C 
ATOM     14  C   UNL     1      33.364 -20.074 -20.617  0.00  0.00    -0.000 C 
ATOM     15  C   UNL     1      35.703 -20.618 -20.349  0.00  0.00    -0.000 C 
ATOM     16  C   UNL     1      34.701 -19.859 -20.953  0.00  0.00    -0.000 C 
ENDBRANCH  10  11
ENDBRANCH   1  10
TORSDOF 5
ENDMDL
