MODEL 1
REMARK VINA RESULT:      -9.2      0.000      0.000
REMARK  Name = 44144383
REMARK  3 active torsions:
REMARK  status: ('A' for Active; 'I' for Inactive)
REMARK    1  A    between atoms: C_5  and  S_17
REMARK    2  A    between atoms: C_7  and  C_14
REMARK    3  A    between atoms: S_17  and  N_20
REMARK                            x       y       z     vdW  Elec       q    Type
REMARK                         _______ _______ _______ _____ _____    ______ ____
ROOT
ATOM      1  N   UNL     1      32.768 -23.089 -14.334  0.00  0.00    -0.314 N 
ATOM      2  N   UNL     1      32.572 -25.151 -13.529  0.00  0.00    -0.314 N 
ATOM      3  C   UNL     1      31.508 -23.501 -14.687  0.00  0.00    +0.061 C 
ATOM      4  C   UNL     1      31.410 -24.791 -14.174  0.00  0.00    +0.059 C 
ATOM      5  C   UNL     1      29.302 -23.611 -15.570  0.00  0.00    +0.123 C 
ATOM      6  C   UNL     1      30.478 -22.876 -15.391  0.00  0.00    +0.035 C 
ATOM      7  C   UNL     1      33.363 -24.108 -13.644  0.00  0.00    +0.182 C 
ATOM      8  C   UNL     1      30.222 -25.516 -14.364  0.00  0.00    +0.017 C 
ATOM      9  C   UNL     1      29.174 -24.907 -15.068  0.00  0.00    +0.021 C 
ATOM     10  H   UNL     1      33.171 -22.213 -14.539  0.00  0.00    +0.149 HD
ATOM     11  H   UNL     1      32.767 -26.004 -13.079  0.00  0.00    +0.149 HD
ENDROOT
BRANCH   7  14
ATOM     12  S   UNL     1      37.216 -23.595 -12.865  0.00  0.00    -0.108 S 
ATOM     13  N   UNL     1      35.029 -24.504 -11.831  0.00  0.00    -0.263 NA
ATOM     14  C   UNL     1      34.730 -24.038 -13.097  0.00  0.00    +0.080 C 
ATOM     15  C   UNL     1      35.786 -23.510 -13.809  0.00  0.00    +0.104 C 
ATOM     16  C   UNL     1      36.310 -24.322 -11.602  0.00  0.00    +0.183 C 
ENDBRANCH   7  14
BRANCH   5  17
ATOM     17  S   UNL     1      27.969 -22.892 -16.445  0.00  0.00    +0.057 S 
ATOM     18  O   UNL     1      26.843 -22.756 -15.533  0.00  0.00    -0.153 OA
ATOM     19  O   UNL     1      28.466 -21.727 -17.163  0.00  0.00    -0.153 OA
BRANCH  17  20
ATOM     20  N   UNL     1      27.621 -24.126 -17.574  0.00  0.00    -0.203 NA
ATOM     21  H   UNL     1      28.080 -24.989 -17.286  0.00  0.00    +0.144 HD
ATOM     22  H   UNL     1      27.961 -23.851 -18.495  0.00  0.00    +0.144 HD
ENDBRANCH  17  20
ENDBRANCH   5  17
TORSDOF 3
ENDMDL
MODEL 2
REMARK VINA RESULT:      -8.9      8.448      9.943
REMARK  Name = 44144383
REMARK  3 active torsions:
REMARK  status: ('A' for Active; 'I' for Inactive)
REMARK    1  A    between atoms: C_5  and  S_17
REMARK    2  A    between atoms: C_7  and  C_14
REMARK    3  A    between atoms: S_17  and  N_20
REMARK                            x       y       z     vdW  Elec       q    Type
REMARK                         _______ _______ _______ _____ _____    ______ ____
ROOT
ATOM      1  N   UNL     1      33.686 -18.860 -21.358  0.00  0.00    -0.314 N 
ATOM      2  N   UNL     1      35.888 -18.609 -21.513  0.00  0.00    -0.314 N 
ATOM      3  C   UNL     1      34.224 -19.882 -20.617  0.00  0.00    +0.061 C 
ATOM      4  C   UNL     1      35.600 -19.704 -20.731  0.00  0.00    +0.059 C 
ATOM      5  C   UNL     1      34.517 -21.798 -19.237  0.00  0.00    +0.123 C 
ATOM      6  C   UNL     1      33.643 -20.916 -19.882  0.00  0.00    +0.035 C 
ATOM      7  C   UNL     1      34.719 -18.128 -21.872  0.00  0.00    +0.182 C 
ATOM      8  C   UNL     1      36.463 -20.599 -20.077  0.00  0.00    +0.017 C 
ATOM      9  C   UNL     1      35.902 -21.645 -19.332  0.00  0.00    +0.021 C 
ATOM     10  H   UNL     1      32.726 -18.686 -21.493  0.00  0.00    +0.149 HD
ATOM     11  H   UNL     1      36.778 -18.261 -21.753  0.00  0.00    +0.149 HD
ENDROOT
BRANCH   7  14
ATOM     12  S   UNL     1      34.170 -14.550 -23.488  0.00  0.00    -0.108 S 
ATOM     13  N   UNL     1      34.531 -17.033 -24.105  0.00  0.00    -0.263 NA
ATOM     14  C   UNL     1      34.535 -16.941 -22.726  0.00  0.00    +0.080 C 
ATOM     15  C   UNL     1      34.353 -15.676 -22.208  0.00  0.00    +0.104 C 
ATOM     16  C   UNL     1      34.347 -15.834 -24.611  0.00  0.00    +0.183 C 
ENDBRANCH   7  14
BRANCH   5  17
ATOM     17  S   UNL     1      33.860 -23.119 -18.298  0.00  0.00    +0.057 S 
ATOM     18  O   UNL     1      33.749 -24.284 -19.164  0.00  0.00    -0.153 OA
ATOM     19  O   UNL     1      34.604 -23.210 -17.051  0.00  0.00    -0.153 OA
BRANCH  17  20
ATOM     20  N   UNL     1      32.292 -22.528 -17.963  0.00  0.00    -0.203 NA
ATOM     21  H   UNL     1      31.729 -22.559 -18.812  0.00  0.00    +0.144 HD
ATOM     22  H   UNL     1      32.356 -21.565 -17.633  0.00  0.00    +0.144 HD
ENDBRANCH  17  20
ENDBRANCH   5  17
TORSDOF 3
ENDMDL
MODEL 3
REMARK VINA RESULT:      -8.8      5.207      8.216
REMARK  Name = 44144383
REMARK  3 active torsions:
REMARK  status: ('A' for Active; 'I' for Inactive)
REMARK    1  A    between atoms: C_5  and  S_17
REMARK    2  A    between atoms: C_7  and  C_14
REMARK    3  A    between atoms: S_17  and  N_20
REMARK                            x       y       z     vdW  Elec       q    Type
REMARK                         _______ _______ _______ _____ _____    ______ ____
ROOT
ATOM      1  N   UNL     1      35.278 -24.686 -14.893  0.00  0.00    -0.314 N 
ATOM      2  N   UNL     1      34.863 -24.689 -12.710  0.00  0.00    -0.314 N 
ATOM      3  C   UNL     1      36.490 -24.909 -14.291  0.00  0.00    +0.061 C 
ATOM      4  C   UNL     1      36.205 -24.906 -12.929  0.00  0.00    +0.059 C 
ATOM      5  C   UNL     1      38.798 -25.309 -13.877  0.00  0.00    +0.123 C 
ATOM      6  C   UNL     1      37.772 -25.106 -14.805  0.00  0.00    +0.035 C 
ATOM      7  C   UNL     1      34.338 -24.562 -13.907  0.00  0.00    +0.182 C 
ATOM      8  C   UNL     1      37.248 -25.110 -12.010  0.00  0.00    +0.017 C 
ATOM      9  C   UNL     1      38.544 -25.311 -12.504  0.00  0.00    +0.021 C 
ATOM     10  H   UNL     1      35.114 -24.628 -15.863  0.00  0.00    +0.149 HD
ATOM     11  H   UNL     1      34.398 -24.640 -11.844  0.00  0.00    +0.149 HD
ENDROOT
BRANCH   7  14
ATOM     12  S   UNL     1      30.757 -23.365 -15.115  0.00  0.00    -0.108 S 
ATOM     13  N   UNL     1      31.920 -25.010 -13.496  0.00  0.00    -0.263 NA
ATOM     14  C   UNL     1      32.908 -24.315 -14.166  0.00  0.00    +0.080 C 
ATOM     15  C   UNL     1      32.472 -23.381 -15.082  0.00  0.00    +0.104 C 
ATOM     16  C   UNL     1      30.747 -24.592 -13.916  0.00  0.00    +0.183 C 
ENDBRANCH   7  14
BRANCH   5  17
ATOM     17  S   UNL     1      40.432 -25.561 -14.449  0.00  0.00    +0.057 S 
ATOM     18  O   UNL     1      41.162 -24.309 -14.313  0.00  0.00    -0.153 OA
ATOM     19  O   UNL     1      40.951 -26.774 -13.836  0.00  0.00    -0.153 OA
BRANCH  17  20
ATOM     20  N   UNL     1      40.149 -25.859 -16.108  0.00  0.00    -0.203 NA
ATOM     21  H   UNL     1      40.796 -26.575 -16.439  0.00  0.00    +0.144 HD
ATOM     22  H   UNL     1      40.293 -25.000 -16.637  0.00  0.00    +0.144 HD
ENDBRANCH  17  20
ENDBRANCH   5  17
TORSDOF 3
ENDMDL
MODEL 4
REMARK VINA RESULT:      -8.6      1.279      1.539
REMARK  Name = 44144383
REMARK  3 active torsions:
REMARK  status: ('A' for Active; 'I' for Inactive)
REMARK    1  A    between atoms: C_5  and  S_17
REMARK    2  A    between atoms: C_7  and  C_14
REMARK    3  A    between atoms: S_17  and  N_20
REMARK                            x       y       z     vdW  Elec       q    Type
REMARK                         _______ _______ _______ _____ _____    ______ ____
ROOT
ATOM      1  N   UNL     1      33.097 -23.304 -15.019  0.00  0.00    -0.314 N 
ATOM      2  N   UNL     1      32.793 -24.970 -13.580  0.00  0.00    -0.314 N 
ATOM      3  C   UNL     1      31.770 -23.639 -15.121  0.00  0.00    +0.061 C 
ATOM      4  C   UNL     1      31.606 -24.681 -14.214  0.00  0.00    +0.059 C 
ATOM      5  C   UNL     1      29.477 -23.731 -15.748  0.00  0.00    +0.123 C 
ATOM      6  C   UNL     1      30.734 -23.136 -15.907  0.00  0.00    +0.035 C 
ATOM      7  C   UNL     1      33.664 -24.127 -14.085  0.00  0.00    +0.182 C 
ATOM      8  C   UNL     1      30.338 -25.268 -14.067  0.00  0.00    +0.017 C 
ATOM      9  C   UNL     1      29.281 -24.778 -14.846  0.00  0.00    +0.021 C 
ATOM     10  H   UNL     1      33.558 -22.597 -15.526  0.00  0.00    +0.149 HD
ATOM     11  H   UNL     1      32.953 -25.659 -12.895  0.00  0.00    +0.149 HD
ENDROOT
BRANCH   7  14
ATOM     12  S   UNL     1      37.249 -24.367 -12.411  0.00  0.00    -0.108 S 
ATOM     13  N   UNL     1      36.025 -23.432 -14.486  0.00  0.00    -0.263 NA
ATOM     14  C   UNL     1      35.085 -24.068 -13.698  0.00  0.00    +0.080 C 
ATOM     15  C   UNL     1      35.560 -24.634 -12.534  0.00  0.00    +0.104 C 
ATOM     16  C   UNL     1      37.201 -23.528 -13.906  0.00  0.00    +0.183 C 
ENDBRANCH   7  14
BRANCH   5  17
ATOM     17  S   UNL     1      28.130 -23.152 -16.702  0.00  0.00    +0.057 S 
ATOM     18  O   UNL     1      28.512 -21.888 -17.313  0.00  0.00    -0.153 OA
ATOM     19  O   UNL     1      27.655 -24.247 -17.535  0.00  0.00    -0.153 OA
BRANCH  17  20
ATOM     20  N   UNL     1      26.976 -22.850 -15.479  0.00  0.00    -0.203 NA
ATOM     21  H   UNL     1      26.042 -23.048 -15.838  0.00  0.00    +0.144 HD
ATOM     22  H   UNL     1      27.030 -21.873 -15.194  0.00  0.00    +0.144 HD
ENDBRANCH  17  20
ENDBRANCH   5  17
TORSDOF 3
ENDMDL
MODEL 5
REMARK VINA RESULT:      -8.0     10.131     11.114
REMARK  Name = 44144383
REMARK  3 active torsions:
REMARK  status: ('A' for Active; 'I' for Inactive)
REMARK    1  A    between atoms: C_5  and  S_17
REMARK    2  A    between atoms: C_7  and  C_14
REMARK    3  A    between atoms: S_17  and  N_20
REMARK                            x       y       z     vdW  Elec       q    Type
REMARK                         _______ _______ _______ _____ _____    ______ ____
ROOT
ATOM      1  N   UNL     1      34.475 -17.816 -21.152  0.00  0.00    -0.314 N 
ATOM      2  N   UNL     1      35.152 -19.167 -22.781  0.00  0.00    -0.314 N 
ATOM      3  C   UNL     1      34.312 -17.101 -22.312  0.00  0.00    +0.061 C 
ATOM      4  C   UNL     1      34.742 -17.966 -23.314  0.00  0.00    +0.059 C 
ATOM      5  C   UNL     1      33.811 -15.401 -23.899  0.00  0.00    +0.123 C 
ATOM      6  C   UNL     1      33.841 -15.812 -22.562  0.00  0.00    +0.035 C 
ATOM      7  C   UNL     1      34.979 -19.042 -21.485  0.00  0.00    +0.182 C 
ATOM      8  C   UNL     1      34.706 -17.537 -24.651  0.00  0.00    +0.017 C 
ATOM      9  C   UNL     1      34.236 -16.246 -24.926  0.00  0.00    +0.021 C 
ATOM     10  H   UNL     1      34.265 -17.501 -20.243  0.00  0.00    +0.149 HD
ATOM     11  H   UNL     1      35.500 -19.950 -23.267  0.00  0.00    +0.149 HD
ENDROOT
BRANCH   7  14
ATOM     12  S   UNL     1      35.046 -22.043 -18.896  0.00  0.00    -0.108 S 
ATOM     13  N   UNL     1      36.563 -20.263 -19.996  0.00  0.00    -0.263 NA
ATOM     14  C   UNL     1      35.288 -20.094 -20.500  0.00  0.00    +0.080 C 
ATOM     15  C   UNL     1      34.332 -20.965 -20.022  0.00  0.00    +0.104 C 
ATOM     16  C   UNL     1      36.554 -21.263 -19.142  0.00  0.00    +0.183 C 
ENDBRANCH   7  14
BRANCH   5  17
ATOM     17  S   UNL     1      33.234 -13.796 -24.288  0.00  0.00    +0.057 S 
ATOM     18  O   UNL     1      34.273 -12.840 -23.939  0.00  0.00    -0.153 OA
ATOM     19  O   UNL     1      32.691 -13.818 -25.638  0.00  0.00    -0.153 OA
BRANCH  17  20
ATOM     20  N   UNL     1      31.943 -13.641 -23.179  0.00  0.00    -0.203 NA
ATOM     21  H   UNL     1      31.881 -12.673 -22.865  0.00  0.00    +0.144 HD
ATOM     22  H   UNL     1      32.109 -14.248 -22.377  0.00  0.00    +0.144 HD
ENDBRANCH  17  20
ENDBRANCH   5  17
TORSDOF 3
ENDMDL
MODEL 6
REMARK VINA RESULT:      -8.0      1.690      2.184
REMARK  Name = 44144383
REMARK  3 active torsions:
REMARK  status: ('A' for Active; 'I' for Inactive)
REMARK    1  A    between atoms: C_5  and  S_17
REMARK    2  A    between atoms: C_7  and  C_14
REMARK    3  A    between atoms: S_17  and  N_20
REMARK                            x       y       z     vdW  Elec       q    Type
REMARK                         _______ _______ _______ _____ _____    ______ ____
ROOT
ATOM      1  N   UNL     1      33.548 -23.902 -13.487  0.00  0.00    -0.314 N 
ATOM      2  N   UNL     1      34.707 -23.722 -15.374  0.00  0.00    -0.314 N 
ATOM      3  C   UNL     1      32.623 -23.619 -14.460  0.00  0.00    +0.061 C 
ATOM      4  C   UNL     1      33.372 -23.511 -15.628  0.00  0.00    +0.059 C 
ATOM      5  C   UNL     1      30.602 -23.164 -15.631  0.00  0.00    +0.123 C 
ATOM      6  C   UNL     1      31.238 -23.452 -14.419  0.00  0.00    +0.035 C 
ATOM      7  C   UNL     1      34.778 -23.953 -14.083  0.00  0.00    +0.182 C 
ATOM      8  C   UNL     1      32.717 -23.220 -16.837  0.00  0.00    +0.017 C 
ATOM      9  C   UNL     1      31.326 -23.049 -16.819  0.00  0.00    +0.021 C 
ATOM     10  H   UNL     1      33.359 -24.044 -12.531  0.00  0.00    +0.149 HD
ATOM     11  H   UNL     1      35.450 -23.704 -16.020  0.00  0.00    +0.149 HD
ENDROOT
BRANCH   7  14
ATOM     12  S   UNL     1      38.160 -25.361 -12.569  0.00  0.00    -0.108 S 
ATOM     13  N   UNL     1      36.508 -23.383 -12.381  0.00  0.00    -0.263 NA
ATOM     14  C   UNL     1      36.028 -24.236 -13.355  0.00  0.00    +0.080 C 
ATOM     15  C   UNL     1      36.787 -25.361 -13.597  0.00  0.00    +0.104 C 
ATOM     16  C   UNL     1      37.627 -23.875 -11.898  0.00  0.00    +0.183 C 
ENDBRANCH   7  14
BRANCH   5  17
ATOM     17  S   UNL     1      28.868 -22.940 -15.655  0.00  0.00    +0.057 S 
ATOM     18  O   UNL     1      28.238 -24.208 -15.322  0.00  0.00    -0.153 OA
ATOM     19  O   UNL     1      28.549 -21.747 -14.885  0.00  0.00    -0.153 OA
BRANCH  17  20
ATOM     20  N   UNL     1      28.608 -22.611 -17.312  0.00  0.00    -0.203 NA
ATOM     21  H   UNL     1      27.704 -22.987 -17.595  0.00  0.00    +0.144 HD
ATOM     22  H   UNL     1      29.346 -23.046 -17.865  0.00  0.00    +0.144 HD
ENDBRANCH  17  20
ENDBRANCH   5  17
TORSDOF 3
ENDMDL
MODEL 7
REMARK VINA RESULT:      -8.0     13.019     14.578
REMARK  Name = 44144383
REMARK  3 active torsions:
REMARK  status: ('A' for Active; 'I' for Inactive)
REMARK    1  A    between atoms: C_5  and  S_17
REMARK    2  A    between atoms: C_7  and  C_14
REMARK    3  A    between atoms: S_17  and  N_20
REMARK                            x       y       z     vdW  Elec       q    Type
REMARK                         _______ _______ _______ _____ _____    ______ ____
ROOT
ATOM      1  N   UNL     1      34.170 -13.450 -22.924  0.00  0.00    -0.314 N 
ATOM      2  N   UNL     1      33.412 -13.212 -24.999  0.00  0.00    -0.314 N 
ATOM      3  C   UNL     1      34.214 -14.705 -23.476  0.00  0.00    +0.061 C 
ATOM      4  C   UNL     1      33.735 -14.530 -24.771  0.00  0.00    +0.059 C 
ATOM      5  C   UNL     1      34.525 -17.037 -23.831  0.00  0.00    +0.123 C 
ATOM      6  C   UNL     1      34.618 -15.940 -22.968  0.00  0.00    +0.035 C 
ATOM      7  C   UNL     1      33.684 -12.593 -23.873  0.00  0.00    +0.182 C 
ATOM      8  C   UNL     1      33.648 -15.643 -25.624  0.00  0.00    +0.017 C 
ATOM      9  C   UNL     1      34.049 -16.893 -25.136  0.00  0.00    +0.021 C 
ATOM     10  H   UNL     1      34.441 -13.208 -22.008  0.00  0.00    +0.149 HD
ATOM     11  H   UNL     1      33.054 -12.819 -25.828  0.00  0.00    +0.149 HD
ENDROOT
BRANCH   7  14
ATOM     12  S   UNL     1      33.817  -8.635 -23.712  0.00  0.00    -0.108 S 
ATOM     13  N   UNL     1      32.444 -10.665 -22.892  0.00  0.00    -0.263 NA
ATOM     14  C   UNL     1      33.493 -11.149 -23.651  0.00  0.00    +0.080 C 
ATOM     15  C   UNL     1      34.343 -10.200 -24.177  0.00  0.00    +0.104 C 
ATOM     16  C   UNL     1      32.514  -9.353 -22.857  0.00  0.00    +0.183 C 
ENDBRANCH   7  14
BRANCH   5  17
ATOM     17  S   UNL     1      35.012 -18.617 -23.262  0.00  0.00    +0.057 S 
ATOM     18  O   UNL     1      34.219 -18.944 -22.087  0.00  0.00    -0.153 OA
ATOM     19  O   UNL     1      35.037 -19.527 -24.397  0.00  0.00    -0.153 OA
BRANCH  17  20
ATOM     20  N   UNL     1      36.619 -18.302 -22.774  0.00  0.00    -0.203 NA
ATOM     21  H   UNL     1      36.972 -19.095 -22.237  0.00  0.00    +0.144 HD
ATOM     22  H   UNL     1      36.641 -17.463 -22.195  0.00  0.00    +0.144 HD
ENDBRANCH  17  20
ENDBRANCH   5  17
TORSDOF 3
ENDMDL
MODEL 8
REMARK VINA RESULT:      -8.0      4.452      7.563
REMARK  Name = 44144383
REMARK  3 active torsions:
REMARK  status: ('A' for Active; 'I' for Inactive)
REMARK    1  A    between atoms: C_5  and  S_17
REMARK    2  A    between atoms: C_7  and  C_14
REMARK    3  A    between atoms: S_17  and  N_20
REMARK                            x       y       z     vdW  Elec       q    Type
REMARK                         _______ _______ _______ _____ _____    ______ ____
ROOT
ATOM      1  N   UNL     1      33.898 -23.894 -15.566  0.00  0.00    -0.314 N 
ATOM      2  N   UNL     1      33.176 -23.683 -13.475  0.00  0.00    -0.314 N 
ATOM      3  C   UNL     1      34.982 -24.178 -14.774  0.00  0.00    +0.061 C 
ATOM      4  C   UNL     1      34.505 -24.039 -13.474  0.00  0.00    +0.059 C 
ATOM      5  C   UNL     1      37.153 -24.754 -13.990  0.00  0.00    +0.123 C 
ATOM      6  C   UNL     1      36.297 -24.533 -15.074  0.00  0.00    +0.035 C 
ATOM      7  C   UNL     1      32.845 -23.604 -14.744  0.00  0.00    +0.182 C 
ATOM      8  C   UNL     1      35.378 -24.264 -12.396  0.00  0.00    +0.017 C 
ATOM      9  C   UNL     1      36.704 -24.622 -12.674  0.00  0.00    +0.021 C 
ATOM     10  H   UNL     1      33.883 -23.899 -16.551  0.00  0.00    +0.149 HD
ATOM     11  H   UNL     1      32.598 -23.521 -12.694  0.00  0.00    +0.149 HD
ENDROOT
BRANCH   7  14
ATOM     12  S   UNL     1      29.011 -22.773 -15.313  0.00  0.00    -0.108 S 
ATOM     13  N   UNL     1      31.272 -22.924 -16.555  0.00  0.00    -0.263 NA
ATOM     14  C   UNL     1      31.500 -23.249 -15.232  0.00  0.00    +0.080 C 
ATOM     15  C   UNL     1      30.396 -23.222 -14.407  0.00  0.00    +0.104 C 
ATOM     16  C   UNL     1      29.995 -22.654 -16.713  0.00  0.00    +0.183 C 
ENDBRANCH   7  14
BRANCH   5  17
ATOM     17  S   UNL     1      38.817 -25.200 -14.291  0.00  0.00    +0.057 S 
ATOM     18  O   UNL     1      39.623 -24.742 -13.170  0.00  0.00    -0.153 OA
ATOM     19  O   UNL     1      38.853 -26.600 -14.686  0.00  0.00    -0.153 OA
BRANCH  17  20
ATOM     20  N   UNL     1      39.168 -24.234 -15.656  0.00  0.00    -0.203 NA
ATOM     21  H   UNL     1      39.580 -23.352 -15.351  0.00  0.00    +0.144 HD
ATOM     22  H   UNL     1      38.308 -24.046 -16.170  0.00  0.00    +0.144 HD
ENDBRANCH  17  20
ENDBRANCH   5  17
TORSDOF 3
ENDMDL
MODEL 9
REMARK VINA RESULT:      -7.9      5.791      8.068
REMARK  Name = 44144383
REMARK  3 active torsions:
REMARK  status: ('A' for Active; 'I' for Inactive)
REMARK    1  A    between atoms: C_5  and  S_17
REMARK    2  A    between atoms: C_7  and  C_14
REMARK    3  A    between atoms: S_17  and  N_20
REMARK                            x       y       z     vdW  Elec       q    Type
REMARK                         _______ _______ _______ _____ _____    ______ ____
ROOT
ATOM      1  N   UNL     1      37.082 -22.474 -16.896  0.00  0.00    -0.314 N 
ATOM      2  N   UNL     1      34.882 -22.786 -16.927  0.00  0.00    -0.314 N 
ATOM      3  C   UNL     1      36.807 -23.258 -15.803  0.00  0.00    +0.061 C 
ATOM      4  C   UNL     1      35.428 -23.437 -15.845  0.00  0.00    +0.059 C 
ATOM      5  C   UNL     1      36.988 -24.571 -13.828  0.00  0.00    +0.123 C 
ATOM      6  C   UNL     1      37.622 -23.806 -14.813  0.00  0.00    +0.035 C 
ATOM      7  C   UNL     1      35.900 -22.219 -17.534  0.00  0.00    +0.182 C 
ATOM      8  C   UNL     1      34.807 -24.208 -14.848  0.00  0.00    +0.017 C 
ATOM      9  C   UNL     1      35.607 -24.770 -13.843  0.00  0.00    +0.021 C 
ATOM     10  H   UNL     1      37.971 -22.153 -17.171  0.00  0.00    +0.149 HD
ATOM     11  H   UNL     1      33.933 -22.752 -17.190  0.00  0.00    +0.149 HD
ENDROOT
BRANCH   7  14
ATOM     12  S   UNL     1      34.875 -20.318 -20.858  0.00  0.00    -0.108 S 
ATOM     13  N   UNL     1      36.847 -20.647 -19.221  0.00  0.00    -0.263 NA
ATOM     14  C   UNL     1      35.790 -21.406 -18.758  0.00  0.00    +0.080 C 
ATOM     15  C   UNL     1      34.637 -21.355 -19.513  0.00  0.00    +0.104 C 
ATOM     16  C   UNL     1      36.479 -20.030 -20.322  0.00  0.00    +0.183 C 
ENDBRANCH   7  14
BRANCH   5  17
ATOM     17  S   UNL     1      37.947 -25.288 -12.553  0.00  0.00    +0.057 S 
ATOM     18  O   UNL     1      39.115 -25.913 -13.156  0.00  0.00    -0.153 OA
ATOM     19  O   UNL     1      38.116 -24.302 -11.496  0.00  0.00    -0.153 OA
BRANCH  17  20
ATOM     20  N   UNL     1      36.888 -26.511 -12.002  0.00  0.00    -0.203 NA
ATOM     21  H   UNL     1      36.297 -26.821 -12.773  0.00  0.00    +0.144 HD
ATOM     22  H   UNL     1      36.303 -26.142 -11.253  0.00  0.00    +0.144 HD
ENDBRANCH  17  20
ENDBRANCH   5  17
TORSDOF 3
ENDMDL
