MODEL 1
REMARK VINA RESULT:      -6.3      0.000      0.000
REMARK  Name = 152990
REMARK  10 active torsions:
REMARK  status: ('A' for Active; 'I' for Inactive)
REMARK    1  A    between atoms: C_1  and  O_2
REMARK    2  A    between atoms: C_1  and  C_4
REMARK    3  A    between atoms: C_1  and  C_12
REMARK    4  A    between atoms: C_4  and  C_5
REMARK    5  A    between atoms: C_5  and  O_6
REMARK    6  A    between atoms: C_5  and  C_9
REMARK    7  A    between atoms: C_9  and  O_10
REMARK    8  A    between atoms: C_12  and  O_13
REMARK    9  A    between atoms: C_12  and  C_15
REMARK   10  A    between atoms: C_15  and  O_16
REMARK                            x       y       z     vdW  Elec       q    Type
REMARK                         _______ _______ _______ _____ _____    ______ ____
ROOT
ATOM      1  C   UNL     1      37.598 -25.764 -14.856  0.00  0.00    +0.143 C 
ENDROOT
BRANCH   1   2
ATOM      2  O   UNL     1      37.965 -27.128 -14.657  0.00  0.00    -0.382 OA
ATOM      3  H   UNL     1      37.212 -27.699 -14.871  0.00  0.00    +0.210 HD
ENDBRANCH   1   2
BRANCH   1   4
ATOM      4  C   UNL     1      36.424 -25.393 -13.930  0.00  0.00    +0.073 C 
BRANCH   4   5
ATOM      5  C   UNL     1      36.796 -25.231 -12.450  0.00  0.00    +0.212 C 
BRANCH   5   6
ATOM      6  O   UNL     1      37.111 -26.498 -11.893  0.00  0.00    -0.374 OA
ATOM      7  H   UNL     1      37.559 -27.041 -12.560  0.00  0.00    +0.211 HD
ENDBRANCH   5   6
BRANCH   5   9
ATOM      8  O   UNL     1      35.282 -25.028 -10.558  0.00  0.00    -0.248 OA
ATOM      9  C   UNL     1      35.687 -24.600 -11.631  0.00  0.00    +0.341 C 
BRANCH   9  10
ATOM     10  O   UNL     1      35.163 -23.500 -12.231  0.00  0.00    -0.479 OA
ATOM     11  H   UNL     1      34.281 -23.243 -12.049  0.00  0.00    +0.295 HD
ENDBRANCH   9  10
ENDBRANCH   5   9
ENDBRANCH   4   5
ENDBRANCH   1   4
BRANCH   1  12
ATOM     12  C   UNL     1      38.826 -24.866 -14.624  0.00  0.00    +0.166 C 
BRANCH  12  13
ATOM     13  O   UNL     1      38.850 -23.844 -15.622  0.00  0.00    -0.379 OA
ATOM     14  H   UNL     1      39.769 -23.595 -15.807  0.00  0.00    +0.211 HD
ENDBRANCH  12  13
BRANCH  12  15
ATOM     15  C   UNL     1      40.136 -25.651 -14.694  0.00  0.00    +0.169 C 
BRANCH  15  16
ATOM     16  O   UNL     1      40.430 -25.986 -16.045  0.00  0.00    -0.379 OA
ATOM     17  H   UNL     1      40.646 -25.179 -16.539  0.00  0.00    +0.211 HD
ENDBRANCH  15  16
ENDBRANCH  12  15
ENDBRANCH   1  12
TORSDOF 10
ENDMDL
MODEL 2
REMARK VINA RESULT:      -6.1      1.615      5.025
REMARK  Name = 152990
REMARK  10 active torsions:
REMARK  status: ('A' for Active; 'I' for Inactive)
REMARK    1  A    between atoms: C_1  and  O_2
REMARK    2  A    between atoms: C_1  and  C_4
REMARK    3  A    between atoms: C_1  and  C_12
REMARK    4  A    between atoms: C_4  and  C_5
REMARK    5  A    between atoms: C_5  and  O_6
REMARK    6  A    between atoms: C_5  and  C_9
REMARK    7  A    between atoms: C_9  and  O_10
REMARK    8  A    between atoms: C_12  and  O_13
REMARK    9  A    between atoms: C_12  and  C_15
REMARK   10  A    between atoms: C_15  and  O_16
REMARK                            x       y       z     vdW  Elec       q    Type
REMARK                         _______ _______ _______ _____ _____    ______ ____
ROOT
ATOM      1  C   UNL     1      37.852 -24.088 -12.554  0.00  0.00    +0.143 C 
ENDROOT
BRANCH   1   2
ATOM      2  O   UNL     1      38.684 -23.302 -11.701  0.00  0.00    -0.382 OA
ATOM      3  H   UNL     1      39.007 -22.529 -12.189  0.00  0.00    +0.210 HD
ENDBRANCH   1   2
BRANCH   1   4
ATOM      4  C   UNL     1      38.554 -25.416 -12.897  0.00  0.00    +0.073 C 
BRANCH   4   5
ATOM      5  C   UNL     1      38.735 -25.681 -14.399  0.00  0.00    +0.212 C 
BRANCH   5   6
ATOM      6  O   UNL     1      38.442 -27.040 -14.685  0.00  0.00    -0.374 OA
ATOM      7  H   UNL     1      37.842 -27.089 -15.444  0.00  0.00    +0.211 HD
ENDBRANCH   5   6
BRANCH   5   9
ATOM      8  O   UNL     1      40.944 -24.672 -14.284  0.00  0.00    -0.248 OA
ATOM      9  C   UNL     1      40.136 -25.370 -14.885  0.00  0.00    +0.341 C 
BRANCH   9  10
ATOM     10  O   UNL     1      40.404 -25.938 -16.089  0.00  0.00    -0.479 OA
ATOM     11  H   UNL     1      41.043 -26.621 -16.153  0.00  0.00    +0.295 HD
ENDBRANCH   9  10
ENDBRANCH   5   9
ENDBRANCH   4   5
ENDBRANCH   1   4
BRANCH   1  12
ATOM     12  C   UNL     1      36.490 -24.310 -11.874  0.00  0.00    +0.166 C 
BRANCH  12  13
ATOM     13  O   UNL     1      36.370 -25.688 -11.514  0.00  0.00    -0.379 OA
ATOM     14  H   UNL     1      35.436 -25.903 -11.365  0.00  0.00    +0.211 HD
ENDBRANCH  12  13
BRANCH  12  15
ATOM     15  C   UNL     1      35.322 -23.939 -12.788  0.00  0.00    +0.169 C 
BRANCH  15  16
ATOM     16  O   UNL     1      34.199 -24.766 -12.503  0.00  0.00    -0.379 OA
ATOM     17  H   UNL     1      33.390 -24.231 -12.525  0.00  0.00    +0.211 HD
ENDBRANCH  15  16
ENDBRANCH  12  15
ENDBRANCH   1  12
TORSDOF 10
ENDMDL
MODEL 3
REMARK VINA RESULT:      -6.1      1.613      4.382
REMARK  Name = 152990
REMARK  10 active torsions:
REMARK  status: ('A' for Active; 'I' for Inactive)
REMARK    1  A    between atoms: C_1  and  O_2
REMARK    2  A    between atoms: C_1  and  C_4
REMARK    3  A    between atoms: C_1  and  C_12
REMARK    4  A    between atoms: C_4  and  C_5
REMARK    5  A    between atoms: C_5  and  O_6
REMARK    6  A    between atoms: C_5  and  C_9
REMARK    7  A    between atoms: C_9  and  O_10
REMARK    8  A    between atoms: C_12  and  O_13
REMARK    9  A    between atoms: C_12  and  C_15
REMARK   10  A    between atoms: C_15  and  O_16
REMARK                            x       y       z     vdW  Elec       q    Type
REMARK                         _______ _______ _______ _____ _____    ______ ____
ROOT
ATOM      1  C   UNL     1      37.907 -24.391 -12.446  0.00  0.00    +0.143 C 
ENDROOT
BRANCH   1   2
ATOM      2  O   UNL     1      37.772 -25.668 -11.823  0.00  0.00    -0.382 OA
ATOM      3  H   UNL     1      36.888 -26.023 -12.004  0.00  0.00    +0.210 HD
ENDBRANCH   1   2
BRANCH   1   4
ATOM      4  C   UNL     1      37.898 -24.548 -13.979  0.00  0.00    +0.073 C 
BRANCH   4   5
ATOM      5  C   UNL     1      38.003 -25.995 -14.480  0.00  0.00    +0.212 C 
BRANCH   5   6
ATOM      6  O   UNL     1      39.090 -26.112 -15.384  0.00  0.00    -0.374 OA
ATOM      7  H   UNL     1      39.657 -26.852 -15.116  0.00  0.00    +0.211 HD
ENDBRANCH   5   6
BRANCH   5   9
ATOM      8  O   UNL     1      36.712 -27.251 -16.114  0.00  0.00    -0.248 OA
ATOM      9  C   UNL     1      36.739 -26.471 -15.170  0.00  0.00    +0.341 C 
BRANCH   9  10
ATOM     10  O   UNL     1      35.620 -25.917 -14.638  0.00  0.00    -0.479 OA
ATOM     11  H   UNL     1      34.943 -25.597 -15.201  0.00  0.00    +0.295 HD
ENDBRANCH   9  10
ENDBRANCH   5   9
ENDBRANCH   4   5
ENDBRANCH   1   4
BRANCH   1  12
ATOM     12  C   UNL     1      36.785 -23.462 -11.951  0.00  0.00    +0.166 C 
BRANCH  12  13
ATOM     13  O   UNL     1      37.362 -22.404 -11.184  0.00  0.00    -0.379 OA
ATOM     14  H   UNL     1      38.329 -22.456 -11.238  0.00  0.00    +0.211 HD
ENDBRANCH  12  13
BRANCH  12  15
ATOM     15  C   UNL     1      35.766 -24.200 -11.081  0.00  0.00    +0.169 C 
BRANCH  15  16
ATOM     16  O   UNL     1      34.903 -24.980 -11.900  0.00  0.00    -0.379 OA
ATOM     17  H   UNL     1      33.981 -24.813 -11.650  0.00  0.00    +0.211 HD
ENDBRANCH  15  16
ENDBRANCH  12  15
ENDBRANCH   1  12
TORSDOF 10
ENDMDL
MODEL 4
REMARK VINA RESULT:      -6.1      1.785      2.531
REMARK  Name = 152990
REMARK  10 active torsions:
REMARK  status: ('A' for Active; 'I' for Inactive)
REMARK    1  A    between atoms: C_1  and  O_2
REMARK    2  A    between atoms: C_1  and  C_4
REMARK    3  A    between atoms: C_1  and  C_12
REMARK    4  A    between atoms: C_4  and  C_5
REMARK    5  A    between atoms: C_5  and  O_6
REMARK    6  A    between atoms: C_5  and  C_9
REMARK    7  A    between atoms: C_9  and  O_10
REMARK    8  A    between atoms: C_12  and  O_13
REMARK    9  A    between atoms: C_12  and  C_15
REMARK   10  A    between atoms: C_15  and  O_16
REMARK                            x       y       z     vdW  Elec       q    Type
REMARK                         _______ _______ _______ _____ _____    ______ ____
ROOT
ATOM      1  C   UNL     1      38.049 -25.224 -13.084  0.00  0.00    +0.143 C 
ENDROOT
BRANCH   1   2
ATOM      2  O   UNL     1      39.362 -24.690 -13.248  0.00  0.00    -0.382 OA
ATOM      3  H   UNL     1      39.920 -25.340 -13.701  0.00  0.00    +0.210 HD
ENDBRANCH   1   2
BRANCH   1   4
ATOM      4  C   UNL     1      36.998 -24.116 -13.291  0.00  0.00    +0.073 C 
BRANCH   4   5
ATOM      5  C   UNL     1      36.600 -23.359 -12.016  0.00  0.00    +0.212 C 
BRANCH   5   6
ATOM      6  O   UNL     1      37.762 -22.864 -11.369  0.00  0.00    -0.374 OA
ATOM      7  H   UNL     1      37.549 -22.038 -10.908  0.00  0.00    +0.211 HD
ENDBRANCH   5   6
BRANCH   5   9
ATOM      8  O   UNL     1      36.042 -24.276  -9.834  0.00  0.00    -0.248 OA
ATOM      9  C   UNL     1      35.826 -24.221 -11.039  0.00  0.00    +0.341 C 
BRANCH   9  10
ATOM     10  O   UNL     1      34.862 -24.957 -11.649  0.00  0.00    -0.479 OA
ATOM     11  H   UNL     1      34.961 -25.206 -12.547  0.00  0.00    +0.295 HD
ENDBRANCH   9  10
ENDBRANCH   5   9
ENDBRANCH   4   5
ENDBRANCH   1   4
BRANCH   1  12
ATOM     12  C   UNL     1      37.851 -26.400 -14.056  0.00  0.00    +0.166 C 
BRANCH  12  13
ATOM     13  O   UNL     1      39.093 -26.680 -14.705  0.00  0.00    -0.379 OA
ATOM     14  H   UNL     1      39.646 -27.225 -14.123  0.00  0.00    +0.211 HD
ENDBRANCH  12  13
BRANCH  12  15
ATOM     15  C   UNL     1      36.799 -26.096 -15.122  0.00  0.00    +0.169 C 
BRANCH  15  16
ATOM     16  O   UNL     1      36.795 -27.121 -16.109  0.00  0.00    -0.379 OA
ATOM     17  H   UNL     1      35.905 -27.500 -16.179  0.00  0.00    +0.211 HD
ENDBRANCH  15  16
ENDBRANCH  12  15
ENDBRANCH   1  12
TORSDOF 10
ENDMDL
MODEL 5
REMARK VINA RESULT:      -6.0      1.524      2.171
REMARK  Name = 152990
REMARK  10 active torsions:
REMARK  status: ('A' for Active; 'I' for Inactive)
REMARK    1  A    between atoms: C_1  and  O_2
REMARK    2  A    between atoms: C_1  and  C_4
REMARK    3  A    between atoms: C_1  and  C_12
REMARK    4  A    between atoms: C_4  and  C_5
REMARK    5  A    between atoms: C_5  and  O_6
REMARK    6  A    between atoms: C_5  and  C_9
REMARK    7  A    between atoms: C_9  and  O_10
REMARK    8  A    between atoms: C_12  and  O_13
REMARK    9  A    between atoms: C_12  and  C_15
REMARK   10  A    between atoms: C_15  and  O_16
REMARK                            x       y       z     vdW  Elec       q    Type
REMARK                         _______ _______ _______ _____ _____    ______ ____
ROOT
ATOM      1  C   UNL     1      37.444 -25.513 -13.592  0.00  0.00    +0.143 C 
ENDROOT
BRANCH   1   2
ATOM      2  O   UNL     1      36.816 -26.696 -13.099  0.00  0.00    -0.382 OA
ATOM      3  H   UNL     1      35.858 -26.635 -13.241  0.00  0.00    +0.210 HD
ENDBRANCH   1   2
BRANCH   1   4
ATOM      4  C   UNL     1      37.927 -24.643 -12.415  0.00  0.00    +0.073 C 
BRANCH   4   5
ATOM      5  C   UNL     1      36.890 -23.644 -11.883  0.00  0.00    +0.212 C 
BRANCH   5   6
ATOM      6  O   UNL     1      37.540 -22.633 -11.129  0.00  0.00    -0.374 OA
ATOM      7  H   UNL     1      36.908 -21.928 -10.919  0.00  0.00    +0.211 HD
ENDBRANCH   5   6
BRANCH   5   9
ATOM      8  O   UNL     1      34.842 -24.877 -11.440  0.00  0.00    -0.248 OA
ATOM      9  C   UNL     1      35.835 -24.300 -11.014  0.00  0.00    +0.341 C 
BRANCH   9  10
ATOM     10  O   UNL     1      36.097 -24.163  -9.689  0.00  0.00    -0.479 OA
ATOM     11  H   UNL     1      36.952 -23.906  -9.405  0.00  0.00    +0.295 HD
ENDBRANCH   9  10
ENDBRANCH   5   9
ENDBRANCH   4   5
ENDBRANCH   1   4
BRANCH   1  12
ATOM     12  C   UNL     1      38.594 -25.902 -14.536  0.00  0.00    +0.166 C 
BRANCH  12  13
ATOM     13  O   UNL     1      38.584 -27.319 -14.722  0.00  0.00    -0.379 OA
ATOM     14  H   UNL     1      39.064 -27.744 -13.995  0.00  0.00    +0.211 HD
ENDBRANCH  12  13
BRANCH  12  15
ATOM     15  C   UNL     1      39.959 -25.490 -13.982  0.00  0.00    +0.169 C 
BRANCH  15  16
ATOM     16  O   UNL     1      40.943 -26.451 -14.351  0.00  0.00    -0.379 OA
ATOM     17  H   UNL     1      40.660 -26.912 -15.156  0.00  0.00    +0.211 HD
ENDBRANCH  15  16
ENDBRANCH  12  15
ENDBRANCH   1  12
TORSDOF 10
ENDMDL
MODEL 6
REMARK VINA RESULT:      -6.0      1.530      4.805
REMARK  Name = 152990
REMARK  10 active torsions:
REMARK  status: ('A' for Active; 'I' for Inactive)
REMARK    1  A    between atoms: C_1  and  O_2
REMARK    2  A    between atoms: C_1  and  C_4
REMARK    3  A    between atoms: C_1  and  C_12
REMARK    4  A    between atoms: C_4  and  C_5
REMARK    5  A    between atoms: C_5  and  O_6
REMARK    6  A    between atoms: C_5  and  C_9
REMARK    7  A    between atoms: C_9  and  O_10
REMARK    8  A    between atoms: C_12  and  O_13
REMARK    9  A    between atoms: C_12  and  C_15
REMARK   10  A    between atoms: C_15  and  O_16
REMARK                            x       y       z     vdW  Elec       q    Type
REMARK                         _______ _______ _______ _____ _____    ______ ____
ROOT
ATOM      1  C   UNL     1      36.698 -24.992 -13.480  0.00  0.00    +0.143 C 
ENDROOT
BRANCH   1   2
ATOM      2  O   UNL     1      36.516 -23.728 -14.116  0.00  0.00    -0.382 OA
ATOM      3  H   UNL     1      35.775 -23.785 -14.739  0.00  0.00    +0.210 HD
ENDBRANCH   1   2
BRANCH   1   4
ATOM      4  C   UNL     1      37.814 -25.784 -14.189  0.00  0.00    +0.073 C 
BRANCH   4   5
ATOM      5  C   UNL     1      39.129 -25.014 -14.381  0.00  0.00    +0.212 C 
BRANCH   5   6
ATOM      6  O   UNL     1      38.974 -24.049 -15.410  0.00  0.00    -0.374 OA
ATOM      7  H   UNL     1      39.272 -23.184 -15.089  0.00  0.00    +0.211 HD
ENDBRANCH   5   6
BRANCH   5   9
ATOM      8  O   UNL     1      40.984 -26.514 -13.912  0.00  0.00    -0.248 OA
ATOM      9  C   UNL     1      40.294 -25.920 -14.730  0.00  0.00    +0.341 C 
BRANCH   9  10
ATOM     10  O   UNL     1      40.510 -25.991 -16.069  0.00  0.00    -0.479 OA
ATOM     11  H   UNL     1      41.336 -25.726 -16.424  0.00  0.00    +0.295 HD
ENDBRANCH   9  10
ENDBRANCH   5   9
ENDBRANCH   4   5
ENDBRANCH   1   4
BRANCH   1  12
ATOM     12  C   UNL     1      37.001 -24.774 -11.988  0.00  0.00    +0.166 C 
BRANCH  12  13
ATOM     13  O   UNL     1      35.989 -25.414 -11.209  0.00  0.00    -0.379 OA
ATOM     14  H   UNL     1      36.329 -25.590 -10.318  0.00  0.00    +0.211 HD
ENDBRANCH  12  13
BRANCH  12  15
ATOM     15  C   UNL     1      37.039 -23.290 -11.618  0.00  0.00    +0.169 C 
BRANCH  15  16
ATOM     16  O   UNL     1      38.378 -22.811 -11.670  0.00  0.00    -0.379 OA
ATOM     17  H   UNL     1      38.945 -23.375 -11.120  0.00  0.00    +0.211 HD
ENDBRANCH  15  16
ENDBRANCH  12  15
ENDBRANCH   1  12
TORSDOF 10
ENDMDL
MODEL 7
REMARK VINA RESULT:      -5.9      1.484      1.848
REMARK  Name = 152990
REMARK  10 active torsions:
REMARK  status: ('A' for Active; 'I' for Inactive)
REMARK    1  A    between atoms: C_1  and  O_2
REMARK    2  A    between atoms: C_1  and  C_4
REMARK    3  A    between atoms: C_1  and  C_12
REMARK    4  A    between atoms: C_4  and  C_5
REMARK    5  A    between atoms: C_5  and  O_6
REMARK    6  A    between atoms: C_5  and  C_9
REMARK    7  A    between atoms: C_9  and  O_10
REMARK    8  A    between atoms: C_12  and  O_13
REMARK    9  A    between atoms: C_12  and  C_15
REMARK   10  A    between atoms: C_15  and  O_16
REMARK                            x       y       z     vdW  Elec       q    Type
REMARK                         _______ _______ _______ _____ _____    ______ ____
ROOT
ATOM      1  C   UNL     1      38.264 -25.722 -14.909  0.00  0.00    +0.143 C 
ENDROOT
BRANCH   1   2
ATOM      2  O   UNL     1      38.275 -27.068 -14.438  0.00  0.00    -0.382 OA
ATOM      3  H   UNL     1      38.597 -27.653 -15.141  0.00  0.00    +0.210 HD
ENDBRANCH   1   2
BRANCH   1   4
ATOM      4  C   UNL     1      37.469 -24.829 -13.936  0.00  0.00    +0.073 C 
BRANCH   4   5
ATOM      5  C   UNL     1      37.626 -25.192 -12.452  0.00  0.00    +0.212 C 
BRANCH   5   6
ATOM      6  O   UNL     1      36.581 -26.068 -12.060  0.00  0.00    -0.374 OA
ATOM      7  H   UNL     1      36.953 -26.935 -11.836  0.00  0.00    +0.211 HD
ENDBRANCH   5   6
BRANCH   5   9
ATOM      8  O   UNL     1      38.358 -23.013 -11.661  0.00  0.00    -0.248 OA
ATOM      9  C   UNL     1      37.612 -23.977 -11.546  0.00  0.00    +0.341 C 
BRANCH   9  10
ATOM     10  O   UNL     1      36.681 -24.076 -10.562  0.00  0.00    -0.479 OA
ATOM     11  H   UNL     1      36.547 -24.894 -10.126  0.00  0.00    +0.295 HD
ENDBRANCH   9  10
ENDBRANCH   5   9
ENDBRANCH   4   5
ENDBRANCH   1   4
BRANCH   1  12
ATOM     12  C   UNL     1      39.712 -25.234 -15.092  0.00  0.00    +0.166 C 
BRANCH  12  13
ATOM     13  O   UNL     1      40.266 -25.849 -16.256  0.00  0.00    -0.379 OA
ATOM     14  H   UNL     1      39.578 -26.361 -16.710  0.00  0.00    +0.211 HD
ENDBRANCH  12  13
BRANCH  12  15
ATOM     15  C   UNL     1      40.592 -25.576 -13.889  0.00  0.00    +0.169 C 
BRANCH  15  16
ATOM     16  O   UNL     1      41.271 -26.805 -14.119  0.00  0.00    -0.379 OA
ATOM     17  H   UNL     1      42.110 -26.631 -14.575  0.00  0.00    +0.211 HD
ENDBRANCH  15  16
ENDBRANCH  12  15
ENDBRANCH   1  12
TORSDOF 10
ENDMDL
MODEL 8
REMARK VINA RESULT:      -5.8      1.851      4.517
REMARK  Name = 152990
REMARK  10 active torsions:
REMARK  status: ('A' for Active; 'I' for Inactive)
REMARK    1  A    between atoms: C_1  and  O_2
REMARK    2  A    between atoms: C_1  and  C_4
REMARK    3  A    between atoms: C_1  and  C_12
REMARK    4  A    between atoms: C_4  and  C_5
REMARK    5  A    between atoms: C_5  and  O_6
REMARK    6  A    between atoms: C_5  and  C_9
REMARK    7  A    between atoms: C_9  and  O_10
REMARK    8  A    between atoms: C_12  and  O_13
REMARK    9  A    between atoms: C_12  and  C_15
REMARK   10  A    between atoms: C_15  and  O_16
REMARK                            x       y       z     vdW  Elec       q    Type
REMARK                         _______ _______ _______ _____ _____    ______ ____
ROOT
ATOM      1  C   UNL     1      37.095 -26.294 -14.497  0.00  0.00    +0.143 C 
ENDROOT
BRANCH   1   2
ATOM      2  O   UNL     1      37.645 -26.513 -15.794  0.00  0.00    -0.382 OA
ATOM      3  H   UNL     1      38.487 -26.987 -15.712  0.00  0.00    +0.210 HD
ENDBRANCH   1   2
BRANCH   1   4
ATOM      4  C   UNL     1      38.195 -25.807 -13.532  0.00  0.00    +0.073 C 
BRANCH   4   5
ATOM      5  C   UNL     1      39.350 -25.049 -14.202  0.00  0.00    +0.212 C 
BRANCH   5   6
ATOM      6  O   UNL     1      38.847 -24.237 -15.251  0.00  0.00    -0.374 OA
ATOM      7  H   UNL     1      39.261 -24.497 -16.088  0.00  0.00    +0.211 HD
ENDBRANCH   5   6
BRANCH   5   9
ATOM      8  O   UNL     1      41.165 -26.663 -14.088  0.00  0.00    -0.248 OA
ATOM      9  C   UNL     1      40.411 -25.974 -14.764  0.00  0.00    +0.341 C 
BRANCH   9  10
ATOM     10  O   UNL     1      40.454 -25.947 -16.121  0.00  0.00    -0.479 OA
ATOM     11  H   UNL     1      41.157 -26.369 -16.576  0.00  0.00    +0.295 HD
ENDBRANCH   9  10
ENDBRANCH   5   9
ENDBRANCH   4   5
ENDBRANCH   1   4
BRANCH   1  12
ATOM     12  C   UNL     1      35.930 -25.294 -14.599  0.00  0.00    +0.166 C 
BRANCH  12  13
ATOM     13  O   UNL     1      36.147 -24.441 -15.724  0.00  0.00    -0.379 OA
ATOM     14  H   UNL     1      36.555 -23.612 -15.427  0.00  0.00    +0.211 HD
ENDBRANCH  12  13
BRANCH  12  15
ATOM     15  C   UNL     1      35.800 -24.429 -13.345  0.00  0.00    +0.169 C 
BRANCH  15  16
ATOM     16  O   UNL     1      35.445 -23.099 -13.706  0.00  0.00    -0.379 OA
ATOM     17  H   UNL     1      34.680 -22.814 -13.182  0.00  0.00    +0.211 HD
ENDBRANCH  15  16
ENDBRANCH  12  15
ENDBRANCH   1  12
TORSDOF 10
ENDMDL
MODEL 9
REMARK VINA RESULT:      -5.7      1.370      2.243
REMARK  Name = 152990
REMARK  10 active torsions:
REMARK  status: ('A' for Active; 'I' for Inactive)
REMARK    1  A    between atoms: C_1  and  O_2
REMARK    2  A    between atoms: C_1  and  C_4
REMARK    3  A    between atoms: C_1  and  C_12
REMARK    4  A    between atoms: C_4  and  C_5
REMARK    5  A    between atoms: C_5  and  O_6
REMARK    6  A    between atoms: C_5  and  C_9
REMARK    7  A    between atoms: C_9  and  O_10
REMARK    8  A    between atoms: C_12  and  O_13
REMARK    9  A    between atoms: C_12  and  C_15
REMARK   10  A    between atoms: C_15  and  O_16
REMARK                            x       y       z     vdW  Elec       q    Type
REMARK                         _______ _______ _______ _____ _____    ______ ____
ROOT
ATOM      1  C   UNL     1      37.939 -25.064 -13.284  0.00  0.00    +0.143 C 
ENDROOT
BRANCH   1   2
ATOM      2  O   UNL     1      38.966 -24.282 -12.677  0.00  0.00    -0.382 OA
ATOM      3  H   UNL     1      39.255 -24.711 -11.857  0.00  0.00    +0.210 HD
ENDBRANCH   1   2
BRANCH   1   4
ATOM      4  C   UNL     1      36.665 -24.215 -13.465  0.00  0.00    +0.073 C 
BRANCH   4   5
ATOM      5  C   UNL     1      35.544 -24.511 -12.459  0.00  0.00    +0.212 C 
BRANCH   5   6
ATOM      6  O   UNL     1      34.411 -23.710 -12.754  0.00  0.00    -0.374 OA
ATOM      7  H   UNL     1      34.283 -23.058 -12.047  0.00  0.00    +0.211 HD
ENDBRANCH   5   6
BRANCH   5   9
ATOM      8  O   UNL     1      36.816 -23.451 -10.678  0.00  0.00    -0.248 OA
ATOM      9  C   UNL     1      35.962 -24.258 -11.023  0.00  0.00    +0.341 C 
BRANCH   9  10
ATOM     10  O   UNL     1      35.295 -25.049 -10.144  0.00  0.00    -0.479 OA
ATOM     11  H   UNL     1      34.816 -25.792 -10.453  0.00  0.00    +0.295 HD
ENDBRANCH   9  10
ENDBRANCH   5   9
ENDBRANCH   4   5
ENDBRANCH   1   4
BRANCH   1  12
ATOM     12  C   UNL     1      38.451 -25.631 -14.620  0.00  0.00    +0.166 C 
BRANCH  12  13
ATOM     13  O   UNL     1      38.271 -27.049 -14.623  0.00  0.00    -0.379 OA
ATOM     14  H   UNL     1      37.684 -27.298 -15.354  0.00  0.00    +0.211 HD
ENDBRANCH  12  13
BRANCH  12  15
ATOM     15  C   UNL     1      39.932 -25.325 -14.846  0.00  0.00    +0.169 C 
BRANCH  15  16
ATOM     16  O   UNL     1      40.379 -25.947 -16.046  0.00  0.00    -0.379 OA
ATOM     17  H   UNL     1      40.617 -25.265 -16.694  0.00  0.00    +0.211 HD
ENDBRANCH  15  16
ENDBRANCH  12  15
ENDBRANCH   1  12
TORSDOF 10
ENDMDL
