MODEL 1
REMARK VINA RESULT:      -7.5      0.000      0.000
REMARK  Name = 6989215
REMARK  7 active torsions:
REMARK  status: ('A' for Active; 'I' for Inactive)
REMARK    1  A    between atoms: C_1  and  C_2
REMARK    2  A    between atoms: C_1  and  O_12
REMARK    3  A    between atoms: C_1  and  CA_14
REMARK    4  A    between atoms: C_5  and  O_8
REMARK    5  A    between atoms: C_7  and  O_10
REMARK    6  A    between atoms: CA_14  and  N_15
REMARK    7  A    between atoms: CA_14  and  C_21
REMARK                            x       y       z     vdW  Elec       q    Type
REMARK                         _______ _______ _______ _____ _____    ______ ____
ROOT
ATOM      1  C   UNL     1      37.744 -26.153 -14.560  0.00  0.00    +0.124 C 
ENDROOT
BRANCH   1   2
ATOM      2  C   UNL     1      36.500 -25.431 -14.078  0.00  0.00    +0.006 C 
ATOM      3  C   UNL     1      36.372 -25.136 -12.734  0.00  0.00    +0.038 C 
ATOM      4  C   UNL     1      35.525 -25.087 -14.995  0.00  0.00    +0.001 C 
ATOM      5  C   UNL     1      35.228 -24.473 -12.290  0.00  0.00    +0.167 C 
ATOM      6  C   UNL     1      34.381 -24.423 -14.552  0.00  0.00    +0.040 C 
ATOM      7  C   UNL     1      34.232 -24.116 -13.200  0.00  0.00    +0.167 C 
BRANCH   5   8
ATOM      8  O   UNL     1      35.095 -24.176 -10.967  0.00  0.00    -0.503 OA
ATOM      9  H   UNL     1      34.587 -24.733 -10.411  0.00  0.00    +0.292 HD
ENDBRANCH   5   8
BRANCH   7  10
ATOM     10  O   UNL     1      33.111 -23.468 -12.780  0.00  0.00    -0.503 OA
ATOM     11  H   UNL     1      32.338 -23.478 -13.309  0.00  0.00    +0.292 HD
ENDBRANCH   7  10
ENDBRANCH   1   2
BRANCH   1  12
ATOM     12  O   UNL     1      37.536 -26.696 -15.864  0.00  0.00    -0.382 OA
ATOM     13  H   UNL     1      36.737 -26.308 -16.253  0.00  0.00    +0.211 HD
ENDBRANCH   1  12
BRANCH   1  14
ATOM     14  CA  UNL     1      39.007 -25.269 -14.543  0.00  0.00    +0.072 C 
BRANCH  14  15
ATOM     15  N   UNL     1      38.810 -24.142 -15.512  0.00  0.00    +0.391 N 
ATOM     16  H1  UNL     1      38.436 -24.508 -16.388  0.00  0.00    -0.088 HD
ATOM     17  H2  UNL     1      39.705 -23.685 -15.688  0.00  0.00    -0.088 HD
ATOM     18  H3  UNL     1      38.155 -23.466 -15.119  0.00  0.00    -0.088 HD
ENDBRANCH  14  15
BRANCH  14  21
ATOM     19  O   UNL     1      40.933 -26.450 -13.765  0.00  0.00    -0.248 OA
ATOM     20  OXT UNL     1      40.671 -26.097 -16.003  0.00  0.00    -0.248 OA
ATOM     21  C   UNL     1      40.336 -26.011 -14.786  0.00  0.00    +0.347 C 
ENDBRANCH  14  21
ENDBRANCH   1  14
TORSDOF 7
ENDMDL
MODEL 2
REMARK VINA RESULT:      -7.5      9.253     10.495
REMARK  Name = 6989215
REMARK  7 active torsions:
REMARK  status: ('A' for Active; 'I' for Inactive)
REMARK    1  A    between atoms: C_1  and  C_2
REMARK    2  A    between atoms: C_1  and  O_12
REMARK    3  A    between atoms: C_1  and  CA_14
REMARK    4  A    between atoms: C_5  and  O_8
REMARK    5  A    between atoms: C_7  and  O_10
REMARK    6  A    between atoms: CA_14  and  N_15
REMARK    7  A    between atoms: CA_14  and  C_21
REMARK                            x       y       z     vdW  Elec       q    Type
REMARK                         _______ _______ _______ _____ _____    ______ ____
ROOT
ATOM      1  C   UNL     1      35.792 -17.950 -21.636  0.00  0.00    +0.124 C 
ENDROOT
BRANCH   1   2
ATOM      2  C   UNL     1      35.010 -19.090 -21.011  0.00  0.00    +0.006 C 
ATOM      3  C   UNL     1      35.699 -20.123 -20.405  0.00  0.00    +0.038 C 
ATOM      4  C   UNL     1      33.630 -19.066 -21.065  0.00  0.00    +0.001 C 
ATOM      5  C   UNL     1      34.980 -21.172 -19.830  0.00  0.00    +0.167 C 
ATOM      6  C   UNL     1      32.910 -20.114 -20.490  0.00  0.00    +0.040 C 
ATOM      7  C   UNL     1      33.585 -21.167 -19.873  0.00  0.00    +0.167 C 
BRANCH   5   8
ATOM      8  O   UNL     1      35.650 -22.193 -19.228  0.00  0.00    -0.503 OA
ATOM      9  H   UNL     1      35.891 -22.952 -19.723  0.00  0.00    +0.292 HD
ENDBRANCH   5   8
BRANCH   7  10
ATOM     10  O   UNL     1      32.872 -22.184 -19.315  0.00  0.00    -0.503 OA
ATOM     11  H   UNL     1      33.207 -23.058 -19.338  0.00  0.00    +0.292 HD
ENDBRANCH   7  10
ENDBRANCH   1   2
BRANCH   1  12
ATOM     12  O   UNL     1      36.729 -18.448 -22.592  0.00  0.00    -0.382 OA
ATOM     13  H   UNL     1      37.455 -18.896 -22.131  0.00  0.00    +0.211 HD
ENDBRANCH   1  12
BRANCH   1  14
ATOM     14  CA  UNL     1      34.893 -16.874 -22.279  0.00  0.00    +0.072 C 
BRANCH  14  15
ATOM     15  N   UNL     1      35.397 -16.600 -23.663  0.00  0.00    +0.391 N 
ATOM     16  H1  UNL     1      35.656 -17.479 -24.111  0.00  0.00    -0.088 HD
ATOM     17  H2  UNL     1      36.213 -15.990 -23.613  0.00  0.00    -0.088 HD
ATOM     18  H3  UNL     1      34.664 -16.144 -24.208  0.00  0.00    -0.088 HD
ENDBRANCH  14  15
BRANCH  14  21
ATOM     19  O   UNL     1      34.907 -15.669 -20.215  0.00  0.00    -0.248 OA
ATOM     20  OXT UNL     1      34.426 -14.560 -22.150  0.00  0.00    -0.248 OA
ATOM     21  C   UNL     1      34.725 -15.579 -21.460  0.00  0.00    +0.347 C 
ENDBRANCH  14  21
ENDBRANCH   1  14
TORSDOF 7
ENDMDL
MODEL 3
REMARK VINA RESULT:      -7.4      9.621     10.710
REMARK  Name = 6989215
REMARK  7 active torsions:
REMARK  status: ('A' for Active; 'I' for Inactive)
REMARK    1  A    between atoms: C_1  and  C_2
REMARK    2  A    between atoms: C_1  and  O_12
REMARK    3  A    between atoms: C_1  and  CA_14
REMARK    4  A    between atoms: C_5  and  O_8
REMARK    5  A    between atoms: C_7  and  O_10
REMARK    6  A    between atoms: CA_14  and  N_15
REMARK    7  A    between atoms: CA_14  and  C_21
REMARK                            x       y       z     vdW  Elec       q    Type
REMARK                         _______ _______ _______ _____ _____    ______ ____
ROOT
ATOM      1  C   UNL     1      35.280 -18.163 -22.171  0.00  0.00    +0.124 C 
ENDROOT
BRANCH   1   2
ATOM      2  C   UNL     1      34.676 -19.244 -21.295  0.00  0.00    +0.006 C 
ATOM      3  C   UNL     1      35.511 -20.172 -20.701  0.00  0.00    +0.038 C 
ATOM      4  C   UNL     1      33.307 -19.275 -21.114  0.00  0.00    +0.001 C 
ATOM      5  C   UNL     1      34.956 -21.167 -19.896  0.00  0.00    +0.167 C 
ATOM      6  C   UNL     1      32.751 -20.270 -20.309  0.00  0.00    +0.040 C 
ATOM      7  C   UNL     1      33.576 -21.216 -19.700  0.00  0.00    +0.167 C 
BRANCH   5   8
ATOM      8  O   UNL     1      35.772 -22.084 -19.305  0.00  0.00    -0.503 OA
ATOM      9  H   UNL     1      36.389 -22.564 -19.822  0.00  0.00    +0.292 HD
ENDBRANCH   5   8
BRANCH   7  10
ATOM     10  O   UNL     1      33.021 -22.181 -18.916  0.00  0.00    -0.503 OA
ATOM     11  H   UNL     1      32.452 -22.821 -19.294  0.00  0.00    +0.292 HD
ENDBRANCH   7  10
ENDBRANCH   1   2
BRANCH   1  12
ATOM     12  O   UNL     1      36.691 -18.344 -22.293  0.00  0.00    -0.382 OA
ATOM     13  H   UNL     1      37.047 -18.685 -21.458  0.00  0.00    +0.211 HD
ENDBRANCH   1  12
BRANCH   1  14
ATOM     14  CA  UNL     1      34.629 -18.074 -23.566  0.00  0.00    +0.072 C 
BRANCH  14  15
ATOM     15  N   UNL     1      34.956 -19.326 -24.322  0.00  0.00    +0.391 N 
ATOM     16  H1  UNL     1      34.683 -19.215 -25.299  0.00  0.00    -0.088 HD
ATOM     17  H2  UNL     1      34.450 -20.112 -23.914  0.00  0.00    -0.088 HD
ATOM     18  H3  UNL     1      35.960 -19.503 -24.268  0.00  0.00    -0.088 HD
ENDBRANCH  14  15
BRANCH  14  21
ATOM     19  O   UNL     1      34.829 -16.880 -25.627  0.00  0.00    -0.248 OA
ATOM     20  OXT UNL     1      35.349 -15.825 -23.672  0.00  0.00    -0.248 OA
ATOM     21  C   UNL     1      34.969 -16.807 -24.375  0.00  0.00    +0.347 C 
ENDBRANCH  14  21
ENDBRANCH   1  14
TORSDOF 7
ENDMDL
MODEL 4
REMARK VINA RESULT:      -7.3      9.394     10.652
REMARK  Name = 6989215
REMARK  7 active torsions:
REMARK  status: ('A' for Active; 'I' for Inactive)
REMARK    1  A    between atoms: C_1  and  C_2
REMARK    2  A    between atoms: C_1  and  O_12
REMARK    3  A    between atoms: C_1  and  CA_14
REMARK    4  A    between atoms: C_5  and  O_8
REMARK    5  A    between atoms: C_7  and  O_10
REMARK    6  A    between atoms: CA_14  and  N_15
REMARK    7  A    between atoms: CA_14  and  C_21
REMARK                            x       y       z     vdW  Elec       q    Type
REMARK                         _______ _______ _______ _____ _____    ______ ____
ROOT
ATOM      1  C   UNL     1      34.336 -17.919 -22.060  0.00  0.00    +0.124 C 
ENDROOT
BRANCH   1   2
ATOM      2  C   UNL     1      34.597 -19.141 -21.199  0.00  0.00    +0.006 C 
ATOM      3  C   UNL     1      33.524 -19.876 -20.734  0.00  0.00    +0.038 C 
ATOM      4  C   UNL     1      35.901 -19.487 -20.902  0.00  0.00    +0.001 C 
ATOM      5  C   UNL     1      33.763 -21.000 -19.942  0.00  0.00    +0.167 C 
ATOM      6  C   UNL     1      36.142 -20.610 -20.110  0.00  0.00    +0.040 C 
ATOM      7  C   UNL     1      35.072 -21.366 -19.630  0.00  0.00    +0.167 C 
BRANCH   5   8
ATOM      8  O   UNL     1      32.711 -21.732 -19.481  0.00  0.00    -0.503 OA
ATOM      9  H   UNL     1      32.185 -21.405 -18.778  0.00  0.00    +0.292 HD
ENDBRANCH   5   8
BRANCH   7  10
ATOM     10  O   UNL     1      35.320 -22.461 -18.859  0.00  0.00    -0.503 OA
ATOM     11  H   UNL     1      35.821 -23.173 -19.203  0.00  0.00    +0.292 HD
ENDBRANCH   7  10
ENDBRANCH   1   2
BRANCH   1  12
ATOM     12  O   UNL     1      34.480 -16.723 -21.292  0.00  0.00    -0.382 OA
ATOM     13  H   UNL     1      34.464 -15.955 -21.884  0.00  0.00    +0.211 HD
ENDBRANCH   1  12
BRANCH   1  14
ATOM     14  CA  UNL     1      35.227 -17.858 -23.318  0.00  0.00    +0.072 C 
BRANCH  14  15
ATOM     15  N   UNL     1      35.574 -16.424 -23.583  0.00  0.00    +0.391 N 
ATOM     16  H1  UNL     1      36.326 -16.378 -24.270  0.00  0.00    -0.088 HD
ATOM     17  H2  UNL     1      35.878 -15.982 -22.715  0.00  0.00    -0.088 HD
ATOM     18  H3  UNL     1      34.754 -15.936 -23.943  0.00  0.00    -0.088 HD
ENDBRANCH  14  15
BRANCH  14  21
ATOM     19  O   UNL     1      34.123 -17.805 -25.437  0.00  0.00    -0.248 OA
ATOM     20  OXT UNL     1      34.788 -19.810 -24.576  0.00  0.00    -0.248 OA
ATOM     21  C   UNL     1      34.652 -18.552 -24.568  0.00  0.00    +0.347 C 
ENDBRANCH  14  21
ENDBRANCH   1  14
TORSDOF 7
ENDMDL
MODEL 5
REMARK VINA RESULT:      -7.2     10.925     11.946
REMARK  Name = 6989215
REMARK  7 active torsions:
REMARK  status: ('A' for Active; 'I' for Inactive)
REMARK    1  A    between atoms: C_1  and  C_2
REMARK    2  A    between atoms: C_1  and  O_12
REMARK    3  A    between atoms: C_1  and  CA_14
REMARK    4  A    between atoms: C_5  and  O_8
REMARK    5  A    between atoms: C_7  and  O_10
REMARK    6  A    between atoms: CA_14  and  N_15
REMARK    7  A    between atoms: CA_14  and  C_21
REMARK                            x       y       z     vdW  Elec       q    Type
REMARK                         _______ _______ _______ _____ _____    ______ ____
ROOT
ATOM      1  C   UNL     1      35.675 -18.432 -21.571  0.00  0.00    +0.124 C 
ENDROOT
BRANCH   1   2
ATOM      2  C   UNL     1      35.158 -17.766 -22.833  0.00  0.00    +0.006 C 
ATOM      3  C   UNL     1      34.859 -16.417 -22.807  0.00  0.00    +0.038 C 
ATOM      4  C   UNL     1      34.998 -18.526 -23.975  0.00  0.00    +0.001 C 
ATOM      5  C   UNL     1      34.383 -15.805 -23.967  0.00  0.00    +0.167 C 
ATOM      6  C   UNL     1      34.523 -17.915 -25.136  0.00  0.00    +0.040 C 
ATOM      7  C   UNL     1      34.215 -16.555 -25.131  0.00  0.00    +0.167 C 
BRANCH   5   8
ATOM      8  O   UNL     1      34.089 -14.476 -23.951  0.00  0.00    -0.503 OA
ATOM      9  H   UNL     1      34.301 -13.958 -23.199  0.00  0.00    +0.292 HD
ENDBRANCH   5   8
BRANCH   7  10
ATOM     10  O   UNL     1      33.752 -15.969 -26.271  0.00  0.00    -0.503 OA
ATOM     11  H   UNL     1      34.286 -15.955 -27.039  0.00  0.00    +0.292 HD
ENDBRANCH   7  10
ENDBRANCH   1   2
BRANCH   1  12
ATOM     12  O   UNL     1      35.563 -17.548 -20.455  0.00  0.00    -0.382 OA
ATOM     13  H   UNL     1      35.647 -18.054 -19.631  0.00  0.00    +0.211 HD
ENDBRANCH   1  12
BRANCH   1  14
ATOM     14  CA  UNL     1      34.981 -19.774 -21.262  0.00  0.00    +0.072 C 
BRANCH  14  15
ATOM     15  N   UNL     1      33.535 -19.506 -20.976  0.00  0.00    +0.391 N 
ATOM     16  H1  UNL     1      33.024 -19.422 -21.855  0.00  0.00    -0.088 HD
ATOM     17  H2  UNL     1      33.448 -18.637 -20.448  0.00  0.00    -0.088 HD
ATOM     18  H3  UNL     1      33.148 -20.275 -20.429  0.00  0.00    -0.088 HD
ENDBRANCH  14  15
BRANCH  14  21
ATOM     19  O   UNL     1      35.060 -21.694 -19.841  0.00  0.00    -0.248 OA
ATOM     20  OXT UNL     1      36.709 -20.125 -19.687  0.00  0.00    -0.248 OA
ATOM     21  C   UNL     1      35.640 -20.618 -20.154  0.00  0.00    +0.347 C 
ENDBRANCH  14  21
ENDBRANCH   1  14
TORSDOF 7
ENDMDL
MODEL 6
REMARK VINA RESULT:      -6.8      5.132      8.308
REMARK  Name = 6989215
REMARK  7 active torsions:
REMARK  status: ('A' for Active; 'I' for Inactive)
REMARK    1  A    between atoms: C_1  and  C_2
REMARK    2  A    between atoms: C_1  and  O_12
REMARK    3  A    between atoms: C_1  and  CA_14
REMARK    4  A    between atoms: C_5  and  O_8
REMARK    5  A    between atoms: C_7  and  O_10
REMARK    6  A    between atoms: CA_14  and  N_15
REMARK    7  A    between atoms: CA_14  and  C_21
REMARK                            x       y       z     vdW  Elec       q    Type
REMARK                         _______ _______ _______ _____ _____    ______ ____
ROOT
ATOM      1  C   UNL     1      29.798 -24.084 -16.053  0.00  0.00    +0.124 C 
ENDROOT
BRANCH   1   2
ATOM      2  C   UNL     1      31.249 -23.960 -15.626  0.00  0.00    +0.006 C 
ATOM      3  C   UNL     1      31.631 -24.458 -14.395  0.00  0.00    +0.038 C 
ATOM      4  C   UNL     1      32.149 -23.350 -16.478  0.00  0.00    +0.001 C 
ATOM      5  C   UNL     1      32.965 -24.342 -14.002  0.00  0.00    +0.167 C 
ATOM      6  C   UNL     1      33.483 -23.235 -16.086  0.00  0.00    +0.040 C 
ATOM      7  C   UNL     1      33.891 -23.731 -14.847  0.00  0.00    +0.167 C 
BRANCH   5   8
ATOM      8  O   UNL     1      33.352 -24.833 -12.791  0.00  0.00    -0.503 OA
ATOM      9  H   UNL     1      33.111 -25.703 -12.540  0.00  0.00    +0.292 HD
ENDBRANCH   5   8
BRANCH   7  10
ATOM     10  O   UNL     1      35.196 -23.613 -14.476  0.00  0.00    -0.503 OA
ATOM     11  H   UNL     1      35.840 -23.358 -15.105  0.00  0.00    +0.292 HD
ENDBRANCH   7  10
ENDBRANCH   1   2
BRANCH   1  12
ATOM     12  O   UNL     1      29.057 -24.848 -15.101  0.00  0.00    -0.382 OA
ATOM     13  H   UNL     1      28.820 -25.705 -15.488  0.00  0.00    +0.211 HD
ENDBRANCH   1  12
BRANCH   1  14
ATOM     14  CA  UNL     1      29.115 -22.723 -16.296  0.00  0.00    +0.072 C 
BRANCH  14  15
ATOM     15  N   UNL     1      28.856 -22.079 -14.967  0.00  0.00    +0.391 N 
ATOM     16  H1  UNL     1      29.616 -21.436 -14.747  0.00  0.00    -0.088 HD
ATOM     17  H2  UNL     1      28.799 -22.799 -14.247  0.00  0.00    -0.088 HD
ATOM     18  H3  UNL     1      27.975 -21.565 -15.004  0.00  0.00    -0.088 HD
ENDBRANCH  14  15
BRANCH  14  21
ATOM     19  O   UNL     1      27.532 -23.889 -17.654  0.00  0.00    -0.248 OA
ATOM     20  OXT UNL     1      27.261 -21.652 -17.298  0.00  0.00    -0.248 OA
ATOM     21  C   UNL     1      27.848 -22.766 -17.172  0.00  0.00    +0.347 C 
ENDBRANCH  14  21
ENDBRANCH   1  14
TORSDOF 7
ENDMDL
MODEL 7
REMARK VINA RESULT:      -6.8      5.567      8.937
REMARK  Name = 6989215
REMARK  7 active torsions:
REMARK  status: ('A' for Active; 'I' for Inactive)
REMARK    1  A    between atoms: C_1  and  C_2
REMARK    2  A    between atoms: C_1  and  O_12
REMARK    3  A    between atoms: C_1  and  CA_14
REMARK    4  A    between atoms: C_5  and  O_8
REMARK    5  A    between atoms: C_7  and  O_10
REMARK    6  A    between atoms: CA_14  and  N_15
REMARK    7  A    between atoms: CA_14  and  C_21
REMARK                            x       y       z     vdW  Elec       q    Type
REMARK                         _______ _______ _______ _____ _____    ______ ____
ROOT
ATOM      1  C   UNL     1      29.566 -22.429 -15.971  0.00  0.00    +0.124 C 
ENDROOT
BRANCH   1   2
ATOM      2  C   UNL     1      30.601 -23.140 -15.121  0.00  0.00    +0.006 C 
ATOM      3  C   UNL     1      31.925 -22.754 -15.211  0.00  0.00    +0.038 C 
ATOM      4  C   UNL     1      30.194 -24.156 -14.278  0.00  0.00    +0.001 C 
ATOM      5  C   UNL     1      32.877 -23.408 -14.430  0.00  0.00    +0.167 C 
ATOM      6  C   UNL     1      31.146 -24.811 -13.496  0.00  0.00    +0.040 C 
ATOM      7  C   UNL     1      32.488 -24.437 -13.572  0.00  0.00    +0.167 C 
BRANCH   5   8
ATOM      8  O   UNL     1      34.184 -23.033 -14.511  0.00  0.00    -0.503 OA
ATOM      9  H   UNL     1      34.749 -23.436 -15.140  0.00  0.00    +0.292 HD
ENDBRANCH   5   8
BRANCH   7  10
ATOM     10  O   UNL     1      33.407 -25.083 -12.803  0.00  0.00    -0.503 OA
ATOM     11  H   UNL     1      34.321 -24.943 -12.950  0.00  0.00    +0.292 HD
ENDBRANCH   7  10
ENDBRANCH   1   2
BRANCH   1  12
ATOM     12  O   UNL     1      30.028 -22.291 -17.316  0.00  0.00    -0.382 OA
ATOM     13  H   UNL     1      30.287 -21.370 -17.476  0.00  0.00    +0.211 HD
ENDBRANCH   1  12
BRANCH   1  14
ATOM     14  CA  UNL     1      28.183 -23.112 -15.948  0.00  0.00    +0.072 C 
BRANCH  14  15
ATOM     15  N   UNL     1      28.217 -24.282 -16.885  0.00  0.00    +0.391 N 
ATOM     16  H1  UNL     1      28.286 -25.146 -16.347  0.00  0.00    -0.088 HD
ATOM     17  H2  UNL     1      29.025 -24.200 -17.502  0.00  0.00    -0.088 HD
ATOM     18  H3  UNL     1      27.363 -24.296 -17.443  0.00  0.00    -0.088 HD
ENDBRANCH  14  15
BRANCH  14  21
ATOM     19  O   UNL     1      27.070 -21.437 -17.238  0.00  0.00    -0.248 OA
ATOM     20  OXT UNL     1      26.035 -22.296 -15.396  0.00  0.00    -0.248 OA
ATOM     21  C   UNL     1      26.983 -22.186 -16.227  0.00  0.00    +0.347 C 
ENDBRANCH  14  21
ENDBRANCH   1  14
TORSDOF 7
ENDMDL
MODEL 8
REMARK VINA RESULT:      -6.8      1.829      2.110
REMARK  Name = 6989215
REMARK  7 active torsions:
REMARK  status: ('A' for Active; 'I' for Inactive)
REMARK    1  A    between atoms: C_1  and  C_2
REMARK    2  A    between atoms: C_1  and  O_12
REMARK    3  A    between atoms: C_1  and  CA_14
REMARK    4  A    between atoms: C_5  and  O_8
REMARK    5  A    between atoms: C_7  and  O_10
REMARK    6  A    between atoms: CA_14  and  N_15
REMARK    7  A    between atoms: CA_14  and  C_21
REMARK                            x       y       z     vdW  Elec       q    Type
REMARK                         _______ _______ _______ _____ _____    ______ ____
ROOT
ATOM      1  C   UNL     1      38.059 -24.138 -14.192  0.00  0.00    +0.124 C 
ENDROOT
BRANCH   1   2
ATOM      2  C   UNL     1      36.583 -23.971 -14.500  0.00  0.00    +0.006 C 
ATOM      3  C   UNL     1      35.651 -24.450 -13.599  0.00  0.00    +0.038 C 
ATOM      4  C   UNL     1      36.208 -23.346 -15.674  0.00  0.00    +0.001 C 
ATOM      5  C   UNL     1      34.293 -24.298 -13.882  0.00  0.00    +0.167 C 
ATOM      6  C   UNL     1      34.851 -23.194 -15.957  0.00  0.00    +0.040 C 
ATOM      7  C   UNL     1      33.893 -23.669 -15.062  0.00  0.00    +0.167 C 
BRANCH   5   8
ATOM      8  O   UNL     1      33.368 -24.764 -12.998  0.00  0.00    -0.503 OA
ATOM      9  H   UNL     1      33.504 -25.585 -12.566  0.00  0.00    +0.292 HD
ENDBRANCH   5   8
BRANCH   7  10
ATOM     10  O   UNL     1      32.572 -23.514 -15.349  0.00  0.00    -0.503 OA
ATOM     11  H   UNL     1      32.312 -23.061 -16.127  0.00  0.00    +0.292 HD
ENDBRANCH   7  10
ENDBRANCH   1   2
BRANCH   1  12
ATOM     12  O   UNL     1      38.286 -24.103 -12.783  0.00  0.00    -0.382 OA
ATOM     13  H   UNL     1      39.031 -23.512 -12.589  0.00  0.00    +0.211 HD
ENDBRANCH   1  12
BRANCH   1  14
ATOM     14  CA  UNL     1      38.668 -25.417 -14.801  0.00  0.00    +0.072 C 
BRANCH  14  15
ATOM     15  N   UNL     1      38.200 -26.594 -13.999  0.00  0.00    +0.391 N 
ATOM     16  H1  UNL     1      37.202 -26.501 -13.810  0.00  0.00    -0.088 HD
ATOM     17  H2  UNL     1      38.712 -26.629 -13.117  0.00  0.00    -0.088 HD
ATOM     18  H3  UNL     1      38.368 -27.452 -14.524  0.00  0.00    -0.088 HD
ENDBRANCH  14  15
BRANCH  14  21
ATOM     19  O   UNL     1      40.854 -24.719 -14.132  0.00  0.00    -0.248 OA
ATOM     20  OXT UNL     1      40.628 -26.106 -15.930  0.00  0.00    -0.248 OA
ATOM     21  C   UNL     1      40.201 -25.406 -14.965  0.00  0.00    +0.347 C 
ENDBRANCH  14  21
ENDBRANCH   1  14
TORSDOF 7
ENDMDL
MODEL 9
REMARK VINA RESULT:      -6.6      3.037      4.608
REMARK  Name = 6989215
REMARK  7 active torsions:
REMARK  status: ('A' for Active; 'I' for Inactive)
REMARK    1  A    between atoms: C_1  and  C_2
REMARK    2  A    between atoms: C_1  and  O_12
REMARK    3  A    between atoms: C_1  and  CA_14
REMARK    4  A    between atoms: C_5  and  O_8
REMARK    5  A    between atoms: C_7  and  O_10
REMARK    6  A    between atoms: CA_14  and  N_15
REMARK    7  A    between atoms: CA_14  and  C_21
REMARK                            x       y       z     vdW  Elec       q    Type
REMARK                         _______ _______ _______ _____ _____    ______ ____
ROOT
ATOM      1  C   UNL     1      34.816 -24.019 -13.735  0.00  0.00    +0.124 C 
ENDROOT
BRANCH   1   2
ATOM      2  C   UNL     1      34.271 -23.608 -15.089  0.00  0.00    +0.006 C 
ATOM      3  C   UNL     1      35.148 -23.154 -16.056  0.00  0.00    +0.038 C 
ATOM      4  C   UNL     1      32.912 -23.696 -15.321  0.00  0.00    +0.001 C 
ATOM      5  C   UNL     1      34.647 -22.775 -17.302  0.00  0.00    +0.167 C 
ATOM      6  C   UNL     1      32.411 -23.317 -16.567  0.00  0.00    +0.040 C 
ATOM      7  C   UNL     1      33.278 -22.856 -17.557  0.00  0.00    +0.167 C 
BRANCH   5   8
ATOM      8  O   UNL     1      35.505 -22.328 -18.262  0.00  0.00    -0.503 OA
ATOM      9  H   UNL     1      36.171 -21.706 -18.043  0.00  0.00    +0.292 HD
ENDBRANCH   5   8
BRANCH   7  10
ATOM     10  O   UNL     1      32.777 -22.490 -18.769  0.00  0.00    -0.503 OA
ATOM     11  H   UNL     1      33.332 -22.078 -19.400  0.00  0.00    +0.292 HD
ENDBRANCH   7  10
ENDBRANCH   1   2
BRANCH   1  12
ATOM     12  O   UNL     1      33.823 -24.720 -12.985  0.00  0.00    -0.382 OA
ATOM     13  H   UNL     1      33.798 -24.375 -12.078  0.00  0.00    +0.211 HD
ENDBRANCH   1  12
BRANCH   1  14
ATOM     14  CA  UNL     1      36.108 -24.857 -13.826  0.00  0.00    +0.072 C 
BRANCH  14  15
ATOM     15  N   UNL     1      35.806 -26.112 -14.589  0.00  0.00    +0.391 N 
ATOM     16  H1  UNL     1      36.679 -26.550 -14.883  0.00  0.00    -0.088 HD
ATOM     17  H2  UNL     1      35.246 -25.883 -15.410  0.00  0.00    -0.088 HD
ATOM     18  H3  UNL     1      35.286 -26.756 -13.992  0.00  0.00    -0.088 HD
ENDBRANCH  14  15
BRANCH  14  21
ATOM     19  O   UNL     1      36.045 -25.403 -11.500  0.00  0.00    -0.248 OA
ATOM     20  OXT UNL     1      38.064 -25.118 -12.524  0.00  0.00    -0.248 OA
ATOM     21  C   UNL     1      36.799 -25.154 -12.481  0.00  0.00    +0.347 C 
ENDBRANCH  14  21
ENDBRANCH   1  14
TORSDOF 7
ENDMDL
