MODEL 1
REMARK VINA RESULT:      -7.2      0.000      0.000
REMARK  Name = 446501
REMARK  8 active torsions:
REMARK  status: ('A' for Active; 'I' for Inactive)
REMARK    1  A    between atoms: C_1  and  C_14
REMARK    2  A    between atoms: C_2  and  C_11
REMARK    3  A    between atoms: C_5  and  N_7
REMARK    4  A    between atoms: C_11  and  O_12
REMARK    5  A    between atoms: C_14  and  C_16
REMARK    6  A    between atoms: C_14  and  O_19
REMARK    7  A    between atoms: C_16  and  O_17
REMARK    8  A    between atoms: O_19  and  C_21
REMARK                            x       y       z     vdW  Elec       q    Type
REMARK                         _______ _______ _______ _____ _____    ______ ____
ROOT
ATOM      1  C   UNL     1      36.867 -23.464 -14.892  0.00  0.00    +0.035 C 
ATOM      2  C   UNL     1      35.624 -23.837 -15.405  0.00  0.00    +0.077 C 
ATOM      3  C   UNL     1      37.640 -22.513 -15.559  0.00  0.00    +0.001 C 
ATOM      4  C   UNL     1      35.153 -23.257 -16.584  0.00  0.00    +0.020 C 
ATOM      5  C   UNL     1      35.926 -22.307 -17.251  0.00  0.00    +0.042 C 
ATOM      6  C   UNL     1      37.169 -21.935 -16.738  0.00  0.00    +0.014 C 
ENDROOT
BRANCH   5   7
ATOM      7  N   UNL     1      35.451 -21.721 -18.441  0.00  0.00    -0.357 N 
ATOM      8  H   UNL     1      35.587 -20.760 -18.606  0.00  0.00    +0.142 HD
ATOM      9  H   UNL     1      34.982 -22.273 -19.109  0.00  0.00    +0.142 HD
ENDBRANCH   5   7
BRANCH   2  11
ATOM     10  O   UNL     1      33.798 -24.585 -14.054  0.00  0.00    -0.245 OA
ATOM     11  C   UNL     1      34.800 -24.830 -14.731  0.00  0.00    +0.338 C 
BRANCH  11  12
ATOM     12  O   UNL     1      35.253 -26.098 -14.926  0.00  0.00    -0.477 OA
ATOM     13  H   UNL     1      36.029 -26.390 -14.491  0.00  0.00    +0.295 HD
ENDBRANCH  11  12
ENDBRANCH   2  11
BRANCH   1  14
ATOM     14  C   UNL     1      37.394 -24.067 -13.631  0.00  0.00    +0.289 C 
BRANCH  14  16
ATOM     15  O   UNL     1      38.228 -22.429 -12.032  0.00  0.00    -0.246 OA
ATOM     16  C   UNL     1      37.308 -23.130 -12.435  0.00  0.00    +0.362 C 
BRANCH  16  17
ATOM     17  O   UNL     1      36.052 -23.182 -11.900  0.00  0.00    -0.442 OA
ATOM     18  C   UNL     1      35.762 -24.343 -11.115  0.00  0.00    +0.256 C 
ENDBRANCH  16  17
ENDBRANCH  14  16
BRANCH  14  19
ATOM     19  O   UNL     1      38.760 -24.430 -13.819  0.00  0.00    -0.436 OA
BRANCH  19  21
ATOM     20  O   UNL     1      38.166 -26.645 -14.091  0.00  0.00    -0.250 OA
ATOM     21  C   UNL     1      38.986 -25.739 -14.136  0.00  0.00    +0.318 C 
ATOM     22  C   UNL     1      40.413 -25.918 -14.559  0.00  0.00    +0.121 C 
ENDBRANCH  19  21
ENDBRANCH  14  19
ENDBRANCH   1  14
TORSDOF 8
ENDMDL
MODEL 2
REMARK VINA RESULT:      -7.0      3.185      4.706
REMARK  Name = 446501
REMARK  8 active torsions:
REMARK  status: ('A' for Active; 'I' for Inactive)
REMARK    1  A    between atoms: C_1  and  C_14
REMARK    2  A    between atoms: C_2  and  C_11
REMARK    3  A    between atoms: C_5  and  N_7
REMARK    4  A    between atoms: C_11  and  O_12
REMARK    5  A    between atoms: C_14  and  C_16
REMARK    6  A    between atoms: C_14  and  O_19
REMARK    7  A    between atoms: C_16  and  O_17
REMARK    8  A    between atoms: O_19  and  C_21
REMARK                            x       y       z     vdW  Elec       q    Type
REMARK                         _______ _______ _______ _____ _____    ______ ____
ROOT
ATOM      1  C   UNL     1      33.606 -23.454 -15.700  0.00  0.00    +0.035 C 
ATOM      2  C   UNL     1      32.812 -23.186 -16.815  0.00  0.00    +0.077 C 
ATOM      3  C   UNL     1      33.037 -23.469 -14.426  0.00  0.00    +0.001 C 
ATOM      4  C   UNL     1      31.448 -22.934 -16.658  0.00  0.00    +0.020 C 
ATOM      5  C   UNL     1      30.880 -22.949 -15.384  0.00  0.00    +0.042 C 
ATOM      6  C   UNL     1      31.674 -23.216 -14.269  0.00  0.00    +0.014 C 
ENDROOT
BRANCH   5   7
ATOM      7  N   UNL     1      29.502 -22.695 -15.224  0.00  0.00    -0.357 N 
ATOM      8  H   UNL     1      29.032 -22.113 -15.863  0.00  0.00    +0.142 HD
ATOM      9  H   UNL     1      29.011 -23.100 -14.473  0.00  0.00    +0.142 HD
ENDBRANCH   5   7
BRANCH   2  11
ATOM     10  O   UNL     1      33.755 -24.149 -18.791  0.00  0.00    -0.245 OA
ATOM     11  C   UNL     1      33.381 -23.160 -18.156  0.00  0.00    +0.338 C 
BRANCH  11  12
ATOM     12  O   UNL     1      33.465 -21.898 -18.659  0.00  0.00    -0.477 OA
ATOM     13  H   UNL     1      33.457 -21.162 -18.080  0.00  0.00    +0.295 HD
ENDBRANCH  11  12
ENDBRANCH   2  11
BRANCH   1  14
ATOM     14  C   UNL     1      35.068 -23.728 -15.841  0.00  0.00    +0.289 C 
BRANCH  14  16
ATOM     15  O   UNL     1      35.794 -24.691 -13.724  0.00  0.00    -0.246 OA
ATOM     16  C   UNL     1      35.563 -24.832 -14.918  0.00  0.00    +0.362 C 
BRANCH  16  17
ATOM     17  O   UNL     1      35.693 -25.996 -15.623  0.00  0.00    -0.442 OA
ATOM     18  C   UNL     1      36.816 -26.810 -15.272  0.00  0.00    +0.256 C 
ENDBRANCH  16  17
ENDBRANCH  14  16
BRANCH  14  19
ATOM     19  O   UNL     1      35.799 -22.540 -15.551  0.00  0.00    -0.436 OA
BRANCH  19  21
ATOM     20  O   UNL     1      38.086 -22.796 -15.760  0.00  0.00    -0.250 OA
ATOM     21  C   UNL     1      37.003 -22.416 -16.184  0.00  0.00    +0.318 C 
ATOM     22  C   UNL     1      36.812 -21.736 -17.506  0.00  0.00    +0.121 C 
ENDBRANCH  19  21
ENDBRANCH  14  19
ENDBRANCH   1  14
TORSDOF 8
ENDMDL
MODEL 3
REMARK VINA RESULT:      -7.0      8.066     10.133
REMARK  Name = 446501
REMARK  8 active torsions:
REMARK  status: ('A' for Active; 'I' for Inactive)
REMARK    1  A    between atoms: C_1  and  C_14
REMARK    2  A    between atoms: C_2  and  C_11
REMARK    3  A    between atoms: C_5  and  N_7
REMARK    4  A    between atoms: C_11  and  O_12
REMARK    5  A    between atoms: C_14  and  C_16
REMARK    6  A    between atoms: C_14  and  O_19
REMARK    7  A    between atoms: C_16  and  O_17
REMARK    8  A    between atoms: O_19  and  C_21
REMARK                            x       y       z     vdW  Elec       q    Type
REMARK                         _______ _______ _______ _____ _____    ______ ____
ROOT
ATOM      1  C   UNL     1      34.642 -17.857 -22.429  0.00  0.00    +0.035 C 
ATOM      2  C   UNL     1      34.247 -16.524 -22.304  0.00  0.00    +0.077 C 
ATOM      3  C   UNL     1      34.798 -18.422 -23.695  0.00  0.00    +0.001 C 
ATOM      4  C   UNL     1      34.009 -15.756 -23.444  0.00  0.00    +0.020 C 
ATOM      5  C   UNL     1      34.165 -16.322 -24.710  0.00  0.00    +0.042 C 
ATOM      6  C   UNL     1      34.559 -17.654 -24.835  0.00  0.00    +0.014 C 
ENDROOT
BRANCH   5   7
ATOM      7  N   UNL     1      33.925 -15.546 -25.863  0.00  0.00    -0.357 N 
ATOM      8  H   UNL     1      33.588 -14.626 -25.775  0.00  0.00    +0.142 HD
ATOM      9  H   UNL     1      34.094 -15.926 -26.755  0.00  0.00    +0.142 HD
ENDBRANCH   5   7
BRANCH   2  11
ATOM     10  O   UNL     1      34.983 -15.472 -20.285  0.00  0.00    -0.245 OA
ATOM     11  C   UNL     1      34.074 -15.911 -20.994  0.00  0.00    +0.338 C 
BRANCH  11  12
ATOM     12  O   UNL     1      32.768 -15.866 -20.613  0.00  0.00    -0.477 OA
ATOM     13  H   UNL     1      32.097 -15.737 -21.253  0.00  0.00    +0.295 HD
ENDBRANCH  11  12
ENDBRANCH   2  11
BRANCH   1  14
ATOM     14  C   UNL     1      34.906 -18.701 -21.225  0.00  0.00    +0.289 C 
BRANCH  14  16
ATOM     15  O   UNL     1      37.274 -18.692 -21.794  0.00  0.00    -0.246 OA
ATOM     16  C   UNL     1      36.381 -19.013 -21.021  0.00  0.00    +0.362 C 
BRANCH  16  17
ATOM     17  O   UNL     1      36.548 -19.687 -19.844  0.00  0.00    -0.442 OA
ATOM     18  C   UNL     1      36.918 -21.064 -19.967  0.00  0.00    +0.256 C 
ENDBRANCH  16  17
ENDBRANCH  14  16
BRANCH  14  19
ATOM     19  O   UNL     1      34.199 -19.932 -21.351  0.00  0.00    -0.436 OA
BRANCH  19  21
ATOM     20  O   UNL     1      32.139 -19.370 -20.470  0.00  0.00    -0.250 OA
ATOM     21  C   UNL     1      33.128 -20.088 -20.518  0.00  0.00    +0.318 C 
ATOM     22  C   UNL     1      33.333 -21.292 -19.648  0.00  0.00    +0.121 C 
ENDBRANCH  19  21
ENDBRANCH  14  19
ENDBRANCH   1  14
TORSDOF 8
ENDMDL
MODEL 4
REMARK VINA RESULT:      -7.0     16.247     18.234
REMARK  Name = 446501
REMARK  8 active torsions:
REMARK  status: ('A' for Active; 'I' for Inactive)
REMARK    1  A    between atoms: C_1  and  C_14
REMARK    2  A    between atoms: C_2  and  C_11
REMARK    3  A    between atoms: C_5  and  N_7
REMARK    4  A    between atoms: C_11  and  O_12
REMARK    5  A    between atoms: C_14  and  C_16
REMARK    6  A    between atoms: C_14  and  O_19
REMARK    7  A    between atoms: C_16  and  O_17
REMARK    8  A    between atoms: O_19  and  C_21
REMARK                            x       y       z     vdW  Elec       q    Type
REMARK                         _______ _______ _______ _____ _____    ______ ____
ROOT
ATOM      1  C   UNL     1      32.036  -7.935 -22.490  0.00  0.00    +0.035 C 
ATOM      2  C   UNL     1      31.946  -7.234 -21.287  0.00  0.00    +0.077 C 
ATOM      3  C   UNL     1      31.577  -7.354 -23.672  0.00  0.00    +0.001 C 
ATOM      4  C   UNL     1      31.399  -5.950 -21.266  0.00  0.00    +0.020 C 
ATOM      5  C   UNL     1      30.940  -5.369 -22.448  0.00  0.00    +0.042 C 
ATOM      6  C   UNL     1      31.029  -6.071 -23.651  0.00  0.00    +0.014 C 
ENDROOT
BRANCH   5   7
ATOM      7  N   UNL     1      30.387  -4.073 -22.428  0.00  0.00    -0.357 N 
ATOM      8  H   UNL     1      29.416  -3.953 -22.324  0.00  0.00    +0.142 HD
ATOM      9  H   UNL     1      30.973  -3.286 -22.518  0.00  0.00    +0.142 HD
ENDBRANCH   5   7
BRANCH   2  11
ATOM     10  O   UNL     1      31.866  -8.745 -19.434  0.00  0.00    -0.245 OA
ATOM     11  C   UNL     1      32.414  -7.819 -20.038  0.00  0.00    +0.338 C 
BRANCH  11  12
ATOM     12  O   UNL     1      33.552  -7.229 -19.584  0.00  0.00    -0.477 OA
ATOM     13  H   UNL     1      34.384  -7.485 -19.932  0.00  0.00    +0.295 HD
ENDBRANCH  11  12
ENDBRANCH   2  11
BRANCH   1  14
ATOM     14  C   UNL     1      32.620  -9.310 -22.540  0.00  0.00    +0.289 C 
BRANCH  14  16
ATOM     15  O   UNL     1      34.804  -8.913 -23.543  0.00  0.00    -0.246 OA
ATOM     16  C   UNL     1      33.710  -9.461 -23.590  0.00  0.00    +0.362 C 
BRANCH  16  17
ATOM     17  O   UNL     1      33.285 -10.309 -24.574  0.00  0.00    -0.442 OA
ATOM     18  C   UNL     1      34.241 -11.283 -25.005  0.00  0.00    +0.256 C 
ENDBRANCH  16  17
ENDBRANCH  14  16
BRANCH  14  19
ATOM     19  O   UNL     1      31.586 -10.248 -22.829  0.00  0.00    -0.436 OA
BRANCH  19  21
ATOM     20  O   UNL     1      32.289 -12.360 -22.210  0.00  0.00    -0.250 OA
ATOM     21  C   UNL     1      31.579 -11.376 -22.058  0.00  0.00    +0.318 C 
ATOM     22  C   UNL     1      30.557 -11.239 -20.970  0.00  0.00    +0.121 C 
ENDBRANCH  19  21
ENDBRANCH  14  19
ENDBRANCH   1  14
TORSDOF 8
ENDMDL
MODEL 5
REMARK VINA RESULT:      -6.8      7.689     10.143
REMARK  Name = 446501
REMARK  8 active torsions:
REMARK  status: ('A' for Active; 'I' for Inactive)
REMARK    1  A    between atoms: C_1  and  C_14
REMARK    2  A    between atoms: C_2  and  C_11
REMARK    3  A    between atoms: C_5  and  N_7
REMARK    4  A    between atoms: C_11  and  O_12
REMARK    5  A    between atoms: C_14  and  C_16
REMARK    6  A    between atoms: C_14  and  O_19
REMARK    7  A    between atoms: C_16  and  O_17
REMARK    8  A    between atoms: O_19  and  C_21
REMARK                            x       y       z     vdW  Elec       q    Type
REMARK                         _______ _______ _______ _____ _____    ______ ____
ROOT
ATOM      1  C   UNL     1      35.225 -19.084 -21.260  0.00  0.00    +0.035 C 
ATOM      2  C   UNL     1      34.385 -19.929 -20.534  0.00  0.00    +0.077 C 
ATOM      3  C   UNL     1      36.607 -19.162 -21.091  0.00  0.00    +0.001 C 
ATOM      4  C   UNL     1      34.927 -20.853 -19.641  0.00  0.00    +0.020 C 
ATOM      5  C   UNL     1      36.309 -20.932 -19.472  0.00  0.00    +0.042 C 
ATOM      6  C   UNL     1      37.149 -20.086 -20.197  0.00  0.00    +0.014 C 
ENDROOT
BRANCH   5   7
ATOM      7  N   UNL     1      36.858 -21.866 -18.570  0.00  0.00    -0.357 N 
ATOM      8  H   UNL     1      36.271 -22.346 -17.942  0.00  0.00    +0.142 HD
ATOM      9  H   UNL     1      37.827 -22.037 -18.568  0.00  0.00    +0.142 HD
ENDBRANCH   5   7
BRANCH   2  11
ATOM     10  O   UNL     1      32.269 -18.829 -20.721  0.00  0.00    -0.245 OA
ATOM     11  C   UNL     1      32.938 -19.865 -20.688  0.00  0.00    +0.338 C 
BRANCH  11  12
ATOM     12  O   UNL     1      32.373 -21.098 -20.797  0.00  0.00    -0.477 OA
ATOM     13  H   UNL     1      32.850 -21.857 -20.525  0.00  0.00    +0.295 HD
ENDBRANCH  11  12
ENDBRANCH   2  11
BRANCH   1  14
ATOM     14  C   UNL     1      34.671 -18.086 -22.225  0.00  0.00    +0.289 C 
BRANCH  14  16
ATOM     15  O   UNL     1      34.904 -19.580 -24.135  0.00  0.00    -0.246 OA
ATOM     16  C   UNL     1      34.939 -18.444 -23.679  0.00  0.00    +0.362 C 
BRANCH  16  17
ATOM     17  O   UNL     1      35.205 -17.307 -24.389  0.00  0.00    -0.442 OA
ATOM     18  C   UNL     1      34.171 -16.879 -25.281  0.00  0.00    +0.256 C 
ENDBRANCH  16  17
ENDBRANCH  14  16
BRANCH  14  19
ATOM     19  O   UNL     1      35.248 -16.809 -21.963  0.00  0.00    -0.436 OA
BRANCH  19  21
ATOM     20  O   UNL     1      34.944 -15.814 -19.900  0.00  0.00    -0.250 OA
ATOM     21  C   UNL     1      34.588 -16.038 -21.049  0.00  0.00    +0.318 C 
ATOM     22  C   UNL     1      33.336 -15.487 -21.662  0.00  0.00    +0.121 C 
ENDBRANCH  19  21
ENDBRANCH  14  19
ENDBRANCH   1  14
TORSDOF 8
ENDMDL
MODEL 6
REMARK VINA RESULT:      -6.8      1.936      4.268
REMARK  Name = 446501
REMARK  8 active torsions:
REMARK  status: ('A' for Active; 'I' for Inactive)
REMARK    1  A    between atoms: C_1  and  C_14
REMARK    2  A    between atoms: C_2  and  C_11
REMARK    3  A    between atoms: C_5  and  N_7
REMARK    4  A    between atoms: C_11  and  O_12
REMARK    5  A    between atoms: C_14  and  C_16
REMARK    6  A    between atoms: C_14  and  O_19
REMARK    7  A    between atoms: C_16  and  O_17
REMARK    8  A    between atoms: O_19  and  C_21
REMARK                            x       y       z     vdW  Elec       q    Type
REMARK                         _______ _______ _______ _____ _____    ______ ____
ROOT
ATOM      1  C   UNL     1      35.280 -23.254 -16.199  0.00  0.00    +0.035 C 
ATOM      2  C   UNL     1      36.534 -22.666 -16.369  0.00  0.00    +0.077 C 
ATOM      3  C   UNL     1      34.285 -23.063 -17.158  0.00  0.00    +0.001 C 
ATOM      4  C   UNL     1      36.795 -21.890 -17.499  0.00  0.00    +0.020 C 
ATOM      5  C   UNL     1      35.800 -21.699 -18.458  0.00  0.00    +0.042 C 
ATOM      6  C   UNL     1      34.545 -22.286 -18.287  0.00  0.00    +0.014 C 
ENDROOT
BRANCH   5   7
ATOM      7  N   UNL     1      36.062 -20.915 -19.600  0.00  0.00    -0.357 N 
ATOM      8  H   UNL     1      36.488 -20.034 -19.504  0.00  0.00    +0.142 HD
ATOM      9  H   UNL     1      35.818 -21.250 -20.493  0.00  0.00    +0.142 HD
ENDBRANCH   5   7
BRANCH   2  11
ATOM     10  O   UNL     1      37.546 -22.455 -14.212  0.00  0.00    -0.245 OA
ATOM     11  C   UNL     1      37.589 -22.846 -15.381  0.00  0.00    +0.338 C 
BRANCH  11  12
ATOM     12  O   UNL     1      38.664 -23.511 -15.886  0.00  0.00    -0.477 OA
ATOM     13  H   UNL     1      38.665 -24.447 -15.915  0.00  0.00    +0.295 HD
ENDBRANCH  11  12
ENDBRANCH   2  11
BRANCH   1  14
ATOM     14  C   UNL     1      34.976 -24.091 -15.000  0.00  0.00    +0.289 C 
BRANCH  14  16
ATOM     15  O   UNL     1      35.786 -26.195 -15.925  0.00  0.00    -0.246 OA
ATOM     16  C   UNL     1      35.729 -25.413 -14.984  0.00  0.00    +0.362 C 
BRANCH  16  17
ATOM     17  O   UNL     1      36.337 -25.580 -13.771  0.00  0.00    -0.442 OA
ATOM     18  C   UNL     1      37.528 -26.373 -13.781  0.00  0.00    +0.256 C 
ENDBRANCH  16  17
ENDBRANCH  14  16
BRANCH  14  19
ATOM     19  O   UNL     1      33.578 -24.371 -14.965  0.00  0.00    -0.436 OA
BRANCH  19  21
ATOM     20  O   UNL     1      33.508 -23.962 -12.692  0.00  0.00    -0.250 OA
ATOM     21  C   UNL     1      33.011 -24.395 -13.723  0.00  0.00    +0.318 C 
ATOM     22  C   UNL     1      31.660 -25.040 -13.796  0.00  0.00    +0.121 C 
ENDBRANCH  19  21
ENDBRANCH  14  19
ENDBRANCH   1  14
TORSDOF 8
ENDMDL
MODEL 7
REMARK VINA RESULT:      -6.8      2.085      2.775
REMARK  Name = 446501
REMARK  8 active torsions:
REMARK  status: ('A' for Active; 'I' for Inactive)
REMARK    1  A    between atoms: C_1  and  C_14
REMARK    2  A    between atoms: C_2  and  C_11
REMARK    3  A    between atoms: C_5  and  N_7
REMARK    4  A    between atoms: C_11  and  O_12
REMARK    5  A    between atoms: C_14  and  C_16
REMARK    6  A    between atoms: C_14  and  O_19
REMARK    7  A    between atoms: C_16  and  O_17
REMARK    8  A    between atoms: O_19  and  C_21
REMARK                            x       y       z     vdW  Elec       q    Type
REMARK                         _______ _______ _______ _____ _____    ______ ____
ROOT
ATOM      1  C   UNL     1      34.803 -23.886 -15.346  0.00  0.00    +0.035 C 
ATOM      2  C   UNL     1      33.569 -23.884 -14.694  0.00  0.00    +0.077 C 
ATOM      3  C   UNL     1      34.894 -23.446 -16.667  0.00  0.00    +0.001 C 
ATOM      4  C   UNL     1      32.427 -23.439 -15.362  0.00  0.00    +0.020 C 
ATOM      5  C   UNL     1      32.519 -22.999 -16.682  0.00  0.00    +0.042 C 
ATOM      6  C   UNL     1      33.752 -23.002 -17.334  0.00  0.00    +0.014 C 
ENDROOT
BRANCH   5   7
ATOM      7  N   UNL     1      31.365 -22.550 -17.357  0.00  0.00    -0.357 N 
ATOM      8  H   UNL     1      30.483 -22.625 -16.927  0.00  0.00    +0.142 HD
ATOM      9  H   UNL     1      31.442 -22.161 -18.258  0.00  0.00    +0.142 HD
ENDBRANCH   5   7
BRANCH   2  11
ATOM     10  O   UNL     1      34.055 -23.875 -12.352  0.00  0.00    -0.245 OA
ATOM     11  C   UNL     1      33.445 -24.342 -13.317  0.00  0.00    +0.338 C 
BRANCH  11  12
ATOM     12  O   UNL     1      32.563 -25.370 -13.191  0.00  0.00    -0.477 OA
ATOM     13  H   UNL     1      31.890 -25.333 -12.540  0.00  0.00    +0.295 HD
ENDBRANCH  11  12
ENDBRANCH   2  11
BRANCH   1  14
ATOM     14  C   UNL     1      36.041 -24.355 -14.654  0.00  0.00    +0.289 C 
BRANCH  14  16
ATOM     15  O   UNL     1      37.609 -22.505 -14.893  0.00  0.00    -0.246 OA
ATOM     16  C   UNL     1      36.925 -23.216 -14.167  0.00  0.00    +0.362 C 
BRANCH  16  17
ATOM     17  O   UNL     1      36.822 -23.103 -12.809  0.00  0.00    -0.442 OA
ATOM     18  C   UNL     1      37.879 -23.707 -12.057  0.00  0.00    +0.256 C 
ENDBRANCH  16  17
ENDBRANCH  14  16
BRANCH  14  19
ATOM     19  O   UNL     1      36.802 -25.162 -15.549  0.00  0.00    -0.436 OA
BRANCH  19  21
ATOM     20  O   UNL     1      36.520 -27.380 -16.131  0.00  0.00    -0.250 OA
ATOM     21  C   UNL     1      36.766 -26.506 -15.311  0.00  0.00    +0.318 C 
ATOM     22  C   UNL     1      37.077 -26.773 -13.869  0.00  0.00    +0.121 C 
ENDBRANCH  19  21
ENDBRANCH  14  19
ENDBRANCH   1  14
TORSDOF 8
ENDMDL
MODEL 8
REMARK VINA RESULT:      -6.8      2.391      3.726
REMARK  Name = 446501
REMARK  8 active torsions:
REMARK  status: ('A' for Active; 'I' for Inactive)
REMARK    1  A    between atoms: C_1  and  C_14
REMARK    2  A    between atoms: C_2  and  C_11
REMARK    3  A    between atoms: C_5  and  N_7
REMARK    4  A    between atoms: C_11  and  O_12
REMARK    5  A    between atoms: C_14  and  C_16
REMARK    6  A    between atoms: C_14  and  O_19
REMARK    7  A    between atoms: C_16  and  O_17
REMARK    8  A    between atoms: O_19  and  C_21
REMARK                            x       y       z     vdW  Elec       q    Type
REMARK                         _______ _______ _______ _____ _____    ______ ____
ROOT
ATOM      1  C   UNL     1      34.883 -24.094 -14.576  0.00  0.00    +0.035 C 
ATOM      2  C   UNL     1      34.244 -23.916 -13.349  0.00  0.00    +0.077 C 
ATOM      3  C   UNL     1      34.184 -23.880 -15.764  0.00  0.00    +0.001 C 
ATOM      4  C   UNL     1      32.906 -23.522 -13.308  0.00  0.00    +0.020 C 
ATOM      5  C   UNL     1      32.207 -23.307 -14.496  0.00  0.00    +0.042 C 
ATOM      6  C   UNL     1      32.846 -23.486 -15.723  0.00  0.00    +0.014 C 
ENDROOT
BRANCH   5   7
ATOM      7  N   UNL     1      30.856 -22.908 -14.456  0.00  0.00    -0.357 N 
ATOM      8  H   UNL     1      30.242 -23.174 -15.178  0.00  0.00    +0.142 HD
ATOM      9  H   UNL     1      30.526 -22.362 -13.706  0.00  0.00    +0.142 HD
ENDBRANCH   5   7
BRANCH   2  11
ATOM     10  O   UNL     1      34.854 -25.147 -11.390  0.00  0.00    -0.245 OA
ATOM     11  C   UNL     1      34.950 -24.138 -12.094  0.00  0.00    +0.338 C 
BRANCH  11  12
ATOM     12  O   UNL     1      35.753 -23.092 -11.760  0.00  0.00    -0.477 OA
ATOM     13  H   UNL     1      35.625 -22.643 -10.949  0.00  0.00    +0.295 HD
ENDBRANCH  11  12
ENDBRANCH   2  11
BRANCH   1  14
ATOM     14  C   UNL     1      36.315 -24.514 -14.648  0.00  0.00    +0.289 C 
BRANCH  14  16
ATOM     15  O   UNL     1      37.760 -22.752 -13.785  0.00  0.00    -0.246 OA
ATOM     16  C   UNL     1      37.281 -23.343 -14.745  0.00  0.00    +0.362 C 
BRANCH  16  17
ATOM     17  O   UNL     1      37.538 -23.068 -16.059  0.00  0.00    -0.442 OA
ATOM     18  C   UNL     1      37.239 -21.734 -16.482  0.00  0.00    +0.256 C 
ENDBRANCH  16  17
ENDBRANCH  14  16
BRANCH  14  19
ATOM     19  O   UNL     1      36.504 -25.347 -15.789  0.00  0.00    -0.436 OA
BRANCH  19  21
ATOM     20  O   UNL     1      36.698 -27.588 -16.318  0.00  0.00    -0.250 OA
ATOM     21  C   UNL     1      36.776 -26.660 -15.525  0.00  0.00    +0.318 C 
ATOM     22  C   UNL     1      37.196 -26.811 -14.094  0.00  0.00    +0.121 C 
ENDBRANCH  19  21
ENDBRANCH  14  19
ENDBRANCH   1  14
TORSDOF 8
ENDMDL
MODEL 9
REMARK VINA RESULT:      -6.6     10.878     13.368
REMARK  Name = 446501
REMARK  8 active torsions:
REMARK  status: ('A' for Active; 'I' for Inactive)
REMARK    1  A    between atoms: C_1  and  C_14
REMARK    2  A    between atoms: C_2  and  C_11
REMARK    3  A    between atoms: C_5  and  N_7
REMARK    4  A    between atoms: C_11  and  O_12
REMARK    5  A    between atoms: C_14  and  C_16
REMARK    6  A    between atoms: C_14  and  O_19
REMARK    7  A    between atoms: C_16  and  O_17
REMARK    8  A    between atoms: O_19  and  C_21
REMARK                            x       y       z     vdW  Elec       q    Type
REMARK                         _______ _______ _______ _____ _____    ______ ____
ROOT
ATOM      1  C   UNL     1      34.335 -16.238 -23.045  0.00  0.00    +0.035 C 
ATOM      2  C   UNL     1      34.029 -16.360 -21.689  0.00  0.00    +0.077 C 
ATOM      3  C   UNL     1      35.299 -17.067 -23.619  0.00  0.00    +0.001 C 
ATOM      4  C   UNL     1      34.684 -17.313 -20.908  0.00  0.00    +0.020 C 
ATOM      5  C   UNL     1      35.648 -18.142 -21.482  0.00  0.00    +0.042 C 
ATOM      6  C   UNL     1      35.955 -18.019 -22.838  0.00  0.00    +0.014 C 
ENDROOT
BRANCH   5   7
ATOM      7  N   UNL     1      36.310 -19.104 -20.694  0.00  0.00    -0.357 N 
ATOM      8  H   UNL     1      36.567 -19.969 -21.087  0.00  0.00    +0.142 HD
ATOM      9  H   UNL     1      36.514 -18.912 -19.750  0.00  0.00    +0.142 HD
ENDBRANCH   5   7
BRANCH   2  11
ATOM     10  O   UNL     1      31.838 -15.787 -20.918  0.00  0.00    -0.245 OA
ATOM     11  C   UNL     1      33.029 -15.504 -21.064  0.00  0.00    +0.338 C 
BRANCH  11  12
ATOM     12  O   UNL     1      33.553 -14.322 -20.640  0.00  0.00    -0.477 OA
ATOM     13  H   UNL     1      34.469 -14.255 -20.455  0.00  0.00    +0.295 HD
ENDBRANCH  11  12
ENDBRANCH   2  11
BRANCH   1  14
ATOM     14  C   UNL     1      33.647 -15.228 -23.904  0.00  0.00    +0.289 C 
BRANCH  14  16
ATOM     15  O   UNL     1      34.470 -16.353 -25.903  0.00  0.00    -0.246 OA
ATOM     16  C   UNL     1      33.672 -15.581 -25.384  0.00  0.00    +0.362 C 
BRANCH  16  17
ATOM     17  O   UNL     1      32.666 -14.921 -26.031  0.00  0.00    -0.442 OA
ATOM     18  C   UNL     1      33.079 -14.036 -27.076  0.00  0.00    +0.256 C 
ENDBRANCH  16  17
ENDBRANCH  14  16
BRANCH  14  19
ATOM     19  O   UNL     1      34.277 -13.960 -23.735  0.00  0.00    -0.436 OA
BRANCH  19  21
ATOM     20  O   UNL     1      32.384 -12.858 -23.000  0.00  0.00    -0.250 OA
ATOM     21  C   UNL     1      33.434 -12.891 -23.627  0.00  0.00    +0.318 C 
ATOM     22  C   UNL     1      33.986 -11.731 -24.400  0.00  0.00    +0.121 C 
ENDBRANCH  19  21
ENDBRANCH  14  19
ENDBRANCH   1  14
TORSDOF 8
ENDMDL
