MODEL 1
REMARK VINA RESULT:     -10.6      0.000      0.000
REMARK  Name = 24755476
REMARK  3 active torsions:
REMARK  status: ('A' for Active; 'I' for Inactive)
REMARK    1  A    between atoms: N_2  and  C_24
REMARK    2  A    between atoms: C_5  and  C_14
REMARK    3  A    between atoms: C_15  and  C_18
REMARK                            x       y       z     vdW  Elec       q    Type
REMARK                         _______ _______ _______ _____ _____    ______ ____
ROOT
ATOM      1  S   UNL     1      33.612 -21.250 -19.682  0.00  0.00    -0.038 S 
ATOM      2  N   UNL     1      34.867 -22.503 -17.707  0.00  0.00    -0.305 N 
ATOM      3  N   UNL     1      36.107 -21.025 -19.067  0.00  0.00    -0.384 NA
ATOM      4  C   UNL     1      34.572 -20.184 -20.638  0.00  0.00    +0.059 C 
ATOM      5  C   UNL     1      35.165 -18.604 -22.352  0.00  0.00    +0.007 C 
ATOM      6  C   UNL     1      35.885 -20.195 -20.157  0.00  0.00    +0.122 C 
ATOM      7  C   UNL     1      34.988 -21.624 -18.736  0.00  0.00    +0.211 C 
ATOM      8  C   UNL     1      34.192 -19.395 -21.736  0.00  0.00    +0.007 C 
ATOM      9  C   UNL     1      36.477 -18.598 -21.891  0.00  0.00    -0.020 C 
ATOM     10  C   UNL     1      36.849 -19.387 -20.798  0.00  0.00    +0.085 C 
ATOM     11  H   UNL     1      33.980 -22.897 -17.542  0.00  0.00    +0.150 HD
ENDROOT
BRANCH   5  14
ATOM     12  O   UNL     1      35.092 -18.297 -24.709  0.00  0.00    -0.323 OA
ATOM     13  N   UNL     1      34.116 -16.278 -25.006  0.00  0.00    -0.241 NA
ATOM     14  C   UNL     1      34.801 -17.782 -23.482  0.00  0.00    +0.179 C 
ATOM     15  C   UNL     1      34.208 -16.558 -23.666  0.00  0.00    +0.090 C 
ATOM     16  C   UNL     1      34.651 -17.338 -25.569  0.00  0.00    +0.272 C 
BRANCH  15  18
ATOM     17  F   UNL     1      32.656 -14.294 -24.224  0.00  0.00    -0.204 F 
ATOM     18  C   UNL     1      33.747 -15.685 -22.633  0.00  0.00    +0.043 C 
ATOM     19  C   UNL     1      32.975 -14.567 -22.950  0.00  0.00    +0.141 C 
ATOM     20  C   UNL     1      34.070 -15.954 -21.303  0.00  0.00    +0.003 C 
ATOM     21  C   UNL     1      32.525 -13.719 -21.938  0.00  0.00    +0.030 C 
ATOM     22  C   UNL     1      33.621 -15.106 -20.290  0.00  0.00    +0.000 C 
ATOM     23  C   UNL     1      32.849 -13.989 -20.608  0.00  0.00    +0.002 C 
ENDBRANCH  15  18
ENDBRANCH   5  14
BRANCH   2  24
ATOM     24  C   UNL     1      35.961 -22.906 -16.830  0.00  0.00    +0.072 C 
ATOM     25  C   UNL     1      36.798 -21.687 -16.467  0.00  0.00    +0.021 C 
ATOM     26  C   UNL     1      35.388 -23.576 -15.588  0.00  0.00    +0.021 C 
ENDBRANCH   2  24
TORSDOF 3
ENDMDL
MODEL 2
REMARK VINA RESULT:     -10.6      4.473      8.973
REMARK  Name = 24755476
REMARK  3 active torsions:
REMARK  status: ('A' for Active; 'I' for Inactive)
REMARK    1  A    between atoms: N_2  and  C_24
REMARK    2  A    between atoms: C_5  and  C_14
REMARK    3  A    between atoms: C_15  and  C_18
REMARK                            x       y       z     vdW  Elec       q    Type
REMARK                         _______ _______ _______ _____ _____    ______ ____
ROOT
ATOM      1  S   UNL     1      36.442 -20.577 -20.117  0.00  0.00    -0.038 S 
ATOM      2  N   UNL     1      35.652 -19.125 -22.194  0.00  0.00    -0.305 N 
ATOM      3  N   UNL     1      34.009 -20.214 -20.894  0.00  0.00    -0.384 NA
ATOM      4  C   UNL     1      35.195 -21.346 -19.208  0.00  0.00    +0.059 C 
ATOM      5  C   UNL     1      34.133 -22.678 -17.510  0.00  0.00    +0.007 C 
ATOM      6  C   UNL     1      33.956 -21.035 -19.777  0.00  0.00    +0.122 C 
ATOM      7  C   UNL     1      35.259 -19.915 -21.161  0.00  0.00    +0.211 C 
ATOM      8  C   UNL     1      35.305 -22.167 -18.074  0.00  0.00    +0.007 C 
ATOM      9  C   UNL     1      32.889 -22.381 -18.057  0.00  0.00    -0.020 C 
ATOM     10  C   UNL     1      32.788 -21.564 -19.187  0.00  0.00    +0.085 C 
ATOM     11  H   UNL     1      36.617 -18.961 -22.305  0.00  0.00    +0.150 HD
ENDROOT
BRANCH   5  14
ATOM     12  O   UNL     1      35.463 -23.968 -16.021  0.00  0.00    -0.323 OA
ATOM     13  N   UNL     1      34.005 -24.794 -14.500  0.00  0.00    -0.241 NA
ATOM     14  C   UNL     1      34.216 -23.522 -16.342  0.00  0.00    +0.179 C 
ATOM     15  C   UNL     1      33.335 -24.025 -15.418  0.00  0.00    +0.090 C 
ATOM     16  C   UNL     1      35.253 -24.723 -14.906  0.00  0.00    +0.272 C 
BRANCH  15  18
ATOM     17  F   UNL     1      32.208 -21.894 -13.992  0.00  0.00    -0.204 F 
ATOM     18  C   UNL     1      31.925 -23.795 -15.392  0.00  0.00    +0.043 C 
ATOM     19  C   UNL     1      31.401 -22.722 -14.671  0.00  0.00    +0.141 C 
ATOM     20  C   UNL     1      31.071 -24.648 -16.092  0.00  0.00    +0.003 C 
ATOM     21  C   UNL     1      30.024 -22.501 -14.651  0.00  0.00    +0.030 C 
ATOM     22  C   UNL     1      29.693 -24.427 -16.072  0.00  0.00    +0.000 C 
ATOM     23  C   UNL     1      29.171 -23.354 -15.351  0.00  0.00    +0.002 C 
ENDBRANCH  15  18
ENDBRANCH   5  14
BRANCH   2  24
ATOM     24  C   UNL     1      34.745 -18.503 -23.152  0.00  0.00    +0.072 C 
ATOM     25  C   UNL     1      35.125 -17.040 -23.338  0.00  0.00    +0.021 C 
ATOM     26  C   UNL     1      34.808 -19.264 -24.470  0.00  0.00    +0.021 C 
ENDBRANCH   2  24
TORSDOF 3
ENDMDL
MODEL 3
REMARK VINA RESULT:     -10.5      1.717      2.397
REMARK  Name = 24755476
REMARK  3 active torsions:
REMARK  status: ('A' for Active; 'I' for Inactive)
REMARK    1  A    between atoms: N_2  and  C_24
REMARK    2  A    between atoms: C_5  and  C_14
REMARK    3  A    between atoms: C_15  and  C_18
REMARK                            x       y       z     vdW  Elec       q    Type
REMARK                         _______ _______ _______ _____ _____    ______ ____
ROOT
ATOM      1  S   UNL     1      36.632 -21.531 -18.820  0.00  0.00    -0.038 S 
ATOM      2  N   UNL     1      35.762 -22.987 -16.778  0.00  0.00    -0.305 N 
ATOM      3  N   UNL     1      34.170 -22.028 -18.234  0.00  0.00    -0.384 NA
ATOM      4  C   UNL     1      35.421 -20.858 -19.846  0.00  0.00    +0.059 C 
ATOM      5  C   UNL     1      34.425 -19.629 -21.657  0.00  0.00    +0.007 C 
ATOM      6  C   UNL     1      34.160 -21.234 -19.372  0.00  0.00    +0.122 C 
ATOM      7  C   UNL     1      35.409 -22.244 -17.860  0.00  0.00    +0.211 C 
ATOM      8  C   UNL     1      35.574 -20.055 -20.988  0.00  0.00    +0.007 C 
ATOM      9  C   UNL     1      33.160 -19.991 -21.206  0.00  0.00    -0.020 C 
ATOM     10  C   UNL     1      33.015 -20.789 -20.067  0.00  0.00    +0.085 C 
ATOM     11  H   UNL     1      36.722 -23.089 -16.586  0.00  0.00    +0.150 HD
ENDROOT
BRANCH   5  14
ATOM     12  O   UNL     1      34.896 -19.455 -23.981  0.00  0.00    -0.323 OA
ATOM     13  N   UNL     1      34.669 -17.257 -24.462  0.00  0.00    -0.241 NA
ATOM     14  C   UNL     1      34.554 -18.804 -22.835  0.00  0.00    +0.179 C 
ATOM     15  C   UNL     1      34.416 -17.470 -23.131  0.00  0.00    +0.090 C 
ATOM     16  C   UNL     1      34.945 -18.461 -24.910  0.00  0.00    +0.272 C 
BRANCH  15  18
ATOM     17  F   UNL     1      35.809 -17.092 -20.731  0.00  0.00    -0.204 F 
ATOM     18  C   UNL     1      34.063 -16.438 -22.207  0.00  0.00    +0.043 C 
ATOM     19  C   UNL     1      34.781 -16.280 -21.022  0.00  0.00    +0.141 C 
ATOM     20  C   UNL     1      32.996 -15.587 -22.494  0.00  0.00    +0.003 C 
ATOM     21  C   UNL     1      34.434 -15.271 -20.125  0.00  0.00    +0.030 C 
ATOM     22  C   UNL     1      32.647 -14.577 -21.597  0.00  0.00    +0.000 C 
ATOM     23  C   UNL     1      33.366 -14.420 -20.412  0.00  0.00    +0.002 C 
ENDBRANCH  15  18
ENDBRANCH   5  14
BRANCH   2  24
ATOM     24  C   UNL     1      34.818 -23.644 -15.882  0.00  0.00    +0.072 C 
ATOM     25  C   UNL     1      35.420 -24.948 -15.375  0.00  0.00    +0.021 C 
ATOM     26  C   UNL     1      34.481 -22.705 -14.732  0.00  0.00    +0.021 C 
ENDBRANCH   2  24
TORSDOF 3
ENDMDL
MODEL 4
REMARK VINA RESULT:     -10.5      3.204      4.874
REMARK  Name = 24755476
REMARK  3 active torsions:
REMARK  status: ('A' for Active; 'I' for Inactive)
REMARK    1  A    between atoms: N_2  and  C_24
REMARK    2  A    between atoms: C_5  and  C_14
REMARK    3  A    between atoms: C_15  and  C_18
REMARK                            x       y       z     vdW  Elec       q    Type
REMARK                         _______ _______ _______ _____ _____    ______ ____
ROOT
ATOM      1  S   UNL     1      34.848 -17.910 -23.453  0.00  0.00    -0.038 S 
ATOM      2  N   UNL     1      35.177 -19.741 -21.560  0.00  0.00    -0.305 N 
ATOM      3  N   UNL     1      34.699 -17.523 -20.907  0.00  0.00    -0.384 NA
ATOM      4  C   UNL     1      34.501 -16.310 -22.912  0.00  0.00    +0.059 C 
ATOM      5  C   UNL     1      34.015 -13.956 -22.990  0.00  0.00    +0.007 C 
ATOM      6  C   UNL     1      34.461 -16.298 -21.514  0.00  0.00    +0.122 C 
ATOM      7  C   UNL     1      34.914 -18.435 -21.826  0.00  0.00    +0.211 C 
ATOM      8  C   UNL     1      34.280 -15.147 -23.668  0.00  0.00    +0.007 C 
ATOM      9  C   UNL     1      33.969 -13.920 -21.601  0.00  0.00    -0.020 C 
ATOM     10  C   UNL     1      34.190 -15.081 -20.853  0.00  0.00    +0.085 C 
ATOM     11  H   UNL     1      35.322 -20.345 -22.325  0.00  0.00    +0.150 HD
ENDROOT
BRANCH   5  14
ATOM     12  O   UNL     1      34.325 -12.712 -24.992  0.00  0.00    -0.323 OA
ATOM     13  N   UNL     1      33.245 -10.756 -24.641  0.00  0.00    -0.241 NA
ATOM     14  C   UNL     1      33.782 -12.746 -23.744  0.00  0.00    +0.179 C 
ATOM     15  C   UNL     1      33.128 -11.558 -23.534  0.00  0.00    +0.090 C 
ATOM     16  C   UNL     1      33.959 -11.489 -25.465  0.00  0.00    +0.272 C 
BRANCH  15  18
ATOM     17  F   UNL     1      33.318  -8.987 -22.439  0.00  0.00    -0.204 F 
ATOM     18  C   UNL     1      32.421 -11.188 -22.348  0.00  0.00    +0.043 C 
ATOM     19  C   UNL     1      32.540  -9.897 -21.833  0.00  0.00    +0.141 C 
ATOM     20  C   UNL     1      31.609 -12.122 -21.705  0.00  0.00    +0.003 C 
ATOM     21  C   UNL     1      31.846  -9.540 -20.677  0.00  0.00    +0.030 C 
ATOM     22  C   UNL     1      30.915 -11.766 -20.548  0.00  0.00    +0.000 C 
ATOM     23  C   UNL     1      31.035 -10.475 -20.034  0.00  0.00    +0.002 C 
ENDBRANCH  15  18
ENDBRANCH   5  14
BRANCH   2  24
ATOM     24  C   UNL     1      35.262 -20.313 -20.221  0.00  0.00    +0.072 C 
ATOM     25  C   UNL     1      33.933 -20.963 -19.859  0.00  0.00    +0.021 C 
ATOM     26  C   UNL     1      36.403 -21.320 -20.176  0.00  0.00    +0.021 C 
ENDBRANCH   2  24
TORSDOF 3
ENDMDL
MODEL 5
REMARK VINA RESULT:     -10.4      6.914     10.279
REMARK  Name = 24755476
REMARK  3 active torsions:
REMARK  status: ('A' for Active; 'I' for Inactive)
REMARK    1  A    between atoms: N_2  and  C_24
REMARK    2  A    between atoms: C_5  and  C_14
REMARK    3  A    between atoms: C_15  and  C_18
REMARK                            x       y       z     vdW  Elec       q    Type
REMARK                         _______ _______ _______ _____ _____    ______ ____
ROOT
ATOM      1  S   UNL     1      32.131 -12.935 -22.423  0.00  0.00    -0.038 S 
ATOM      2  N   UNL     1      33.316 -14.979 -23.632  0.00  0.00    -0.305 N 
ATOM      3  N   UNL     1      34.013 -12.791 -24.181  0.00  0.00    -0.384 NA
ATOM      4  C   UNL     1      32.684 -11.363 -22.867  0.00  0.00    +0.059 C 
ATOM      5  C   UNL     1      32.865  -8.966 -22.921  0.00  0.00    +0.007 C 
ATOM      6  C   UNL     1      33.698 -11.488 -23.822  0.00  0.00    +0.122 C 
ATOM      7  C   UNL     1      33.255 -13.627 -23.511  0.00  0.00    +0.211 C 
ATOM      8  C   UNL     1      32.254 -10.110 -22.403  0.00  0.00    +0.007 C 
ATOM      9  C   UNL     1      33.876  -9.065 -23.872  0.00  0.00    -0.020 C 
ATOM     10  C   UNL     1      34.299 -10.316 -24.330  0.00  0.00    +0.085 C 
ATOM     11  H   UNL     1      32.703 -15.517 -23.081  0.00  0.00    +0.150 HD
ENDROOT
BRANCH   5  14
ATOM     12  O   UNL     1      31.915  -7.621 -21.206  0.00  0.00    -0.323 OA
ATOM     13  N   UNL     1      31.894  -5.523 -22.051  0.00  0.00    -0.241 NA
ATOM     14  C   UNL     1      32.443  -7.664 -22.461  0.00  0.00    +0.179 C 
ATOM     15  C   UNL     1      32.428  -6.390 -22.971  0.00  0.00    +0.090 C 
ATOM     16  C   UNL     1      31.611  -6.305 -21.034  0.00  0.00    +0.272 C 
BRANCH  15  18
ATOM     17  F   UNL     1      30.813  -4.959 -24.757  0.00  0.00    -0.204 F 
ATOM     18  C   UNL     1      32.895  -5.998 -24.263  0.00  0.00    +0.043 C 
ATOM     19  C   UNL     1      32.061  -5.285 -25.125  0.00  0.00    +0.141 C 
ATOM     20  C   UNL     1      34.189  -6.329 -24.663  0.00  0.00    +0.003 C 
ATOM     21  C   UNL     1      32.522  -4.903 -26.385  0.00  0.00    +0.030 C 
ATOM     22  C   UNL     1      34.651  -5.948 -25.923  0.00  0.00    +0.000 C 
ATOM     23  C   UNL     1      33.817  -5.235 -26.783  0.00  0.00    +0.002 C 
ENDBRANCH  15  18
ENDBRANCH   5  14
BRANCH   2  24
ATOM     24  C   UNL     1      34.226 -15.690 -24.522  0.00  0.00    +0.072 C 
ATOM     25  C   UNL     1      34.697 -16.974 -23.851  0.00  0.00    +0.021 C 
ATOM     26  C   UNL     1      33.518 -15.980 -25.839  0.00  0.00    +0.021 C 
ENDBRANCH   2  24
TORSDOF 3
ENDMDL
MODEL 6
REMARK VINA RESULT:     -10.4      4.389      8.872
REMARK  Name = 24755476
REMARK  3 active torsions:
REMARK  status: ('A' for Active; 'I' for Inactive)
REMARK    1  A    between atoms: N_2  and  C_24
REMARK    2  A    between atoms: C_5  and  C_14
REMARK    3  A    between atoms: C_15  and  C_18
REMARK                            x       y       z     vdW  Elec       q    Type
REMARK                         _______ _______ _______ _____ _____    ______ ____
ROOT
ATOM      1  S   UNL     1      33.296 -20.997 -20.247  0.00  0.00    -0.038 S 
ATOM      2  N   UNL     1      34.189 -19.295 -22.077  0.00  0.00    -0.305 N 
ATOM      3  N   UNL     1      35.698 -20.075 -20.436  0.00  0.00    -0.384 NA
ATOM      4  C   UNL     1      34.445 -21.530 -19.077  0.00  0.00    +0.059 C 
ATOM      5  C   UNL     1      35.366 -22.694 -17.185  0.00  0.00    +0.007 C 
ATOM      6  C   UNL     1      35.679 -20.927 -19.342  0.00  0.00    +0.122 C 
ATOM      7  C   UNL     1      34.505 -20.037 -20.983  0.00  0.00    +0.211 C 
ATOM      8  C   UNL     1      34.269 -22.417 -18.003  0.00  0.00    +0.007 C 
ATOM      9  C   UNL     1      36.604 -22.107 -17.429  0.00  0.00    -0.020 C 
ATOM     10  C   UNL     1      36.772 -21.224 -18.499  0.00  0.00    +0.085 C 
ATOM     11  H   UNL     1      33.264 -19.339 -22.409  0.00  0.00    +0.150 HD
ENDROOT
BRANCH   5  14
ATOM     12  O   UNL     1      36.339 -24.268 -15.693  0.00  0.00    -0.323 OA
ATOM     13  N   UNL     1      34.645 -24.920 -14.343  0.00  0.00    -0.241 NA
ATOM     14  C   UNL     1      35.213 -23.603 -16.075  0.00  0.00    +0.179 C 
ATOM     15  C   UNL     1      34.188 -24.001 -15.253  0.00  0.00    +0.090 C 
ATOM     16  C   UNL     1      35.918 -25.037 -14.651  0.00  0.00    +0.272 C 
BRANCH  15  18
ATOM     17  F   UNL     1      32.788 -23.203 -12.962  0.00  0.00    -0.204 F 
ATOM     18  C   UNL     1      32.836 -23.541 -15.316  0.00  0.00    +0.043 C 
ATOM     19  C   UNL     1      32.173 -23.150 -14.153  0.00  0.00    +0.141 C 
ATOM     20  C   UNL     1      32.181 -23.481 -16.546  0.00  0.00    +0.003 C 
ATOM     21  C   UNL     1      30.854 -22.700 -14.219  0.00  0.00    +0.030 C 
ATOM     22  C   UNL     1      30.862 -23.030 -16.613  0.00  0.00    +0.000 C 
ATOM     23  C   UNL     1      30.199 -22.641 -15.450  0.00  0.00    +0.002 C 
ENDBRANCH  15  18
ENDBRANCH   5  14
BRANCH   2  24
ATOM     24  C   UNL     1      35.126 -18.436 -22.793  0.00  0.00    +0.072 C 
ATOM     25  C   UNL     1      34.819 -18.478 -24.284  0.00  0.00    +0.021 C 
ATOM     26  C   UNL     1      35.026 -17.018 -22.246  0.00  0.00    +0.021 C 
ENDBRANCH   2  24
TORSDOF 3
ENDMDL
MODEL 7
REMARK VINA RESULT:     -10.3      4.053      6.385
REMARK  Name = 24755476
REMARK  3 active torsions:
REMARK  status: ('A' for Active; 'I' for Inactive)
REMARK    1  A    between atoms: N_2  and  C_24
REMARK    2  A    between atoms: C_5  and  C_14
REMARK    3  A    between atoms: C_15  and  C_18
REMARK                            x       y       z     vdW  Elec       q    Type
REMARK                         _______ _______ _______ _____ _____    ______ ____
ROOT
ATOM      1  S   UNL     1      34.391 -16.156 -23.946  0.00  0.00    -0.038 S 
ATOM      2  N   UNL     1      35.174 -18.467 -22.902  0.00  0.00    -0.305 N 
ATOM      3  N   UNL     1      34.137 -16.887 -21.486  0.00  0.00    -0.384 NA
ATOM      4  C   UNL     1      33.641 -15.045 -22.862  0.00  0.00    +0.059 C 
ATOM      5  C   UNL     1      32.565 -13.049 -22.062  0.00  0.00    +0.007 C 
ATOM      6  C   UNL     1      33.593 -15.614 -21.585  0.00  0.00    +0.122 C 
ATOM      7  C   UNL     1      34.583 -17.267 -22.660  0.00  0.00    +0.211 C 
ATOM      8  C   UNL     1      33.132 -13.762 -23.120  0.00  0.00    +0.007 C 
ATOM      9  C   UNL     1      32.505 -13.594 -20.784  0.00  0.00    -0.020 C 
ATOM     10  C   UNL     1      33.015 -14.872 -20.533  0.00  0.00    +0.085 C 
ATOM     11  H   UNL     1      35.472 -18.654 -23.821  0.00  0.00    +0.150 HD
ENDROOT
BRANCH   5  14
ATOM     12  O   UNL     1      30.950 -11.381 -21.550  0.00  0.00    -0.323 OA
ATOM     13  N   UNL     1      31.455  -9.641 -22.904  0.00  0.00    -0.241 NA
ATOM     14  C   UNL     1      32.032 -11.728 -22.300  0.00  0.00    +0.179 C 
ATOM     15  C   UNL     1      32.335 -10.670 -23.120  0.00  0.00    +0.090 C 
ATOM     16  C   UNL     1      30.663 -10.118 -21.969  0.00  0.00    +0.272 C 
BRANCH  15  18
ATOM     17  F   UNL     1      34.328  -8.705 -23.004  0.00  0.00    -0.204 F 
ATOM     18  C   UNL     1      33.405 -10.623 -24.067  0.00  0.00    +0.043 C 
ATOM     19  C   UNL     1      34.380  -9.629 -23.976  0.00  0.00    +0.141 C 
ATOM     20  C   UNL     1      33.474 -11.574 -25.084  0.00  0.00    +0.003 C 
ATOM     21  C   UNL     1      35.423  -9.587 -24.901  0.00  0.00    +0.030 C 
ATOM     22  C   UNL     1      34.517 -11.534 -26.010  0.00  0.00    +0.000 C 
ATOM     23  C   UNL     1      35.491 -10.540 -25.918  0.00  0.00    +0.002 C 
ENDBRANCH  15  18
ENDBRANCH   5  14
BRANCH   2  24
ATOM     24  C   UNL     1      35.397 -19.497 -21.894  0.00  0.00    +0.072 C 
ATOM     25  C   UNL     1      36.489 -19.043 -20.934  0.00  0.00    +0.021 C 
ATOM     26  C   UNL     1      34.092 -19.772 -21.158  0.00  0.00    +0.021 C 
ENDBRANCH   2  24
TORSDOF 3
ENDMDL
MODEL 8
REMARK VINA RESULT:     -10.3      5.468     11.067
REMARK  Name = 24755476
REMARK  3 active torsions:
REMARK  status: ('A' for Active; 'I' for Inactive)
REMARK    1  A    between atoms: N_2  and  C_24
REMARK    2  A    between atoms: C_5  and  C_14
REMARK    3  A    between atoms: C_15  and  C_18
REMARK                            x       y       z     vdW  Elec       q    Type
REMARK                         _______ _______ _______ _____ _____    ______ ____
ROOT
ATOM      1  S   UNL     1      36.804 -21.646 -17.646  0.00  0.00    -0.038 S 
ATOM      2  N   UNL     1      35.617 -20.908 -19.903  0.00  0.00    -0.305 N 
ATOM      3  N   UNL     1      34.371 -22.156 -18.333  0.00  0.00    -0.384 NA
ATOM      4  C   UNL     1      35.842 -22.555 -16.541  0.00  0.00    +0.059 C 
ATOM      5  C   UNL     1      35.224 -23.786 -14.570  0.00  0.00    +0.007 C 
ATOM      6  C   UNL     1      34.565 -22.729 -17.083  0.00  0.00    +0.122 C 
ATOM      7  C   UNL     1      35.476 -21.565 -18.722  0.00  0.00    +0.211 C 
ATOM      8  C   UNL     1      36.191 -23.076 -15.285  0.00  0.00    +0.007 C 
ATOM      9  C   UNL     1      33.946 -23.971 -15.089  0.00  0.00    -0.020 C 
ATOM     10  C   UNL     1      33.606 -23.450 -16.341  0.00  0.00    +0.085 C 
ATOM     11  H   UNL     1      36.490 -20.497 -20.097  0.00  0.00    +0.150 HD
ENDROOT
BRANCH   5  14
ATOM     12  O   UNL     1      34.612 -24.172 -12.306  0.00  0.00    -0.323 OA
ATOM     13  N   UNL     1      36.366 -25.281 -11.406  0.00  0.00    -0.241 NA
ATOM     14  C   UNL     1      35.555 -24.332 -13.276  0.00  0.00    +0.179 C 
ATOM     15  C   UNL     1      36.617 -25.005 -12.726  0.00  0.00    +0.090 C 
ATOM     16  C   UNL     1      35.172 -24.767 -11.216  0.00  0.00    +0.272 C 
BRANCH  15  18
ATOM     17  F   UNL     1      36.639 -26.969 -14.723  0.00  0.00    -0.204 F 
ATOM     18  C   UNL     1      37.818 -25.376 -13.407  0.00  0.00    +0.043 C 
ATOM     19  C   UNL     1      37.788 -26.359 -14.398  0.00  0.00    +0.141 C 
ATOM     20  C   UNL     1      39.022 -24.753 -13.080  0.00  0.00    +0.003 C 
ATOM     21  C   UNL     1      38.962 -26.716 -15.061  0.00  0.00    +0.030 C 
ATOM     22  C   UNL     1      40.196 -25.110 -13.743  0.00  0.00    +0.000 C 
ATOM     23  C   UNL     1      40.166 -26.092 -14.733  0.00  0.00    +0.002 C 
ENDBRANCH  15  18
ENDBRANCH   5  14
BRANCH   2  24
ATOM     24  C   UNL     1      34.565 -20.770 -20.903  0.00  0.00    +0.072 C 
ATOM     25  C   UNL     1      33.251 -20.424 -20.216  0.00  0.00    +0.021 C 
ATOM     26  C   UNL     1      34.965 -19.698 -21.908  0.00  0.00    +0.021 C 
ENDBRANCH   2  24
TORSDOF 3
ENDMDL
MODEL 9
REMARK VINA RESULT:     -10.3      4.928      9.339
REMARK  Name = 24755476
REMARK  3 active torsions:
REMARK  status: ('A' for Active; 'I' for Inactive)
REMARK    1  A    between atoms: N_2  and  C_24
REMARK    2  A    between atoms: C_5  and  C_14
REMARK    3  A    between atoms: C_15  and  C_18
REMARK                            x       y       z     vdW  Elec       q    Type
REMARK                         _______ _______ _______ _____ _____    ______ ____
ROOT
ATOM      1  S   UNL     1      31.301 -10.665 -21.695  0.00  0.00    -0.038 S 
ATOM      2  N   UNL     1      31.686  -8.107 -21.103  0.00  0.00    -0.305 N 
ATOM      3  N   UNL     1      33.020  -9.084 -22.789  0.00  0.00    -0.384 NA
ATOM      4  C   UNL     1      32.305 -11.320 -22.934  0.00  0.00    +0.059 C 
ATOM      5  C   UNL     1      33.249 -12.913 -24.468  0.00  0.00    +0.007 C 
ATOM      6  C   UNL     1      33.165 -10.320 -23.401  0.00  0.00    +0.122 C 
ATOM      7  C   UNL     1      32.074  -9.151 -21.881  0.00  0.00    +0.211 C 
ATOM      8  C   UNL     1      32.333 -12.624 -23.455  0.00  0.00    +0.007 C 
ATOM      9  C   UNL     1      34.113 -11.936 -24.950  0.00  0.00    -0.020 C 
ATOM     10  C   UNL     1      34.082 -10.640 -24.426  0.00  0.00    +0.085 C 
ATOM     11  H   UNL     1      30.964  -8.263 -20.453  0.00  0.00    +0.150 HD
ENDROOT
BRANCH   5  14
ATOM     12  O   UNL     1      32.938 -14.355 -26.332  0.00  0.00    -0.323 OA
ATOM     13  N   UNL     1      33.479 -16.417 -25.575  0.00  0.00    -0.241 NA
ATOM     14  C   UNL     1      33.297 -14.245 -25.023  0.00  0.00    +0.179 C 
ATOM     15  C   UNL     1      33.625 -15.498 -24.567  0.00  0.00    +0.090 C 
ATOM     16  C   UNL     1      33.074 -15.686 -26.589  0.00  0.00    +0.272 C 
BRANCH  15  18
ATOM     17  F   UNL     1      35.498 -17.522 -24.077  0.00  0.00    -0.204 F 
ATOM     18  C   UNL     1      34.057 -15.822 -23.244  0.00  0.00    +0.043 C 
ATOM     19  C   UNL     1      34.993 -16.836 -23.040  0.00  0.00    +0.141 C 
ATOM     20  C   UNL     1      33.542 -15.120 -22.155  0.00  0.00    +0.003 C 
ATOM     21  C   UNL     1      35.414 -17.148 -21.747  0.00  0.00    +0.030 C 
ATOM     22  C   UNL     1      33.962 -15.431 -20.861  0.00  0.00    +0.000 C 
ATOM     23  C   UNL     1      34.897 -16.445 -20.658  0.00  0.00    +0.002 C 
ENDBRANCH  15  18
ENDBRANCH   5  14
BRANCH   2  24
ATOM     24  C   UNL     1      32.265  -6.770 -21.163  0.00  0.00    +0.072 C 
ATOM     25  C   UNL     1      31.259  -5.806 -21.779  0.00  0.00    +0.021 C 
ATOM     26  C   UNL     1      32.666  -6.332 -19.761  0.00  0.00    +0.021 C 
ENDBRANCH   2  24
TORSDOF 3
ENDMDL
