MODEL 1
REMARK VINA RESULT:      -8.1      0.000      0.000
REMARK  Name = 447446
REMARK  0 active torsions:
REMARK  status: ('A' for Active; 'I' for Inactive)
REMARK                            x       y       z     vdW  Elec       q    Type
REMARK                         _______ _______ _______ _____ _____    ______ ____
ROOT
ATOM      1  O   UNL     1      37.603 -23.152 -17.187  0.00  0.00    -0.317 OA
ATOM      2  O   UNL     1      30.191 -22.727 -17.212  0.00  0.00    -0.270 OA
ATOM      3  O   UNL     1      31.523 -24.561 -13.204  0.00  0.00    -0.270 OA
ATOM      4  N   UNL     1      35.619 -22.083 -17.776  0.00  0.00    -0.304 N 
ATOM      5  N   UNL     1      36.467 -23.216 -15.181  0.00  0.00    -0.304 N 
ATOM      6  N   UNL     1      30.493 -23.715 -15.119  0.00  0.00    -0.248 N 
ATOM      7  C   UNL     1      37.061 -22.014 -17.844  0.00  0.00    +0.207 C 
ATOM      8  C   UNL     1      37.692 -22.791 -15.813  0.00  0.00    +0.207 C 
ATOM      9  C   UNL     1      34.757 -22.581 -16.837  0.00  0.00    +0.078 A 
ATOM     10  C   UNL     1      35.166 -23.137 -15.591  0.00  0.00    +0.078 A 
ATOM     11  C   UNL     1      37.638 -20.799 -17.144  0.00  0.00    +0.059 C 
ATOM     12  C   UNL     1      37.901 -21.283 -15.734  0.00  0.00    +0.059 C 
ATOM     13  C   UNL     1      33.327 -22.564 -17.070  0.00  0.00    +0.023 A 
ATOM     14  C   UNL     1      34.099 -23.623 -14.741  0.00  0.00    +0.023 A 
ATOM     15  C   UNL     1      34.738 -21.626 -18.757  0.00  0.00    +0.062 A 
ATOM     16  C   UNL     1      36.340 -23.799 -13.923  0.00  0.00    +0.062 A 
ATOM     17  C   UNL     1      33.388 -21.904 -18.380  0.00  0.00    +0.017 A 
ATOM     18  C   UNL     1      34.964 -24.062 -13.638  0.00  0.00    +0.017 A 
ATOM     19  C   UNL     1      32.337 -23.051 -16.221  0.00  0.00    +0.060 A 
ATOM     20  C   UNL     1      32.737 -23.602 -15.020  0.00  0.00    +0.060 A 
ATOM     21  C   UNL     1      35.034 -20.974 -19.971  0.00  0.00    +0.017 C 
ATOM     22  C   UNL     1      37.348 -24.116 -12.991  0.00  0.00    +0.017 C 
ATOM     23  C   UNL     1      30.885 -23.120 -16.295  0.00  0.00    +0.252 C 
ATOM     24  C   UNL     1      31.549 -24.034 -14.298  0.00  0.00    +0.252 C 
ATOM     25  C   UNL     1      32.369 -21.509 -19.284  0.00  0.00    +0.001 C 
ATOM     26  C   UNL     1      34.664 -24.665 -12.389  0.00  0.00    +0.001 C 
ATOM     27  C   UNL     1      33.994 -20.605 -20.825  0.00  0.00    +0.001 C 
ATOM     28  C   UNL     1      37.000 -24.708 -11.776  0.00  0.00    +0.001 C 
ATOM     29  C   UNL     1      32.677 -20.871 -20.488  0.00  0.00    +0.000 C 
ATOM     30  C   UNL     1      35.675 -24.981 -11.478  0.00  0.00    +0.000 C 
ATOM     31  H   UNL     1      29.553 -23.894 -14.889  0.00  0.00    +0.158 HD
ENDROOT
TORSDOF 0
ENDMDL
MODEL 2
REMARK VINA RESULT:      -7.3     11.766     15.545
REMARK  Name = 447446
REMARK  0 active torsions:
REMARK  status: ('A' for Active; 'I' for Inactive)
REMARK                            x       y       z     vdW  Elec       q    Type
REMARK                         _______ _______ _______ _____ _____    ______ ____
ROOT
ATOM      1  O   UNL     1      30.331 -11.159 -20.938  0.00  0.00    -0.317 OA
ATOM      2  O   UNL     1      35.568 -11.568 -26.185  0.00  0.00    -0.270 OA
ATOM      3  O   UNL     1      34.703  -7.124 -25.347  0.00  0.00    -0.270 OA
ATOM      4  N   UNL     1      32.194 -12.183 -21.893  0.00  0.00    -0.304 N 
ATOM      5  N   UNL     1      31.679  -9.327 -21.327  0.00  0.00    -0.304 N 
ATOM      6  N   UNL     1      35.360  -9.247 -26.059  0.00  0.00    -0.248 N 
ATOM      7  C   UNL     1      31.254 -12.231 -20.795  0.00  0.00    +0.207 C 
ATOM      8  C   UNL     1      30.948 -10.041 -20.308  0.00  0.00    +0.207 C 
ATOM      9  C   UNL     1      32.730 -11.148 -22.611  0.00  0.00    +0.078 A 
ATOM     10  C   UNL     1      32.474  -9.773 -22.345  0.00  0.00    +0.078 A 
ATOM     11  C   UNL     1      31.906 -12.057 -19.437  0.00  0.00    +0.059 C 
ATOM     12  C   UNL     1      31.848 -10.564 -19.196  0.00  0.00    +0.059 C 
ATOM     13  C   UNL     1      33.625 -11.411 -23.719  0.00  0.00    +0.023 A 
ATOM     14  C   UNL     1      33.128  -8.832 -23.230  0.00  0.00    +0.023 A 
ATOM     15  C   UNL     1      32.782 -13.290 -22.505  0.00  0.00    +0.062 A 
ATOM     16  C   UNL     1      31.768  -7.946 -21.473  0.00  0.00    +0.062 A 
ATOM     17  C   UNL     1      33.617 -12.873 -23.588  0.00  0.00    +0.017 A 
ATOM     18  C   UNL     1      32.601  -7.620 -22.588  0.00  0.00    +0.017 A 
ATOM     19  C   UNL     1      34.226 -10.468 -24.548  0.00  0.00    +0.060 A 
ATOM     20  C   UNL     1      33.966  -9.135 -24.297  0.00  0.00    +0.060 A 
ATOM     21  C   UNL     1      32.641 -14.655 -22.180  0.00  0.00    +0.017 C 
ATOM     22  C   UNL     1      31.173  -6.935 -20.691  0.00  0.00    +0.017 C 
ATOM     23  C   UNL     1      35.128 -10.551 -25.687  0.00  0.00    +0.252 C 
ATOM     24  C   UNL     1      34.696  -8.336 -25.270  0.00  0.00    +0.252 C 
ATOM     25  C   UNL     1      34.280 -13.889 -24.322  0.00  0.00    +0.001 C 
ATOM     26  C   UNL     1      32.789  -6.244 -22.877  0.00  0.00    +0.001 C 
ATOM     27  C   UNL     1      33.317 -15.614 -22.933  0.00  0.00    +0.001 C 
ATOM     28  C   UNL     1      31.389  -5.597 -21.017  0.00  0.00    +0.001 C 
ATOM     29  C   UNL     1      34.124 -15.239 -23.994  0.00  0.00    +0.000 C 
ATOM     30  C   UNL     1      32.186  -5.253 -22.097  0.00  0.00    +0.000 C 
ATOM     31  H   UNL     1      35.940  -8.992 -26.812  0.00  0.00    +0.158 HD
ENDROOT
TORSDOF 0
ENDMDL
MODEL 3
REMARK VINA RESULT:      -6.8      8.764     12.341
REMARK  Name = 447446
REMARK  0 active torsions:
REMARK  status: ('A' for Active; 'I' for Inactive)
REMARK                            x       y       z     vdW  Elec       q    Type
REMARK                         _______ _______ _______ _____ _____    ______ ____
ROOT
ATOM      1  O   UNL     1      34.071 -15.417 -20.123  0.00  0.00    -0.317 OA
ATOM      2  O   UNL     1      32.686 -10.709 -25.694  0.00  0.00    -0.270 OA
ATOM      3  O   UNL     1      34.166 -14.682 -27.490  0.00  0.00    -0.270 OA
ATOM      4  N   UNL     1      32.833 -13.692 -21.082  0.00  0.00    -0.304 N 
ATOM      5  N   UNL     1      33.737 -16.255 -22.246  0.00  0.00    -0.304 N 
ATOM      6  N   UNL     1      33.437 -12.535 -26.938  0.00  0.00    -0.248 N 
ATOM      7  C   UNL     1      32.963 -14.550 -19.925  0.00  0.00    +0.207 C 
ATOM      8  C   UNL     1      33.557 -16.533 -20.842  0.00  0.00    +0.207 C 
ATOM      9  C   UNL     1      33.094 -13.883 -22.412  0.00  0.00    +0.078 A 
ATOM     10  C   UNL     1      33.539 -15.114 -22.972  0.00  0.00    +0.078 A 
ATOM     11  C   UNL     1      31.756 -15.440 -19.700  0.00  0.00    +0.059 C 
ATOM     12  C   UNL     1      32.092 -16.705 -20.460  0.00  0.00    +0.059 C 
ATOM     13  C   UNL     1      32.918 -12.798 -23.357  0.00  0.00    +0.023 A 
ATOM     14  C   UNL     1      33.772 -15.105 -24.401  0.00  0.00    +0.023 A 
ATOM     15  C   UNL     1      32.391 -12.369 -21.065  0.00  0.00    +0.062 A 
ATOM     16  C   UNL     1      34.136 -17.158 -23.227  0.00  0.00    +0.062 A 
ATOM     17  C   UNL     1      32.440 -11.812 -22.380  0.00  0.00    +0.017 A 
ATOM     18  C   UNL     1      34.179 -16.513 -24.503  0.00  0.00    +0.017 A 
ATOM     19  C   UNL     1      33.163 -12.837 -24.727  0.00  0.00    +0.060 A 
ATOM     20  C   UNL     1      33.607 -14.028 -25.265  0.00  0.00    +0.060 A 
ATOM     21  C   UNL     1      31.939 -11.606 -19.969  0.00  0.00    +0.017 C 
ATOM     22  C   UNL     1      34.465 -18.521 -23.092  0.00  0.00    +0.017 C 
ATOM     23  C   UNL     1      33.049 -11.864 -25.803  0.00  0.00    +0.252 C 
ATOM     24  C   UNL     1      33.788 -13.843 -26.698  0.00  0.00    +0.252 C 
ATOM     25  C   UNL     1      32.031 -10.462 -22.527  0.00  0.00    +0.001 C 
ATOM     26  C   UNL     1      34.578 -17.299 -25.614  0.00  0.00    +0.001 C 
ATOM     27  C   UNL     1      31.546 -10.282 -20.168  0.00  0.00    +0.001 C 
ATOM     28  C   UNL     1      34.850 -19.251 -24.217  0.00  0.00    +0.001 C 
ATOM     29  C   UNL     1      31.594  -9.715 -21.430  0.00  0.00    +0.000 C 
ATOM     30  C   UNL     1      34.908 -18.649 -25.463  0.00  0.00    +0.000 C 
ATOM     31  H   UNL     1      33.462 -12.122 -27.831  0.00  0.00    +0.158 HD
ENDROOT
TORSDOF 0
ENDMDL
MODEL 4
REMARK VINA RESULT:      -6.8      1.012      5.607
REMARK  Name = 447446
REMARK  0 active torsions:
REMARK  status: ('A' for Active; 'I' for Inactive)
REMARK                            x       y       z     vdW  Elec       q    Type
REMARK                         _______ _______ _______ _____ _____    ______ ____
ROOT
ATOM      1  O   UNL     1      37.796 -21.621 -15.342  0.00  0.00    -0.317 OA
ATOM      2  O   UNL     1      31.436 -24.591 -12.923  0.00  0.00    -0.270 OA
ATOM      3  O   UNL     1      30.795 -23.110 -17.236  0.00  0.00    -0.270 OA
ATOM      4  N   UNL     1      36.621 -23.199 -14.094  0.00  0.00    -0.304 N 
ATOM      5  N   UNL     1      36.213 -22.295 -16.879  0.00  0.00    -0.304 N 
ATOM      6  N   UNL     1      30.742 -23.928 -15.050  0.00  0.00    -0.248 N 
ATOM      7  C   UNL     1      37.937 -22.748 -14.488  0.00  0.00    +0.207 C 
ATOM      8  C   UNL     1      37.631 -22.154 -16.651  0.00  0.00    +0.207 C 
ATOM      9  C   UNL     1      35.410 -23.198 -14.733  0.00  0.00    +0.078 A 
ATOM     10  C   UNL     1      35.211 -22.752 -16.071  0.00  0.00    +0.078 A 
ATOM     11  C   UNL     1      38.717 -23.786 -15.273  0.00  0.00    +0.059 C 
ATOM     12  C   UNL     1      38.371 -23.484 -16.715  0.00  0.00    +0.059 C 
ATOM     13  C   UNL     1      34.221 -23.673 -14.053  0.00  0.00    +0.023 A 
ATOM     14  C   UNL     1      33.849 -22.820 -16.558  0.00  0.00    +0.023 A 
ATOM     15  C   UNL     1      36.292 -23.762 -12.861  0.00  0.00    +0.062 A 
ATOM     16  C   UNL     1      35.530 -22.014 -18.059  0.00  0.00    +0.062 A 
ATOM     17  C   UNL     1      34.891 -24.040 -12.799  0.00  0.00    +0.017 A 
ATOM     18  C   UNL     1      34.137 -22.299 -17.901  0.00  0.00    +0.017 A 
ATOM     19  C   UNL     1      32.928 -23.712 -14.564  0.00  0.00    +0.060 A 
ATOM     20  C   UNL     1      32.735 -23.267 -15.857  0.00  0.00    +0.060 A 
ATOM     21  C   UNL     1      37.139 -24.056 -11.773  0.00  0.00    +0.017 C 
ATOM     22  C   UNL     1      36.037 -21.526 -19.280  0.00  0.00    +0.017 C 
ATOM     23  C   UNL     1      31.643 -24.142 -14.033  0.00  0.00    +0.252 C 
ATOM     24  C   UNL     1      31.323 -23.403 -16.181  0.00  0.00    +0.252 C 
ATOM     25  C   UNL     1      34.396 -24.607 -11.597  0.00  0.00    +0.001 C 
ATOM     26  C   UNL     1      33.295 -22.058 -19.018  0.00  0.00    +0.001 C 
ATOM     27  C   UNL     1      36.601 -24.615 -10.614  0.00  0.00    +0.001 C 
ATOM     28  C   UNL     1      35.168 -21.307 -20.347  0.00  0.00    +0.001 C 
ATOM     29  C   UNL     1      35.246 -24.885 -10.524  0.00  0.00    +0.000 C 
ATOM     30  C   UNL     1      33.813 -21.567 -20.220  0.00  0.00    +0.000 C 
ATOM     31  H   UNL     1      29.782 -24.129 -14.976  0.00  0.00    +0.158 HD
ENDROOT
TORSDOF 0
ENDMDL
MODEL 5
REMARK VINA RESULT:      -6.1      8.602     12.456
REMARK  Name = 447446
REMARK  0 active torsions:
REMARK  status: ('A' for Active; 'I' for Inactive)
REMARK                            x       y       z     vdW  Elec       q    Type
REMARK                         _______ _______ _______ _____ _____    ______ ____
ROOT
ATOM      1  O   UNL     1      32.224 -15.903 -20.495  0.00  0.00    -0.317 OA
ATOM      2  O   UNL     1      34.105 -14.625 -27.562  0.00  0.00    -0.270 OA
ATOM      3  O   UNL     1      32.641 -10.670 -25.715  0.00  0.00    -0.270 OA
ATOM      4  N   UNL     1      33.570 -16.297 -22.356  0.00  0.00    -0.304 N 
ATOM      5  N   UNL     1      32.677 -13.743 -21.165  0.00  0.00    -0.304 N 
ATOM      6  N   UNL     1      33.389 -12.481 -26.982  0.00  0.00    -0.248 N 
ATOM      7  C   UNL     1      33.340 -16.644 -20.971  0.00  0.00    +0.207 C 
ATOM      8  C   UNL     1      32.755 -14.658 -20.053  0.00  0.00    +0.207 C 
ATOM      9  C   UNL     1      33.393 -15.139 -23.064  0.00  0.00    +0.078 A 
ATOM     10  C   UNL     1      32.953 -13.911 -22.492  0.00  0.00    +0.078 A 
ATOM     11  C   UNL     1      34.505 -16.296 -20.064  0.00  0.00    +0.059 C 
ATOM     12  C   UNL     1      34.186 -14.896 -19.586  0.00  0.00    +0.059 C 
ATOM     13  C   UNL     1      33.661 -15.101 -24.488  0.00  0.00    +0.023 A 
ATOM     14  C   UNL     1      32.817 -12.803 -23.415  0.00  0.00    +0.023 A 
ATOM     15  C   UNL     1      34.046 -17.163 -23.340  0.00  0.00    +0.062 A 
ATOM     16  C   UNL     1      32.319 -12.399 -21.111  0.00  0.00    +0.062 A 
ATOM     17  C   UNL     1      34.099 -16.498 -24.604  0.00  0.00    +0.017 A 
ATOM     18  C   UNL     1      32.379 -11.819 -22.417  0.00  0.00    +0.017 A 
ATOM     19  C   UNL     1      33.507 -14.009 -25.337  0.00  0.00    +0.060 A 
ATOM     20  C   UNL     1      33.068 -12.823 -24.783  0.00  0.00    +0.060 A 
ATOM     21  C   UNL     1      34.444 -18.510 -23.211  0.00  0.00    +0.017 C 
ATOM     22  C   UNL     1      31.946 -11.628 -19.991  0.00  0.00    +0.017 C 
ATOM     23  C   UNL     1      33.719 -13.797 -26.761  0.00  0.00    +0.252 C 
ATOM     24  C   UNL     1      32.988 -11.827 -25.841  0.00  0.00    +0.252 C 
ATOM     25  C   UNL     1      34.553 -17.253 -25.715  0.00  0.00    +0.001 C 
ATOM     26  C   UNL     1      32.034 -10.448 -22.534  0.00  0.00    +0.001 C 
ATOM     27  C   UNL     1      34.885 -19.207 -24.336  0.00  0.00    +0.001 C 
ATOM     28  C   UNL     1      31.617 -10.284 -20.160  0.00  0.00    +0.001 C 
ATOM     29  C   UNL     1      34.937 -18.589 -25.574  0.00  0.00    +0.000 C 
ATOM     30  C   UNL     1      31.659  -9.699 -21.416  0.00  0.00    +0.000 C 
ATOM     31  H   UNL     1      33.435 -12.051 -27.867  0.00  0.00    +0.158 HD
ENDROOT
TORSDOF 0
ENDMDL
MODEL 6
REMARK VINA RESULT:      -6.1      1.589      6.110
REMARK  Name = 447446
REMARK  0 active torsions:
REMARK  status: ('A' for Active; 'I' for Inactive)
REMARK                            x       y       z     vdW  Elec       q    Type
REMARK                         _______ _______ _______ _____ _____    ______ ____
ROOT
ATOM      1  O   UNL     1      33.276 -25.386 -13.414  0.00  0.00    -0.317 OA
ATOM      2  O   UNL     1      36.827 -21.987 -18.978  0.00  0.00    -0.270 OA
ATOM      3  O   UNL     1      32.296 -21.515 -19.649  0.00  0.00    -0.270 OA
ATOM      4  N   UNL     1      35.066 -24.144 -14.241  0.00  0.00    -0.304 N 
ATOM      5  N   UNL     1      32.159 -23.794 -14.655  0.00  0.00    -0.304 N 
ATOM      6  N   UNL     1      34.629 -21.596 -19.656  0.00  0.00    -0.248 N 
ATOM      7  C   UNL     1      34.492 -24.741 -13.056  0.00  0.00    +0.207 C 
ATOM      8  C   UNL     1      32.275 -24.376 -13.340  0.00  0.00    +0.207 C 
ATOM      9  C   UNL     1      34.510 -23.587 -15.362  0.00  0.00    +0.078 A 
ATOM     10  C   UNL     1      33.109 -23.429 -15.566  0.00  0.00    +0.078 A 
ATOM     11  C   UNL     1      34.141 -23.728 -11.983  0.00  0.00    +0.059 C 
ATOM     12  C   UNL     1      32.703 -23.364 -12.285  0.00  0.00    +0.059 C 
ATOM     13  C   UNL     1      35.353 -23.108 -16.439  0.00  0.00    +0.023 A 
ATOM     14  C   UNL     1      32.724 -22.829 -16.827  0.00  0.00    +0.023 A 
ATOM     15  C   UNL     1      36.429 -24.020 -14.508  0.00  0.00    +0.062 A 
ATOM     16  C   UNL     1      30.982 -23.422 -15.298  0.00  0.00    +0.062 A 
ATOM     17  C   UNL     1      36.632 -23.429 -15.794  0.00  0.00    +0.017 A 
ATOM     18  C   UNL     1      31.276 -22.862 -16.580  0.00  0.00    +0.017 A 
ATOM     19  C   UNL     1      34.933 -22.544 -17.639  0.00  0.00    +0.060 A 
ATOM     20  C   UNL     1      33.574 -22.403 -17.841  0.00  0.00    +0.060 A 
ATOM     21  C   UNL     1      37.522 -24.390 -13.698  0.00  0.00    +0.017 C 
ATOM     22  C   UNL     1      29.653 -23.530 -14.840  0.00  0.00    +0.017 C 
ATOM     23  C   UNL     1      35.624 -22.024 -18.809  0.00  0.00    +0.252 C 
ATOM     24  C   UNL     1      33.367 -21.790 -19.145  0.00  0.00    +0.252 C 
ATOM     25  C   UNL     1      37.973 -23.247 -16.218  0.00  0.00    +0.001 C 
ATOM     26  C   UNL     1      30.177 -22.437 -17.370  0.00  0.00    +0.001 C 
ATOM     27  C   UNL     1      38.821 -24.187 -14.162  0.00  0.00    +0.001 C 
ATOM     28  C   UNL     1      28.608 -23.096 -15.655  0.00  0.00    +0.001 C 
ATOM     29  C   UNL     1      39.047 -23.626 -15.407  0.00  0.00    +0.000 C 
ATOM     30  C   UNL     1      28.864 -22.557 -16.905  0.00  0.00    +0.000 C 
ATOM     31  H   UNL     1      34.801 -21.194 -20.537  0.00  0.00    +0.158 HD
ENDROOT
TORSDOF 0
ENDMDL
MODEL 7
REMARK VINA RESULT:      -5.1      9.513     13.248
REMARK  Name = 447446
REMARK  0 active torsions:
REMARK  status: ('A' for Active; 'I' for Inactive)
REMARK                            x       y       z     vdW  Elec       q    Type
REMARK                         _______ _______ _______ _____ _____    ______ ____
ROOT
ATOM      1  O   UNL     1      34.740 -12.316 -26.155  0.00  0.00    -0.317 OA
ATOM      2  O   UNL     1      32.904 -16.151 -20.068  0.00  0.00    -0.270 OA
ATOM      3  O   UNL     1      31.693 -11.755 -19.430  0.00  0.00    -0.270 OA
ATOM      4  N   UNL     1      33.988 -14.259 -25.112  0.00  0.00    -0.304 N 
ATOM      5  N   UNL     1      33.163 -11.449 -24.712  0.00  0.00    -0.304 N 
ATOM      6  N   UNL     1      32.210 -14.030 -19.386  0.00  0.00    -0.248 N 
ATOM      7  C   UNL     1      34.291 -13.645 -26.385  0.00  0.00    +0.207 C 
ATOM      8  C   UNL     1      33.561 -11.521 -26.097  0.00  0.00    +0.207 C 
ATOM      9  C   UNL     1      33.505 -13.760 -23.932  0.00  0.00    +0.078 A 
ATOM     10  C   UNL     1      33.117 -12.404 -23.736  0.00  0.00    +0.078 A 
ATOM     11  C   UNL     1      33.087 -13.537 -27.301  0.00  0.00    +0.059 C 
ATOM     12  C   UNL     1      32.506 -12.178 -26.979  0.00  0.00    +0.059 C 
ATOM     13  C   UNL     1      33.353 -14.623 -22.778  0.00  0.00    +0.023 A 
ATOM     14  C   UNL     1      32.643 -12.073 -22.409  0.00  0.00    +0.023 A 
ATOM     15  C   UNL     1      34.163 -15.608 -24.800  0.00  0.00    +0.062 A 
ATOM     16  C   UNL     1      32.673 -10.329 -24.046  0.00  0.00    +0.062 A 
ATOM     17  C   UNL     1      33.812 -15.852 -23.437  0.00  0.00    +0.017 A 
ATOM     18  C   UNL     1      32.369 -10.657 -22.688  0.00  0.00    +0.017 A 
ATOM     19  C   UNL     1      32.897 -14.255 -21.515  0.00  0.00    +0.060 A 
ATOM     20  C   UNL     1      32.535 -12.936 -21.324  0.00  0.00    +0.060 A 
ATOM     21  C   UNL     1      34.611 -16.653 -25.634  0.00  0.00    +0.017 C 
ATOM     22  C   UNL     1      32.462  -9.027 -24.543  0.00  0.00    +0.017 C 
ATOM     23  C   UNL     1      32.690 -14.971 -20.266  0.00  0.00    +0.252 C 
ATOM     24  C   UNL     1      32.087 -12.781 -19.947  0.00  0.00    +0.252 C 
ATOM     25  C   UNL     1      33.947 -17.181 -22.961  0.00  0.00    +0.001 C 
ATOM     26  C   UNL     1      31.863  -9.617 -21.867  0.00  0.00    +0.001 C 
ATOM     27  C   UNL     1      34.724 -17.944 -25.117  0.00  0.00    +0.001 C 
ATOM     28  C   UNL     1      31.961  -8.040 -23.695  0.00  0.00    +0.001 C 
ATOM     29  C   UNL     1      34.400 -18.206 -23.796  0.00  0.00    +0.000 C 
ATOM     30  C   UNL     1      31.666  -8.328 -22.372  0.00  0.00    +0.000 C 
ATOM     31  H   UNL     1      31.978 -14.230 -18.451  0.00  0.00    +0.158 HD
ENDROOT
TORSDOF 0
ENDMDL
