MODEL 1
REMARK VINA RESULT:     -10.5      0.000      0.000
REMARK  Name = 5828196
REMARK  4 active torsions:
REMARK  status: ('A' for Active; 'I' for Inactive)
REMARK    1  A    between atoms: C_2  and  C_15
REMARK    2  A    between atoms: C_3  and  C_10
REMARK    3  A    between atoms: C_16  and  S_21
REMARK    4  A    between atoms: S_21  and  N_24
REMARK                            x       y       z     vdW  Elec       q    Type
REMARK                         _______ _______ _______ _____ _____    ______ ____
ROOT
ATOM      1  O   UNL     1      34.452 -18.719 -22.637  0.00  0.00    -0.453 OA
ATOM      2  C   UNL     1      35.362 -19.092 -21.705  0.00  0.00    +0.145 C 
ATOM      3  C   UNL     1      35.058 -17.781 -23.411  0.00  0.00    +0.146 C 
ATOM      4  C   UNL     1      36.540 -18.408 -21.867  0.00  0.00    +0.041 C 
ATOM      5  C   UNL     1      36.343 -17.555 -22.977  0.00  0.00    +0.041 C 
ENDROOT
BRANCH   3  10
ATOM      6  S   UNL     1      34.222 -14.719 -23.274  0.00  0.00    -0.025 S 
ATOM      7  O   UNL     1      33.031 -15.853 -26.727  0.00  0.00    -0.269 OA
ATOM      8  O   UNL     1      33.294 -12.299 -23.765  0.00  0.00    -0.262 OA
ATOM      9  N   UNL     1      33.051 -13.936 -25.408  0.00  0.00    -0.243 N 
ATOM     10  C   UNL     1      34.397 -17.162 -24.498  0.00  0.00    +0.049 C 
ATOM     11  C   UNL     1      34.003 -15.872 -24.534  0.00  0.00    +0.090 C 
ATOM     12  C   UNL     1      33.312 -15.262 -25.694  0.00  0.00    +0.258 C 
ATOM     13  C   UNL     1      33.442 -13.435 -24.188  0.00  0.00    +0.283 C 
ATOM     14  H   UNL     1      32.595 -13.361 -26.064  0.00  0.00    +0.159 HD
ENDBRANCH   3  10
BRANCH   2  15
ATOM     15  C   UNL     1      34.910 -20.094 -20.772  0.00  0.00    +0.035 C 
ATOM     16  C   UNL     1      34.034 -22.031 -18.965  0.00  0.00    +0.122 C 
ATOM     17  C   UNL     1      33.547 -20.245 -20.517  0.00  0.00    +0.004 C 
ATOM     18  C   UNL     1      35.835 -20.911 -20.122  0.00  0.00    +0.004 C 
ATOM     19  C   UNL     1      33.109 -21.214 -19.615  0.00  0.00    +0.020 C 
ATOM     20  C   UNL     1      35.398 -21.879 -19.218  0.00  0.00    +0.020 C 
BRANCH  16  21
ATOM     21  S   UNL     1      33.486 -23.244 -17.835  0.00  0.00    +0.057 S 
ATOM     22  O   UNL     1      32.231 -22.794 -17.250  0.00  0.00    -0.153 OA
ATOM     23  O   UNL     1      33.557 -24.546 -18.483  0.00  0.00    -0.153 OA
BRANCH  21  24
ATOM     24  N   UNL     1      34.709 -23.157 -16.645  0.00  0.00    -0.203 NA
ATOM     25  H   UNL     1      34.483 -23.790 -15.877  0.00  0.00    +0.144 HD
ATOM     26  H   UNL     1      34.772 -22.202 -16.291  0.00  0.00    +0.144 HD
ENDBRANCH  21  24
ENDBRANCH  16  21
ENDBRANCH   2  15
TORSDOF 4
ENDMDL
MODEL 2
REMARK VINA RESULT:     -10.4      1.493      2.397
REMARK  Name = 5828196
REMARK  4 active torsions:
REMARK  status: ('A' for Active; 'I' for Inactive)
REMARK    1  A    between atoms: C_2  and  C_15
REMARK    2  A    between atoms: C_3  and  C_10
REMARK    3  A    between atoms: C_16  and  S_21
REMARK    4  A    between atoms: S_21  and  N_24
REMARK                            x       y       z     vdW  Elec       q    Type
REMARK                         _______ _______ _______ _____ _____    ______ ____
ROOT
ATOM      1  O   UNL     1      34.275 -17.331 -22.071  0.00  0.00    -0.453 OA
ATOM      2  C   UNL     1      34.701 -18.577 -22.392  0.00  0.00    +0.145 C 
ATOM      3  C   UNL     1      34.601 -16.531 -23.120  0.00  0.00    +0.146 C 
ATOM      4  C   UNL     1      35.296 -18.588 -23.628  0.00  0.00    +0.041 C 
ATOM      5  C   UNL     1      35.231 -17.258 -24.103  0.00  0.00    +0.041 C 
ENDROOT
BRANCH   3  10
ATOM      6  S   UNL     1      33.679 -15.091 -25.797  0.00  0.00    -0.025 S 
ATOM      7  O   UNL     1      33.681 -12.292 -23.190  0.00  0.00    -0.269 OA
ATOM      8  O   UNL     1      32.893 -13.363 -27.629  0.00  0.00    -0.262 OA
ATOM      9  N   UNL     1      33.227 -12.597 -25.452  0.00  0.00    -0.243 N 
ATOM     10  C   UNL     1      34.303 -15.148 -23.132  0.00  0.00    +0.049 C 
ATOM     11  C   UNL     1      33.906 -14.449 -24.215  0.00  0.00    +0.090 C 
ATOM     12  C   UNL     1      33.604 -12.999 -24.184  0.00  0.00    +0.258 C 
ATOM     13  C   UNL     1      33.196 -13.534 -26.459  0.00  0.00    +0.283 C 
ATOM     14  H   UNL     1      32.985 -11.660 -25.630  0.00  0.00    +0.159 HD
ENDBRANCH   3  10
BRANCH   2  15
ATOM     15  C   UNL     1      34.448 -19.588 -21.397  0.00  0.00    +0.035 C 
ATOM     16  C   UNL     1      33.957 -21.547 -19.471  0.00  0.00    +0.122 C 
ATOM     17  C   UNL     1      35.511 -20.290 -20.829  0.00  0.00    +0.004 C 
ATOM     18  C   UNL     1      33.139 -19.866 -21.002  0.00  0.00    +0.004 C 
ATOM     19  C   UNL     1      35.266 -21.269 -19.866  0.00  0.00    +0.020 C 
ATOM     20  C   UNL     1      32.893 -20.845 -20.040  0.00  0.00    +0.020 C 
BRANCH  16  21
ATOM     21  S   UNL     1      33.649 -22.772 -18.266  0.00  0.00    +0.057 S 
ATOM     22  O   UNL     1      34.747 -22.759 -17.309  0.00  0.00    -0.153 OA
ATOM     23  O   UNL     1      32.278 -22.626 -17.796  0.00  0.00    -0.153 OA
BRANCH  21  24
ATOM     24  N   UNL     1      33.758 -24.192 -19.209  0.00  0.00    -0.203 NA
ATOM     25  H   UNL     1      32.820 -24.551 -19.392  0.00  0.00    +0.144 HD
ATOM     26  H   UNL     1      34.299 -24.895 -18.705  0.00  0.00    +0.144 HD
ENDBRANCH  21  24
ENDBRANCH  16  21
ENDBRANCH   2  15
TORSDOF 4
ENDMDL
MODEL 3
REMARK VINA RESULT:     -10.2      1.738      2.226
REMARK  Name = 5828196
REMARK  4 active torsions:
REMARK  status: ('A' for Active; 'I' for Inactive)
REMARK    1  A    between atoms: C_2  and  C_15
REMARK    2  A    between atoms: C_3  and  C_10
REMARK    3  A    between atoms: C_16  and  S_21
REMARK    4  A    between atoms: S_21  and  N_24
REMARK                            x       y       z     vdW  Elec       q    Type
REMARK                         _______ _______ _______ _____ _____    ______ ____
ROOT
ATOM      1  O   UNL     1      34.174 -17.855 -22.127  0.00  0.00    -0.453 OA
ATOM      2  C   UNL     1      35.185 -18.693 -21.793  0.00  0.00    +0.145 C 
ATOM      3  C   UNL     1      34.706 -16.928 -22.967  0.00  0.00    +0.146 C 
ATOM      4  C   UNL     1      36.355 -18.319 -22.402  0.00  0.00    +0.041 C 
ATOM      5  C   UNL     1      36.045 -17.170 -23.167  0.00  0.00    +0.041 C 
ENDROOT
BRANCH   3  10
ATOM      6  S   UNL     1      33.363 -14.734 -21.103  0.00  0.00    -0.025 S 
ATOM      7  O   UNL     1      32.322 -13.711 -24.638  0.00  0.00    -0.269 OA
ATOM      8  O   UNL     1      32.027 -12.677 -20.130  0.00  0.00    -0.262 OA
ATOM      9  N   UNL     1      32.038 -13.003 -22.440  0.00  0.00    -0.243 N 
ATOM     10  C   UNL     1      33.930 -15.883 -23.521  0.00  0.00    +0.049 C 
ATOM     11  C   UNL     1      33.322 -14.908 -22.815  0.00  0.00    +0.090 C 
ATOM     12  C   UNL     1      32.516 -13.831 -23.437  0.00  0.00    +0.258 C 
ATOM     13  C   UNL     1      32.359 -13.290 -21.133  0.00  0.00    +0.283 C 
ATOM     14  H   UNL     1      31.479 -12.223 -22.660  0.00  0.00    +0.159 HD
ENDBRANCH   3  10
BRANCH   2  15
ATOM     15  C   UNL     1      34.824 -19.762 -20.897  0.00  0.00    +0.035 C 
ATOM     16  C   UNL     1      34.125 -21.834 -19.163  0.00  0.00    +0.122 C 
ATOM     17  C   UNL     1      35.818 -20.536 -20.297  0.00  0.00    +0.004 C 
ATOM     18  C   UNL     1      33.481 -20.026 -20.630  0.00  0.00    +0.004 C 
ATOM     19  C   UNL     1      35.469 -21.571 -19.429  0.00  0.00    +0.020 C 
ATOM     20  C   UNL     1      33.131 -21.061 -19.763  0.00  0.00    +0.020 C 
BRANCH  16  21
ATOM     21  S   UNL     1      33.687 -23.129 -18.077  0.00  0.00    +0.057 S 
ATOM     22  O   UNL     1      33.656 -24.372 -18.834  0.00  0.00    -0.153 OA
ATOM     23  O   UNL     1      34.512 -23.030 -16.881  0.00  0.00    -0.153 OA
BRANCH  21  24
ATOM     24  N   UNL     1      32.085 -22.689 -17.675  0.00  0.00    -0.203 NA
ATOM     25  H   UNL     1      32.101 -21.886 -17.047  0.00  0.00    +0.144 HD
ATOM     26  H   UNL     1      31.623 -23.473 -17.214  0.00  0.00    +0.144 HD
ENDBRANCH  21  24
ENDBRANCH  16  21
ENDBRANCH   2  15
TORSDOF 4
ENDMDL
MODEL 4
REMARK VINA RESULT:     -10.2      4.393     10.563
REMARK  Name = 5828196
REMARK  4 active torsions:
REMARK  status: ('A' for Active; 'I' for Inactive)
REMARK    1  A    between atoms: C_2  and  C_15
REMARK    2  A    between atoms: C_3  and  C_10
REMARK    3  A    between atoms: C_16  and  S_21
REMARK    4  A    between atoms: S_21  and  N_24
REMARK                            x       y       z     vdW  Elec       q    Type
REMARK                         _______ _______ _______ _____ _____    ______ ____
ROOT
ATOM      1  O   UNL     1      36.051 -22.507 -17.187  0.00  0.00    -0.453 OA
ATOM      2  C   UNL     1      34.869 -22.369 -17.835  0.00  0.00    +0.145 C 
ATOM      3  C   UNL     1      35.825 -23.362 -16.154  0.00  0.00    +0.146 C 
ATOM      4  C   UNL     1      33.889 -23.118 -17.235  0.00  0.00    +0.041 C 
ATOM      5  C   UNL     1      34.510 -23.765 -16.141  0.00  0.00    +0.041 C 
ENDROOT
BRANCH   3  10
ATOM      6  S   UNL     1      35.137 -24.179 -13.163  0.00  0.00    -0.025 S 
ATOM      7  O   UNL     1      38.940 -24.528 -13.369  0.00  0.00    -0.269 OA
ATOM      8  O   UNL     1      35.220 -24.938 -10.637  0.00  0.00    -0.262 OA
ATOM      9  N   UNL     1      37.224 -24.804 -11.823  0.00  0.00    -0.243 N 
ATOM     10  C   UNL     1      36.848 -23.740 -15.254  0.00  0.00    +0.049 C 
ATOM     11  C   UNL     1      36.657 -24.103 -13.969  0.00  0.00    +0.090 C 
ATOM     12  C   UNL     1      37.759 -24.492 -13.058  0.00  0.00    +0.258 C 
ATOM     13  C   UNL     1      35.862 -24.707 -11.650  0.00  0.00    +0.283 C 
ATOM     14  H   UNL     1      37.805 -25.089 -11.081  0.00  0.00    +0.159 HD
ENDBRANCH   3  10
BRANCH   2  15
ATOM     15  C   UNL     1      34.895 -21.490 -18.977  0.00  0.00    +0.035 C 
ATOM     16  C   UNL     1      34.945 -19.792 -21.191  0.00  0.00    +0.122 C 
ATOM     17  C   UNL     1      33.702 -21.106 -19.590  0.00  0.00    +0.004 C 
ATOM     18  C   UNL     1      36.113 -21.026 -19.473  0.00  0.00    +0.004 C 
ATOM     19  C   UNL     1      33.727 -20.256 -20.695  0.00  0.00    +0.020 C 
ATOM     20  C   UNL     1      36.139 -20.177 -20.579  0.00  0.00    +0.020 C 
BRANCH  16  21
ATOM     21  S   UNL     1      34.978 -18.727 -22.574  0.00  0.00    +0.057 S 
ATOM     22  O   UNL     1      34.679 -19.512 -23.764  0.00  0.00    -0.153 OA
ATOM     23  O   UNL     1      34.184 -17.545 -22.269  0.00  0.00    -0.153 OA
BRANCH  21  24
ATOM     24  N   UNL     1      36.628 -18.286 -22.607  0.00  0.00    -0.203 NA
ATOM     25  H   UNL     1      37.204 -19.127 -22.643  0.00  0.00    +0.144 HD
ATOM     26  H   UNL     1      36.854 -17.754 -21.766  0.00  0.00    +0.144 HD
ENDBRANCH  21  24
ENDBRANCH  16  21
ENDBRANCH   2  15
TORSDOF 4
ENDMDL
MODEL 5
REMARK VINA RESULT:     -10.1      4.471     10.594
REMARK  Name = 5828196
REMARK  4 active torsions:
REMARK  status: ('A' for Active; 'I' for Inactive)
REMARK    1  A    between atoms: C_2  and  C_15
REMARK    2  A    between atoms: C_3  and  C_10
REMARK    3  A    between atoms: C_16  and  S_21
REMARK    4  A    between atoms: S_21  and  N_24
REMARK                            x       y       z     vdW  Elec       q    Type
REMARK                         _______ _______ _______ _____ _____    ______ ____
ROOT
ATOM      1  O   UNL     1      35.198 -23.553 -16.850  0.00  0.00    -0.453 OA
ATOM      2  C   UNL     1      34.123 -22.874 -17.320  0.00  0.00    +0.145 C 
ATOM      3  C   UNL     1      34.744 -24.335 -15.836  0.00  0.00    +0.146 C 
ATOM      4  C   UNL     1      32.989 -23.206 -16.623  0.00  0.00    +0.041 C 
ATOM      5  C   UNL     1      33.392 -24.157 -15.657  0.00  0.00    +0.041 C 
ENDROOT
BRANCH   3  10
ATOM      6  S   UNL     1      36.571 -23.197 -13.500  0.00  0.00    -0.025 S 
ATOM      7  O   UNL     1      37.382 -26.933 -13.576  0.00  0.00    -0.269 OA
ATOM      8  O   UNL     1      38.281 -22.881 -11.515  0.00  0.00    -0.262 OA
ATOM      9  N   UNL     1      37.987 -25.019 -12.399  0.00  0.00    -0.243 N 
ATOM     10  C   UNL     1      35.600 -25.190 -15.105  0.00  0.00    +0.049 C 
ATOM     11  C   UNL     1      36.412 -24.803 -14.099  0.00  0.00    +0.090 C 
ATOM     12  C   UNL     1      37.296 -25.734 -13.359  0.00  0.00    +0.258 C 
ATOM     13  C   UNL     1      37.763 -23.666 -12.295  0.00  0.00    +0.283 C 
ATOM     14  H   UNL     1      38.627 -25.470 -11.802  0.00  0.00    +0.159 HD
ENDBRANCH   3  10
BRANCH   2  15
ATOM     15  C   UNL     1      34.395 -21.976 -18.415  0.00  0.00    +0.035 C 
ATOM     16  C   UNL     1      34.923 -20.236 -20.531  0.00  0.00    +0.122 C 
ATOM     17  C   UNL     1      35.713 -21.692 -18.773  0.00  0.00    +0.004 C 
ATOM     18  C   UNL     1      33.341 -21.389 -19.114  0.00  0.00    +0.004 C 
ATOM     19  C   UNL     1      35.977 -20.823 -19.832  0.00  0.00    +0.020 C 
ATOM     20  C   UNL     1      33.604 -20.519 -20.172  0.00  0.00    +0.020 C 
BRANCH  16  21
ATOM     21  S   UNL     1      35.252 -19.148 -21.857  0.00  0.00    +0.057 S 
ATOM     22  O   UNL     1      36.652 -18.755 -21.791  0.00  0.00    -0.153 OA
ATOM     23  O   UNL     1      34.722 -19.735 -23.080  0.00  0.00    -0.153 OA
BRANCH  21  24
ATOM     24  N   UNL     1      34.283 -17.808 -21.427  0.00  0.00    -0.203 NA
ATOM     25  H   UNL     1      33.297 -18.063 -21.501  0.00  0.00    +0.144 HD
ATOM     26  H   UNL     1      34.481 -17.030 -22.056  0.00  0.00    +0.144 HD
ENDBRANCH  21  24
ENDBRANCH  16  21
ENDBRANCH   2  15
TORSDOF 4
ENDMDL
MODEL 6
REMARK VINA RESULT:     -10.1      2.966      8.489
REMARK  Name = 5828196
REMARK  4 active torsions:
REMARK  status: ('A' for Active; 'I' for Inactive)
REMARK    1  A    between atoms: C_2  and  C_15
REMARK    2  A    between atoms: C_3  and  C_10
REMARK    3  A    between atoms: C_16  and  S_21
REMARK    4  A    between atoms: S_21  and  N_24
REMARK                            x       y       z     vdW  Elec       q    Type
REMARK                         _______ _______ _______ _____ _____    ______ ____
ROOT
ATOM      1  O   UNL     1      34.721 -17.044 -21.658  0.00  0.00    -0.453 OA
ATOM      2  C   UNL     1      34.277 -16.283 -22.688  0.00  0.00    +0.145 C 
ATOM      3  C   UNL     1      35.330 -18.124 -22.214  0.00  0.00    +0.146 C 
ATOM      4  C   UNL     1      34.589 -16.857 -23.893  0.00  0.00    +0.041 C 
ATOM      5  C   UNL     1      35.274 -18.056 -23.587  0.00  0.00    +0.041 C 
ENDROOT
BRANCH   3  10
ATOM      6  S   UNL     1      33.526 -20.138 -20.547  0.00  0.00    -0.025 S 
ATOM      7  O   UNL     1      37.104 -21.259 -19.796  0.00  0.00    -0.269 OA
ATOM      8  O   UNL     1      32.613 -22.058 -18.984  0.00  0.00    -0.262 OA
ATOM      9  N   UNL     1      34.920 -21.843 -19.247  0.00  0.00    -0.243 N 
ATOM     10  C   UNL     1      35.918 -19.143 -21.429  0.00  0.00    +0.049 C 
ATOM     11  C   UNL     1      35.239 -20.043 -20.688  0.00  0.00    +0.090 C 
ATOM     12  C   UNL     1      35.896 -21.095 -19.878  0.00  0.00    +0.258 C 
ATOM     13  C   UNL     1      33.600 -21.515 -19.455  0.00  0.00    +0.283 C 
ATOM     14  H   UNL     1      35.165 -22.596 -18.661  0.00  0.00    +0.159 HD
ENDBRANCH   3  10
BRANCH   2  15
ATOM     15  C   UNL     1      33.591 -15.074 -22.305  0.00  0.00    +0.035 C 
ATOM     16  C   UNL     1      32.262 -12.734 -21.565  0.00  0.00    +0.122 C 
ATOM     17  C   UNL     1      33.141 -14.911 -20.995  0.00  0.00    +0.004 C 
ATOM     18  C   UNL     1      33.376 -14.067 -23.246  0.00  0.00    +0.004 C 
ATOM     19  C   UNL     1      32.478 -13.741 -20.625  0.00  0.00    +0.020 C 
ATOM     20  C   UNL     1      32.712 -12.897 -22.877  0.00  0.00    +0.020 C 
BRANCH  16  21
ATOM     21  S   UNL     1      31.432 -11.269 -21.103  0.00  0.00    +0.057 S 
ATOM     22  O   UNL     1      32.079 -10.146 -21.768  0.00  0.00    -0.153 OA
ATOM     23  O   UNL     1      30.000 -11.478 -21.264  0.00  0.00    -0.153 OA
BRANCH  21  24
ATOM     24  N   UNL     1      31.793 -11.203 -19.435  0.00  0.00    -0.203 NA
ATOM     25  H   UNL     1      32.027 -10.245 -19.175  0.00  0.00    +0.144 HD
ATOM     26  H   UNL     1      32.586 -11.813 -19.233  0.00  0.00    +0.144 HD
ENDBRANCH  21  24
ENDBRANCH  16  21
ENDBRANCH   2  15
TORSDOF 4
ENDMDL
MODEL 7
REMARK VINA RESULT:     -10.0      3.036      3.995
REMARK  Name = 5828196
REMARK  4 active torsions:
REMARK  status: ('A' for Active; 'I' for Inactive)
REMARK    1  A    between atoms: C_2  and  C_15
REMARK    2  A    between atoms: C_3  and  C_10
REMARK    3  A    between atoms: C_16  and  S_21
REMARK    4  A    between atoms: S_21  and  N_24
REMARK                            x       y       z     vdW  Elec       q    Type
REMARK                         _______ _______ _______ _____ _____    ______ ____
ROOT
ATOM      1  O   UNL     1      35.039 -20.646 -20.178  0.00  0.00    -0.453 OA
ATOM      2  C   UNL     1      34.312 -21.276 -19.222  0.00  0.00    +0.145 C 
ATOM      3  C   UNL     1      34.144 -20.132 -21.063  0.00  0.00    +0.146 C 
ATOM      4  C   UNL     1      32.969 -21.175 -19.480  0.00  0.00    +0.041 C 
ATOM      5  C   UNL     1      32.858 -20.431 -20.678  0.00  0.00    +0.041 C 
ENDROOT
BRANCH   3  10
ATOM      6  S   UNL     1      34.219 -16.957 -21.015  0.00  0.00    -0.025 S 
ATOM      7  O   UNL     1      35.385 -17.860 -24.544  0.00  0.00    -0.269 OA
ATOM      8  O   UNL     1      34.486 -14.397 -21.598  0.00  0.00    -0.262 OA
ATOM      9  N   UNL     1      35.000 -15.970 -23.242  0.00  0.00    -0.243 N 
ATOM     10  C   UNL     1      34.551 -19.401 -22.203  0.00  0.00    +0.049 C 
ATOM     11  C   UNL     1      34.615 -18.055 -22.281  0.00  0.00    +0.090 C 
ATOM     12  C   UNL     1      35.046 -17.328 -23.497  0.00  0.00    +0.258 C 
ATOM     13  C   UNL     1      34.590 -15.547 -21.999  0.00  0.00    +0.283 C 
ATOM     14  H   UNL     1      35.254 -15.320 -23.936  0.00  0.00    +0.159 HD
ENDBRANCH   3  10
BRANCH   2  15
ATOM     15  C   UNL     1      35.084 -21.897 -18.176  0.00  0.00    +0.035 C 
ATOM     16  C   UNL     1      36.578 -23.099 -16.148  0.00  0.00    +0.122 C 
ATOM     17  C   UNL     1      34.472 -22.783 -17.288  0.00  0.00    +0.004 C 
ATOM     18  C   UNL     1      36.443 -21.612 -18.048  0.00  0.00    +0.004 C 
ATOM     19  C   UNL     1      35.218 -23.384 -16.276  0.00  0.00    +0.020 C 
ATOM     20  C   UNL     1      37.190 -22.212 -17.034  0.00  0.00    +0.020 C 
BRANCH  16  21
ATOM     21  S   UNL     1      37.513 -23.851 -14.880  0.00  0.00    +0.057 S 
ATOM     22  O   UNL     1      37.579 -22.933 -13.752  0.00  0.00    -0.153 OA
ATOM     23  O   UNL     1      37.021 -25.207 -14.682  0.00  0.00    -0.153 OA
BRANCH  21  24
ATOM     24  N   UNL     1      39.054 -23.929 -15.615  0.00  0.00    -0.203 NA
ATOM     25  H   UNL     1      39.695 -24.441 -15.008  0.00  0.00    +0.144 HD
ATOM     26  H   UNL     1      39.408 -22.984 -15.765  0.00  0.00    +0.144 HD
ENDBRANCH  21  24
ENDBRANCH  16  21
ENDBRANCH   2  15
TORSDOF 4
ENDMDL
MODEL 8
REMARK VINA RESULT:      -9.8      2.203      2.954
REMARK  Name = 5828196
REMARK  4 active torsions:
REMARK  status: ('A' for Active; 'I' for Inactive)
REMARK    1  A    between atoms: C_2  and  C_15
REMARK    2  A    between atoms: C_3  and  C_10
REMARK    3  A    between atoms: C_16  and  S_21
REMARK    4  A    between atoms: S_21  and  N_24
REMARK                            x       y       z     vdW  Elec       q    Type
REMARK                         _______ _______ _______ _____ _____    ______ ____
ROOT
ATOM      1  O   UNL     1      33.313 -16.651 -21.249  0.00  0.00    -0.453 OA
ATOM      2  C   UNL     1      34.158 -17.580 -21.760  0.00  0.00    +0.145 C 
ATOM      3  C   UNL     1      33.444 -15.544 -22.027  0.00  0.00    +0.146 C 
ATOM      4  C   UNL     1      34.829 -17.087 -22.850  0.00  0.00    +0.041 C 
ATOM      5  C   UNL     1      34.366 -15.762 -23.025  0.00  0.00    +0.041 C 
ENDROOT
BRANCH   3  10
ATOM      6  S   UNL     1      33.920 -12.940 -23.783  0.00  0.00    -0.025 S 
ATOM      7  O   UNL     1      31.190 -11.907 -21.313  0.00  0.00    -0.269 OA
ATOM      8  O   UNL     1      33.848 -10.527 -24.849  0.00  0.00    -0.262 OA
ATOM      9  N   UNL     1      32.414 -11.000 -23.072  0.00  0.00    -0.243 N 
ATOM     10  C   UNL     1      32.704 -14.364 -21.786  0.00  0.00    +0.049 C 
ATOM     11  C   UNL     1      32.834 -13.211 -22.475  0.00  0.00    +0.090 C 
ATOM     12  C   UNL     1      32.037 -11.995 -22.189  0.00  0.00    +0.258 C 
ATOM     13  C   UNL     1      33.391 -11.277 -23.999  0.00  0.00    +0.283 C 
ATOM     14  H   UNL     1      31.990 -10.112 -23.037  0.00  0.00    +0.159 HD
ENDBRANCH   3  10
BRANCH   2  15
ATOM     15  C   UNL     1      34.170 -18.844 -21.067  0.00  0.00    +0.035 C 
ATOM     16  C   UNL     1      34.195 -21.289 -19.724  0.00  0.00    +0.122 C 
ATOM     17  C   UNL     1      32.974 -19.409 -20.626  0.00  0.00    +0.004 C 
ATOM     18  C   UNL     1      35.379 -19.501 -20.836  0.00  0.00    +0.004 C 
ATOM     19  C   UNL     1      32.986 -20.632 -19.955  0.00  0.00    +0.020 C 
ATOM     20  C   UNL     1      35.392 -20.723 -20.164  0.00  0.00    +0.020 C 
BRANCH  16  21
ATOM     21  S   UNL     1      34.210 -22.820 -18.885  0.00  0.00    +0.057 S 
ATOM     22  O   UNL     1      34.194 -23.887 -19.876  0.00  0.00    -0.153 OA
ATOM     23  O   UNL     1      35.261 -22.786 -17.876  0.00  0.00    -0.153 OA
BRANCH  21  24
ATOM     24  N   UNL     1      32.694 -22.777 -18.098  0.00  0.00    -0.203 NA
ATOM     25  H   UNL     1      32.816 -23.004 -17.111  0.00  0.00    +0.144 HD
ATOM     26  H   UNL     1      32.068 -23.457 -18.529  0.00  0.00    +0.144 HD
ENDBRANCH  21  24
ENDBRANCH  16  21
ENDBRANCH   2  15
TORSDOF 4
ENDMDL
MODEL 9
REMARK VINA RESULT:      -9.8      2.860      8.931
REMARK  Name = 5828196
REMARK  4 active torsions:
REMARK  status: ('A' for Active; 'I' for Inactive)
REMARK    1  A    between atoms: C_2  and  C_15
REMARK    2  A    between atoms: C_3  and  C_10
REMARK    3  A    between atoms: C_16  and  S_21
REMARK    4  A    between atoms: S_21  and  N_24
REMARK                            x       y       z     vdW  Elec       q    Type
REMARK                         _______ _______ _______ _____ _____    ______ ____
ROOT
ATOM      1  O   UNL     1      34.606 -16.202 -22.248  0.00  0.00    -0.453 OA
ATOM      2  C   UNL     1      34.016 -15.573 -23.294  0.00  0.00    +0.145 C 
ATOM      3  C   UNL     1      35.048 -17.398 -22.719  0.00  0.00    +0.146 C 
ATOM      4  C   UNL     1      34.070 -16.346 -24.426  0.00  0.00    +0.041 C 
ATOM      5  C   UNL     1      34.742 -17.533 -24.053  0.00  0.00    +0.041 C 
ENDROOT
BRANCH   3  10
ATOM      6  S   UNL     1      33.433 -19.593 -21.088  0.00  0.00    -0.025 S 
ATOM      7  O   UNL     1      37.087 -20.265 -20.181  0.00  0.00    -0.269 OA
ATOM      8  O   UNL     1      32.695 -21.590 -19.529  0.00  0.00    -0.262 OA
ATOM      9  N   UNL     1      34.968 -21.102 -19.707  0.00  0.00    -0.243 N 
ATOM     10  C   UNL     1      35.722 -18.328 -21.895  0.00  0.00    +0.049 C 
ATOM     11  C   UNL     1      35.127 -19.294 -21.165  0.00  0.00    +0.090 C 
ATOM     12  C   UNL     1      35.872 -20.249 -20.312  0.00  0.00    +0.258 C 
ATOM     13  C   UNL     1      33.628 -20.937 -19.971  0.00  0.00    +0.283 C 
ATOM     14  H   UNL     1      35.278 -21.812 -19.099  0.00  0.00    +0.159 HD
ENDBRANCH   3  10
BRANCH   2  15
ATOM     15  C   UNL     1      33.473 -14.271 -22.999  0.00  0.00    +0.035 C 
ATOM     16  C   UNL     1      32.421 -11.750 -22.430  0.00  0.00    +0.122 C 
ATOM     17  C   UNL     1      32.585 -14.109 -21.936  0.00  0.00    +0.004 C 
ATOM     18  C   UNL     1      33.834 -13.172 -23.778  0.00  0.00    +0.004 C 
ATOM     19  C   UNL     1      32.059 -12.849 -21.651  0.00  0.00    +0.020 C 
ATOM     20  C   UNL     1      33.308 -11.911 -23.495  0.00  0.00    +0.020 C 
BRANCH  16  21
ATOM     21  S   UNL     1      31.764 -10.172 -22.074  0.00  0.00    +0.057 S 
ATOM     22  O   UNL     1      30.562  -9.984 -22.874  0.00  0.00    -0.153 OA
ATOM     23  O   UNL     1      31.703 -10.011 -20.628  0.00  0.00    -0.153 OA
BRANCH  21  24
ATOM     24  N   UNL     1      32.996  -9.160 -22.687  0.00  0.00    -0.203 NA
ATOM     25  H   UNL     1      32.779  -8.904 -23.651  0.00  0.00    +0.144 HD
ATOM     26  H   UNL     1      33.888  -9.655 -22.659  0.00  0.00    +0.144 HD
ENDBRANCH  21  24
ENDBRANCH  16  21
ENDBRANCH   2  15
TORSDOF 4
ENDMDL
