MODEL 1
REMARK VINA RESULT:      -9.1      0.000      0.000
REMARK  Name = 3759
REMARK  4 active torsions:
REMARK  status: ('A' for Active; 'I' for Inactive)
REMARK    1  A    between atoms: N_2  and  N_11
REMARK    2  A    between atoms: C_3  and  C_7
REMARK    3  A    between atoms: N_11  and  C_13
REMARK    4  A    between atoms: C_13  and  C_14
REMARK                            x       y       z     vdW  Elec       q    Type
REMARK                         _______ _______ _______ _____ _____    ______ ____
ROOT
ATOM      1  O   UNL     1      33.329 -15.317 -22.185  0.00  0.00    -0.267 OA
ATOM      2  N   UNL     1      34.989 -16.708 -22.983  0.00  0.00    -0.245 N 
ATOM      3  C   UNL     1      33.972 -15.774 -23.129  0.00  0.00    +0.280 C 
ATOM      4  H   UNL     1      35.477 -17.045 -23.770  0.00  0.00    +0.169 HD
ENDROOT
BRANCH   3   7
ATOM      5  O   UNL     1      33.617 -15.450 -26.631  0.00  0.00    -0.358 OA
ATOM      6  N   UNL     1      33.952 -16.175 -25.494  0.00  0.00    -0.073 NA
ATOM      7  C   UNL     1      33.720 -15.332 -24.509  0.00  0.00    +0.177 C 
ATOM      8  C   UNL     1      33.254 -14.090 -24.903  0.00  0.00    +0.063 C 
ATOM      9  C   UNL     1      33.202 -14.210 -26.266  0.00  0.00    +0.155 C 
ATOM     10  C   UNL     1      32.808 -13.304 -27.352  0.00  0.00    +0.075 C 
ENDBRANCH   3   7
BRANCH   2  11
ATOM     11  N   UNL     1      35.303 -17.155 -21.711  0.00  0.00    -0.225 NA
ATOM     12  H   UNL     1      34.457 -17.175 -21.140  0.00  0.00    +0.145 HD
BRANCH  11  13
ATOM     13  C   UNL     1      35.871 -18.503 -21.782  0.00  0.00    +0.114 C 
BRANCH  13  14
ATOM     14  C   UNL     1      35.066 -19.500 -21.020  0.00  0.00    -0.005 C 
ATOM     15  C   UNL     1      33.674 -19.406 -21.003  0.00  0.00    -0.003 C 
ATOM     16  C   UNL     1      35.704 -20.527 -20.325  0.00  0.00    -0.003 C 
ATOM     17  C   UNL     1      32.921 -20.339 -20.290  0.00  0.00    -0.000 C 
ATOM     18  C   UNL     1      34.950 -21.460 -19.612  0.00  0.00    -0.000 C 
ATOM     19  C   UNL     1      33.559 -21.367 -19.594  0.00  0.00    -0.000 C 
ENDBRANCH  13  14
ENDBRANCH  11  13
ENDBRANCH   2  11
TORSDOF 4
ENDMDL
MODEL 2
REMARK VINA RESULT:      -8.9      1.580      1.813
REMARK  Name = 3759
REMARK  4 active torsions:
REMARK  status: ('A' for Active; 'I' for Inactive)
REMARK    1  A    between atoms: N_2  and  N_11
REMARK    2  A    between atoms: C_3  and  C_7
REMARK    3  A    between atoms: N_11  and  C_13
REMARK    4  A    between atoms: C_13  and  C_14
REMARK                            x       y       z     vdW  Elec       q    Type
REMARK                         _______ _______ _______ _____ _____    ______ ____
ROOT
ATOM      1  O   UNL     1      34.470 -17.600 -25.374  0.00  0.00    -0.267 OA
ATOM      2  N   UNL     1      35.403 -17.094 -23.324  0.00  0.00    -0.245 N 
ATOM      3  C   UNL     1      34.674 -16.794 -24.467  0.00  0.00    +0.280 C 
ATOM      4  H   UNL     1      35.541 -16.415 -22.624  0.00  0.00    +0.169 HD
ENDROOT
BRANCH   3   7
ATOM      5  O   UNL     1      33.069 -13.758 -25.306  0.00  0.00    -0.358 OA
ATOM      6  N   UNL     1      33.431 -15.071 -25.581  0.00  0.00    -0.073 NA
ATOM      7  C   UNL     1      34.123 -15.432 -24.519  0.00  0.00    +0.177 C 
ATOM      8  C   UNL     1      34.252 -14.454 -23.549  0.00  0.00    +0.063 C 
ATOM      9  C   UNL     1      33.564 -13.402 -24.093  0.00  0.00    +0.155 C 
ATOM     10  C   UNL     1      33.274 -12.034 -23.642  0.00  0.00    +0.075 C 
ENDBRANCH   3   7
BRANCH   2  11
ATOM     11  N   UNL     1      35.934 -18.366 -23.189  0.00  0.00    -0.225 NA
ATOM     12  H   UNL     1      36.763 -18.451 -23.779  0.00  0.00    +0.145 HD
BRANCH  11  13
ATOM     13  C   UNL     1      36.307 -18.606 -21.794  0.00  0.00    +0.114 C 
BRANCH  13  14
ATOM     14  C   UNL     1      35.329 -19.482 -21.087  0.00  0.00    -0.005 C 
ATOM     15  C   UNL     1      33.961 -19.253 -21.224  0.00  0.00    -0.003 C 
ATOM     16  C   UNL     1      35.784 -20.531 -20.288  0.00  0.00    -0.003 C 
ATOM     17  C   UNL     1      33.046 -20.072 -20.563  0.00  0.00    -0.000 C 
ATOM     18  C   UNL     1      34.869 -21.352 -19.628  0.00  0.00    -0.000 C 
ATOM     19  C   UNL     1      33.500 -21.122 -19.764  0.00  0.00    -0.000 C 
ENDBRANCH  13  14
ENDBRANCH  11  13
ENDBRANCH   2  11
TORSDOF 4
ENDMDL
MODEL 3
REMARK VINA RESULT:      -8.8      2.308      7.092
REMARK  Name = 3759
REMARK  4 active torsions:
REMARK  status: ('A' for Active; 'I' for Inactive)
REMARK    1  A    between atoms: N_2  and  N_11
REMARK    2  A    between atoms: C_3  and  C_7
REMARK    3  A    between atoms: N_11  and  C_13
REMARK    4  A    between atoms: C_13  and  C_14
REMARK                            x       y       z     vdW  Elec       q    Type
REMARK                         _______ _______ _______ _____ _____    ______ ____
ROOT
ATOM      1  O   UNL     1      35.526 -17.884 -20.843  0.00  0.00    -0.267 OA
ATOM      2  N   UNL     1      35.065 -19.046 -22.783  0.00  0.00    -0.245 N 
ATOM      3  C   UNL     1      35.024 -18.855 -21.408  0.00  0.00    +0.280 C 
ATOM      4  H   UNL     1      34.648 -19.840 -23.191  0.00  0.00    +0.169 HD
ENDROOT
BRANCH   3   7
ATOM      5  O   UNL     1      32.643 -20.972 -19.877  0.00  0.00    -0.358 OA
ATOM      6  N   UNL     1      32.987 -19.889 -20.677  0.00  0.00    -0.073 NA
ATOM      7  C   UNL     1      34.304 -19.890 -20.652  0.00  0.00    +0.177 C 
ATOM      8  C   UNL     1      34.872 -20.898 -19.892  0.00  0.00    +0.063 C 
ATOM      9  C   UNL     1      33.774 -21.566 -19.416  0.00  0.00    +0.155 C 
ATOM     10  C   UNL     1      33.594 -22.736 -18.548  0.00  0.00    +0.075 C 
ENDBRANCH   3   7
BRANCH   2  11
ATOM     11  N   UNL     1      35.703 -18.100 -23.567  0.00  0.00    -0.225 NA
ATOM     12  H   UNL     1      36.561 -18.500 -23.949  0.00  0.00    +0.145 HD
BRANCH  11  13
ATOM     13  C   UNL     1      34.827 -17.692 -24.668  0.00  0.00    +0.114 C 
BRANCH  13  14
ATOM     14  C   UNL     1      34.348 -16.288 -24.522  0.00  0.00    -0.005 C 
ATOM     15  C   UNL     1      34.666 -15.558 -23.378  0.00  0.00    -0.003 C 
ATOM     16  C   UNL     1      33.581 -15.705 -25.531  0.00  0.00    -0.003 C 
ATOM     17  C   UNL     1      34.217 -14.244 -23.242  0.00  0.00    -0.000 C 
ATOM     18  C   UNL     1      33.133 -14.391 -25.395  0.00  0.00    -0.000 C 
ATOM     19  C   UNL     1      33.451 -13.660 -24.250  0.00  0.00    -0.000 C 
ENDBRANCH  13  14
ENDBRANCH  11  13
ENDBRANCH   2  11
TORSDOF 4
ENDMDL
MODEL 4
REMARK VINA RESULT:      -8.7      2.370      3.011
REMARK  Name = 3759
REMARK  4 active torsions:
REMARK  status: ('A' for Active; 'I' for Inactive)
REMARK    1  A    between atoms: N_2  and  N_11
REMARK    2  A    between atoms: C_3  and  C_7
REMARK    3  A    between atoms: N_11  and  C_13
REMARK    4  A    between atoms: C_13  and  C_14
REMARK                            x       y       z     vdW  Elec       q    Type
REMARK                         _______ _______ _______ _____ _____    ______ ____
ROOT
ATOM      1  O   UNL     1      35.304 -15.670 -23.240  0.00  0.00    -0.267 OA
ATOM      2  N   UNL     1      34.311 -16.311 -21.258  0.00  0.00    -0.245 N 
ATOM      3  C   UNL     1      34.497 -15.456 -22.336  0.00  0.00    +0.280 C 
ATOM      4  H   UNL     1      33.652 -16.097 -20.557  0.00  0.00    +0.169 HD
ENDROOT
BRANCH   3   7
ATOM      5  O   UNL     1      32.775 -12.459 -23.077  0.00  0.00    -0.358 OA
ATOM      6  N   UNL     1      33.697 -13.452 -23.384  0.00  0.00    -0.073 NA
ATOM      7  C   UNL     1      33.634 -14.266 -22.350  0.00  0.00    +0.177 C 
ATOM      8  C   UNL     1      32.735 -13.890 -21.367  0.00  0.00    +0.063 C 
ATOM      9  C   UNL     1      32.208 -12.731 -21.874  0.00  0.00    +0.155 C 
ATOM     10  C   UNL     1      31.203 -11.776 -21.391  0.00  0.00    +0.075 C 
ENDBRANCH   3   7
BRANCH   2  11
ATOM     11  N   UNL     1      35.069 -17.467 -21.187  0.00  0.00    -0.225 NA
ATOM     12  H   UNL     1      35.341 -17.635 -20.218  0.00  0.00    +0.145 HD
BRANCH  11  13
ATOM     13  C   UNL     1      34.289 -18.606 -21.676  0.00  0.00    +0.114 C 
BRANCH  13  14
ATOM     14  C   UNL     1      34.414 -19.801 -20.793  0.00  0.00    -0.005 C 
ATOM     15  C   UNL     1      35.674 -20.313 -20.486  0.00  0.00    -0.003 C 
ATOM     16  C   UNL     1      33.270 -20.408 -20.275  0.00  0.00    -0.003 C 
ATOM     17  C   UNL     1      35.791 -21.431 -19.660  0.00  0.00    -0.000 C 
ATOM     18  C   UNL     1      33.386 -21.526 -19.449  0.00  0.00    -0.000 C 
ATOM     19  C   UNL     1      34.647 -22.038 -19.141  0.00  0.00    -0.000 C 
ENDBRANCH  13  14
ENDBRANCH  11  13
ENDBRANCH   2  11
TORSDOF 4
ENDMDL
MODEL 5
REMARK VINA RESULT:      -8.6      4.602      6.883
REMARK  Name = 3759
REMARK  4 active torsions:
REMARK  status: ('A' for Active; 'I' for Inactive)
REMARK    1  A    between atoms: N_2  and  N_11
REMARK    2  A    between atoms: C_3  and  C_7
REMARK    3  A    between atoms: N_11  and  C_13
REMARK    4  A    between atoms: C_13  and  C_14
REMARK                            x       y       z     vdW  Elec       q    Type
REMARK                         _______ _______ _______ _____ _____    ______ ____
ROOT
ATOM      1  O   UNL     1      32.742 -21.752 -19.848  0.00  0.00    -0.267 OA
ATOM      2  N   UNL     1      34.637 -22.387 -18.693  0.00  0.00    -0.245 N 
ATOM      3  C   UNL     1      33.931 -21.583 -19.577  0.00  0.00    +0.280 C 
ATOM      4  H   UNL     1      35.589 -22.212 -18.508  0.00  0.00    +0.169 HD
ENDROOT
BRANCH   3   7
ATOM      5  O   UNL     1      36.369 -19.213 -20.545  0.00  0.00    -0.358 OA
ATOM      6  N   UNL     1      35.961 -20.329 -19.825  0.00  0.00    -0.073 NA
ATOM      7  C   UNL     1      34.696 -20.474 -20.165  0.00  0.00    +0.177 C 
ATOM      8  C   UNL     1      34.224 -19.533 -21.064  0.00  0.00    +0.063 C 
ATOM      9  C   UNL     1      35.326 -18.748 -21.280  0.00  0.00    +0.155 C 
ATOM     10  C   UNL     1      35.583 -17.563 -22.108  0.00  0.00    +0.075 C 
ENDBRANCH   3   7
BRANCH   2  11
ATOM     11  N   UNL     1      33.979 -23.438 -18.078  0.00  0.00    -0.225 NA
ATOM     12  H   UNL     1      34.400 -24.320 -18.372  0.00  0.00    +0.145 HD
BRANCH  11  13
ATOM     13  C   UNL     1      34.085 -23.311 -16.623  0.00  0.00    +0.114 C 
BRANCH  13  14
ATOM     14  C   UNL     1      32.752 -23.218 -15.961  0.00  0.00    -0.005 C 
ATOM     15  C   UNL     1      31.602 -23.050 -16.731  0.00  0.00    -0.003 C 
ATOM     16  C   UNL     1      32.656 -23.300 -14.573  0.00  0.00    -0.003 C 
ATOM     17  C   UNL     1      30.355 -22.964 -16.113  0.00  0.00    -0.000 C 
ATOM     18  C   UNL     1      31.409 -23.214 -13.954  0.00  0.00    -0.000 C 
ATOM     19  C   UNL     1      30.258 -23.046 -14.723  0.00  0.00    -0.000 C 
ENDBRANCH  13  14
ENDBRANCH  11  13
ENDBRANCH   2  11
TORSDOF 4
ENDMDL
MODEL 6
REMARK VINA RESULT:      -8.5      1.340      1.868
REMARK  Name = 3759
REMARK  4 active torsions:
REMARK  status: ('A' for Active; 'I' for Inactive)
REMARK    1  A    between atoms: N_2  and  N_11
REMARK    2  A    between atoms: C_3  and  C_7
REMARK    3  A    between atoms: N_11  and  C_13
REMARK    4  A    between atoms: C_13  and  C_14
REMARK                            x       y       z     vdW  Elec       q    Type
REMARK                         _______ _______ _______ _____ _____    ______ ____
ROOT
ATOM      1  O   UNL     1      32.972 -15.932 -21.062  0.00  0.00    -0.267 OA
ATOM      2  N   UNL     1      34.986 -16.543 -22.009  0.00  0.00    -0.245 N 
ATOM      3  C   UNL     1      33.773 -15.868 -21.994  0.00  0.00    +0.280 C 
ATOM      4  H   UNL     1      35.596 -16.461 -22.779  0.00  0.00    +0.169 HD
ENDROOT
BRANCH   3   7
ATOM      5  O   UNL     1      32.970 -13.290 -24.276  0.00  0.00    -0.358 OA
ATOM      6  N   UNL     1      33.133 -13.779 -22.986  0.00  0.00    -0.073 NA
ATOM      7  C   UNL     1      33.508 -15.029 -23.172  0.00  0.00    +0.177 C 
ATOM      8  C   UNL     1      33.608 -15.415 -24.497  0.00  0.00    +0.063 C 
ATOM      9  C   UNL     1      33.257 -14.273 -25.168  0.00  0.00    +0.155 C 
ATOM     10  C   UNL     1      33.135 -13.926 -26.589  0.00  0.00    +0.075 C 
ENDBRANCH   3   7
BRANCH   2  11
ATOM     11  N   UNL     1      35.320 -17.334 -20.923  0.00  0.00    -0.225 NA
ATOM     12  H   UNL     1      34.502 -17.452 -20.325  0.00  0.00    +0.145 HD
BRANCH  11  13
ATOM     13  C   UNL     1      35.776 -18.647 -21.384  0.00  0.00    +0.114 C 
BRANCH  13  14
ATOM     14  C   UNL     1      35.082 -19.768 -20.686  0.00  0.00    -0.005 C 
ATOM     15  C   UNL     1      35.826 -20.759 -20.047  0.00  0.00    -0.003 C 
ATOM     16  C   UNL     1      33.689 -19.824 -20.673  0.00  0.00    -0.003 C 
ATOM     17  C   UNL     1      35.177 -21.807 -19.394  0.00  0.00    -0.000 C 
ATOM     18  C   UNL     1      33.039 -20.871 -20.019  0.00  0.00    -0.000 C 
ATOM     19  C   UNL     1      33.783 -21.863 -19.380  0.00  0.00    -0.000 C 
ENDBRANCH  13  14
ENDBRANCH  11  13
ENDBRANCH   2  11
TORSDOF 4
ENDMDL
MODEL 7
REMARK VINA RESULT:      -8.4     11.763     13.304
REMARK  Name = 3759
REMARK  4 active torsions:
REMARK  status: ('A' for Active; 'I' for Inactive)
REMARK    1  A    between atoms: N_2  and  N_11
REMARK    2  A    between atoms: C_3  and  C_7
REMARK    3  A    between atoms: N_11  and  C_13
REMARK    4  A    between atoms: C_13  and  C_14
REMARK                            x       y       z     vdW  Elec       q    Type
REMARK                         _______ _______ _______ _____ _____    ______ ____
ROOT
ATOM      1  O   UNL     1      35.283 -25.006 -11.071  0.00  0.00    -0.267 OA
ATOM      2  N   UNL     1      34.770 -24.719 -13.303  0.00  0.00    -0.245 N 
ATOM      3  C   UNL     1      35.648 -24.859 -12.237  0.00  0.00    +0.280 C 
ATOM      4  H   UNL     1      35.109 -24.603 -14.220  0.00  0.00    +0.169 HD
ENDROOT
BRANCH   3   7
ATOM      5  O   UNL     1      39.101 -24.199 -12.606  0.00  0.00    -0.358 OA
ATOM      6  N   UNL     1      37.850 -23.922 -12.070  0.00  0.00    -0.073 NA
ATOM      7  C   UNL     1      37.074 -24.850 -12.594  0.00  0.00    +0.177 C 
ATOM      8  C   UNL     1      37.716 -25.731 -13.446  0.00  0.00    +0.063 C 
ATOM      9  C   UNL     1      39.009 -25.280 -13.424  0.00  0.00    +0.155 C 
ATOM     10  C   UNL     1      40.249 -25.713 -14.080  0.00  0.00    +0.075 C 
ENDBRANCH   3   7
BRANCH   2  11
ATOM     11  N   UNL     1      33.409 -24.744 -13.050  0.00  0.00    -0.225 NA
ATOM     12  H   UNL     1      33.251 -24.760 -12.042  0.00  0.00    +0.145 HD
BRANCH  11  13
ATOM     13  C   UNL     1      32.774 -23.553 -13.619  0.00  0.00    +0.114 C 
BRANCH  13  14
ATOM     14  C   UNL     1      31.444 -23.851 -14.224  0.00  0.00    -0.005 C 
ATOM     15  C   UNL     1      30.947 -25.154 -14.206  0.00  0.00    -0.003 C 
ATOM     16  C   UNL     1      30.698 -22.828 -14.808  0.00  0.00    -0.003 C 
ATOM     17  C   UNL     1      29.703 -25.433 -14.772  0.00  0.00    -0.000 C 
ATOM     18  C   UNL     1      29.454 -23.107 -15.373  0.00  0.00    -0.000 C 
ATOM     19  C   UNL     1      28.955 -24.409 -15.355  0.00  0.00    -0.000 C 
ENDBRANCH  13  14
ENDBRANCH  11  13
ENDBRANCH   2  11
TORSDOF 4
ENDMDL
MODEL 8
REMARK VINA RESULT:      -8.3      6.269     10.516
REMARK  Name = 3759
REMARK  4 active torsions:
REMARK  status: ('A' for Active; 'I' for Inactive)
REMARK    1  A    between atoms: N_2  and  N_11
REMARK    2  A    between atoms: C_3  and  C_7
REMARK    3  A    between atoms: N_11  and  C_13
REMARK    4  A    between atoms: C_13  and  C_14
REMARK                            x       y       z     vdW  Elec       q    Type
REMARK                         _______ _______ _______ _____ _____    ______ ____
ROOT
ATOM      1  O   UNL     1      35.222 -22.625 -16.276  0.00  0.00    -0.267 OA
ATOM      2  N   UNL     1      37.327 -21.860 -16.831  0.00  0.00    -0.245 N 
ATOM      3  C   UNL     1      36.442 -22.665 -16.127  0.00  0.00    +0.280 C 
ATOM      4  H   UNL     1      38.298 -21.927 -16.677  0.00  0.00    +0.169 HD
ENDROOT
BRANCH   3   7
ATOM      5  O   UNL     1      38.624 -24.622 -14.150  0.00  0.00    -0.358 OA
ATOM      6  N   UNL     1      38.380 -23.642 -15.105  0.00  0.00    -0.073 NA
ATOM      7  C   UNL     1      37.065 -23.610 -15.188  0.00  0.00    +0.177 C 
ATOM      8  C   UNL     1      36.407 -24.499 -14.357  0.00  0.00    +0.063 C 
ATOM      9  C   UNL     1      37.441 -25.124 -13.711  0.00  0.00    +0.155 C 
ATOM     10  C   UNL     1      37.514 -26.178 -12.692  0.00  0.00    +0.075 C 
ENDBRANCH   3   7
BRANCH   2  11
ATOM     11  N   UNL     1      36.818 -20.960 -17.753  0.00  0.00    -0.225 NA
ATOM     12  H   UNL     1      37.515 -20.240 -17.944  0.00  0.00    +0.145 HD
BRANCH  11  13
ATOM     13  C   UNL     1      36.487 -21.656 -18.998  0.00  0.00    +0.114 C 
BRANCH  13  14
ATOM     14  C   UNL     1      35.366 -21.004 -19.734  0.00  0.00    -0.005 C 
ATOM     15  C   UNL     1      34.049 -21.378 -19.470  0.00  0.00    -0.003 C 
ATOM     16  C   UNL     1      35.634 -20.020 -20.684  0.00  0.00    -0.003 C 
ATOM     17  C   UNL     1      32.999 -20.768 -20.157  0.00  0.00    -0.000 C 
ATOM     18  C   UNL     1      34.585 -19.409 -21.372  0.00  0.00    -0.000 C 
ATOM     19  C   UNL     1      33.267 -19.783 -21.109  0.00  0.00    -0.000 C 
ENDBRANCH  13  14
ENDBRANCH  11  13
ENDBRANCH   2  11
TORSDOF 4
ENDMDL
MODEL 9
REMARK VINA RESULT:      -8.3      2.277      6.888
REMARK  Name = 3759
REMARK  4 active torsions:
REMARK  status: ('A' for Active; 'I' for Inactive)
REMARK    1  A    between atoms: N_2  and  N_11
REMARK    2  A    between atoms: C_3  and  C_7
REMARK    3  A    between atoms: N_11  and  C_13
REMARK    4  A    between atoms: C_13  and  C_14
REMARK                            x       y       z     vdW  Elec       q    Type
REMARK                         _______ _______ _______ _____ _____    ______ ____
ROOT
ATOM      1  O   UNL     1      35.166 -16.261 -20.835  0.00  0.00    -0.267 OA
ATOM      2  N   UNL     1      35.368 -17.255 -22.908  0.00  0.00    -0.245 N 
ATOM      3  C   UNL     1      35.215 -17.277 -21.528  0.00  0.00    +0.280 C 
ATOM      4  H   UNL     1      35.403 -18.095 -23.422  0.00  0.00    +0.169 HD
ENDROOT
BRANCH   3   7
ATOM      5  O   UNL     1      35.687 -20.406 -19.953  0.00  0.00    -0.358 OA
ATOM      6  N   UNL     1      36.155 -19.182 -20.415  0.00  0.00    -0.073 NA
ATOM      7  C   UNL     1      35.085 -18.614 -20.933  0.00  0.00    +0.177 C 
ATOM      8  C   UNL     1      33.928 -19.371 -20.853  0.00  0.00    +0.063 C 
ATOM      9  C   UNL     1      34.358 -20.506 -20.219  0.00  0.00    +0.155 C 
ATOM     10  C   UNL     1      33.697 -21.747 -19.796  0.00  0.00    +0.075 C 
ENDBRANCH   3   7
BRANCH   2  11
ATOM     11  N   UNL     1      35.473 -16.030 -23.546  0.00  0.00    -0.225 NA
ATOM     12  H   UNL     1      36.201 -16.081 -24.259  0.00  0.00    +0.145 HD
BRANCH  11  13
ATOM     13  C   UNL     1      34.198 -15.688 -24.180  0.00  0.00    +0.114 C 
BRANCH  13  14
ATOM     14  C   UNL     1      33.571 -14.476 -23.578  0.00  0.00    -0.005 C 
ATOM     15  C   UNL     1      32.796 -14.592 -22.425  0.00  0.00    -0.003 C 
ATOM     16  C   UNL     1      33.760 -13.227 -24.169  0.00  0.00    -0.003 C 
ATOM     17  C   UNL     1      32.209 -13.458 -21.862  0.00  0.00    -0.000 C 
ATOM     18  C   UNL     1      33.175 -12.093 -23.605  0.00  0.00    -0.000 C 
ATOM     19  C   UNL     1      32.399 -12.208 -22.452  0.00  0.00    -0.000 C 
ENDBRANCH  13  14
ENDBRANCH  11  13
ENDBRANCH   2  11
TORSDOF 4
ENDMDL
