MODEL 1
REMARK VINA RESULT:      -8.5      0.000      0.000
REMARK  Name = 23727981
REMARK  2 active torsions:
REMARK  status: ('A' for Active; 'I' for Inactive)
REMARK    1  A    between atoms: C_4  and  C_14
REMARK    2  A    between atoms: C_7  and  O_20
REMARK                            x       y       z     vdW  Elec       q    Type
REMARK                         _______ _______ _______ _____ _____    ______ ____
ROOT
ATOM      1  N   UNL     1      33.217 -15.525 -26.350  0.00  0.00    -0.297 N 
ATOM      2  N   UNL     1      34.390 -17.378 -25.354  0.00  0.00    -0.229 NA
ATOM      3  C   UNL     1      33.932 -15.235 -24.254  0.00  0.00    +0.069 C 
ATOM      4  C   UNL     1      33.267 -14.055 -24.680  0.00  0.00    +0.051 C 
ATOM      5  C   UNL     1      33.883 -16.132 -25.318  0.00  0.00    +0.135 C 
ATOM      6  C   UNL     1      32.838 -14.262 -25.973  0.00  0.00    +0.066 C 
ATOM      7  C   UNL     1      34.577 -15.660 -23.082  0.00  0.00    +0.143 C 
ATOM      8  C   UNL     1      35.120 -16.943 -23.065  0.00  0.00    +0.058 C 
ATOM      9  C   UNL     1      34.999 -17.734 -24.200  0.00  0.00    +0.103 C 
ATOM     10  H   UNL     1      33.038 -15.933 -27.228  0.00  0.00    +0.154 HD
ENDROOT
BRANCH   4  14
ATOM     11  N   UNL     1      32.110 -12.873 -22.999  0.00  0.00    -0.338 NA
ATOM     12  N   UNL     1      32.509 -10.531 -22.598  0.00  0.00    -0.170 NA
ATOM     13  N   UNL     1      30.944 -11.723 -21.319  0.00  0.00    -0.293 N 
ATOM     14  C   UNL     1      33.030 -12.824 -23.983  0.00  0.00    +0.147 C 
ATOM     15  C   UNL     1      33.722 -11.680 -24.329  0.00  0.00    +0.055 C 
ATOM     16  C   UNL     1      33.417 -10.553 -23.595  0.00  0.00    +0.114 C 
ATOM     17  C   UNL     1      31.901 -11.708 -22.356  0.00  0.00    +0.141 C 
ATOM     18  H   UNL     1      30.469 -12.556 -21.099  0.00  0.00    +0.155 HD
ATOM     19  H   UNL     1      30.751 -10.899 -20.816  0.00  0.00    +0.155 HD
ENDBRANCH   4  14
BRANCH   7  20
ATOM     20  O   UNL     1      34.682 -14.860 -21.978  0.00  0.00    -0.471 OA
ATOM     21  C   UNL     1      34.480 -15.481 -20.713  0.00  0.00    +0.252 C 
ENDBRANCH   7  20
TORSDOF 2
ENDMDL
MODEL 2
REMARK VINA RESULT:      -8.4      2.889      5.888
REMARK  Name = 23727981
REMARK  2 active torsions:
REMARK  status: ('A' for Active; 'I' for Inactive)
REMARK    1  A    between atoms: C_4  and  C_14
REMARK    2  A    between atoms: C_7  and  O_20
REMARK                            x       y       z     vdW  Elec       q    Type
REMARK                         _______ _______ _______ _____ _____    ______ ____
ROOT
ATOM      1  N   UNL     1      34.197 -17.625 -25.495  0.00  0.00    -0.297 N 
ATOM      2  N   UNL     1      33.735 -15.262 -25.435  0.00  0.00    -0.229 NA
ATOM      3  C   UNL     1      34.464 -16.613 -23.522  0.00  0.00    +0.069 C 
ATOM      4  C   UNL     1      34.777 -17.991 -23.378  0.00  0.00    +0.051 C 
ATOM      5  C   UNL     1      34.107 -16.418 -24.854  0.00  0.00    +0.135 C 
ATOM      6  C   UNL     1      34.605 -18.588 -24.607  0.00  0.00    +0.066 C 
ATOM      7  C   UNL     1      34.441 -15.492 -22.677  0.00  0.00    +0.143 C 
ATOM      8  C   UNL     1      34.063 -14.269 -23.228  0.00  0.00    +0.058 C 
ATOM      9  C   UNL     1      33.730 -14.218 -24.575  0.00  0.00    +0.103 C 
ATOM     10  H   UNL     1      34.000 -17.778 -26.447  0.00  0.00    +0.154 HD
ENDROOT
BRANCH   4  14
ATOM     11  N   UNL     1      34.258 -19.486 -21.630  0.00  0.00    -0.338 NA
ATOM     12  N   UNL     1      35.912 -20.165 -20.014  0.00  0.00    -0.170 NA
ATOM     13  N   UNL     1      33.713 -20.975 -19.900  0.00  0.00    -0.293 N 
ATOM     14  C   UNL     1      35.202 -18.727 -22.222  0.00  0.00    +0.147 C 
ATOM     15  C   UNL     1      36.505 -18.636 -21.776  0.00  0.00    +0.055 C 
ATOM     16  C   UNL     1      36.805 -19.385 -20.656  0.00  0.00    +0.114 C 
ATOM     17  C   UNL     1      34.675 -20.169 -20.546  0.00  0.00    +0.141 C 
ATOM     18  H   UNL     1      32.793 -21.016 -20.246  0.00  0.00    +0.155 HD
ATOM     19  H   UNL     1      33.963 -21.496 -19.103  0.00  0.00    +0.155 HD
ENDBRANCH   4  14
BRANCH   7  20
ATOM     20  O   UNL     1      34.774 -15.572 -21.354  0.00  0.00    -0.471 OA
ATOM     21  C   UNL     1      33.735 -15.314 -20.414  0.00  0.00    +0.252 C 
ENDBRANCH   7  20
TORSDOF 2
ENDMDL
MODEL 3
REMARK VINA RESULT:      -8.4      9.596     12.302
REMARK  Name = 23727981
REMARK  2 active torsions:
REMARK  status: ('A' for Active; 'I' for Inactive)
REMARK    1  A    between atoms: C_4  and  C_14
REMARK    2  A    between atoms: C_7  and  O_20
REMARK                            x       y       z     vdW  Elec       q    Type
REMARK                         _______ _______ _______ _____ _____    ______ ____
ROOT
ATOM      1  N   UNL     1      32.070 -22.798 -17.671  0.00  0.00    -0.297 N 
ATOM      2  N   UNL     1      32.886 -21.540 -19.556  0.00  0.00    -0.229 NA
ATOM      3  C   UNL     1      34.283 -22.532 -17.802  0.00  0.00    +0.069 C 
ATOM      4  C   UNL     1      33.979 -23.291 -16.640  0.00  0.00    +0.051 C 
ATOM      5  C   UNL     1      33.071 -22.241 -18.422  0.00  0.00    +0.135 C 
ATOM      6  C   UNL     1      32.611 -23.439 -16.586  0.00  0.00    +0.066 C 
ATOM      7  C   UNL     1      35.452 -22.051 -18.412  0.00  0.00    +0.143 C 
ATOM      8  C   UNL     1      35.318 -21.318 -19.590  0.00  0.00    +0.058 C 
ATOM      9  C   UNL     1      34.045 -21.101 -20.099  0.00  0.00    +0.103 C 
ATOM     10  H   UNL     1      31.109 -22.745 -17.878  0.00  0.00    +0.154 HD
ENDROOT
BRANCH   4  14
ATOM     11  N   UNL     1      35.236 -25.124 -15.849  0.00  0.00    -0.338 NA
ATOM     12  N   UNL     1      36.506 -24.996 -13.805  0.00  0.00    -0.170 NA
ATOM     13  N   UNL     1      36.478 -26.962 -15.086  0.00  0.00    -0.293 N 
ATOM     14  C   UNL     1      34.849 -23.848 -15.645  0.00  0.00    +0.147 C 
ATOM     15  C   UNL     1      35.244 -23.091 -14.560  0.00  0.00    +0.055 C 
ATOM     16  C   UNL     1      36.080 -23.724 -13.664  0.00  0.00    +0.114 C 
ATOM     17  C   UNL     1      36.053 -25.628 -14.904  0.00  0.00    +0.141 C 
ATOM     18  H   UNL     1      36.177 -27.472 -15.872  0.00  0.00    +0.155 HD
ATOM     19  H   UNL     1      37.075 -27.382 -14.426  0.00  0.00    +0.155 HD
ENDBRANCH   4  14
BRANCH   7  20
ATOM     20  O   UNL     1      36.694 -22.280 -17.888  0.00  0.00    -0.471 OA
ATOM     21  C   UNL     1      37.198 -21.304 -16.981  0.00  0.00    +0.252 C 
ENDBRANCH   7  20
TORSDOF 2
ENDMDL
MODEL 4
REMARK VINA RESULT:      -8.3      0.826      1.556
REMARK  Name = 23727981
REMARK  2 active torsions:
REMARK  status: ('A' for Active; 'I' for Inactive)
REMARK    1  A    between atoms: C_4  and  C_14
REMARK    2  A    between atoms: C_7  and  O_20
REMARK                            x       y       z     vdW  Elec       q    Type
REMARK                         _______ _______ _______ _____ _____    ______ ____
ROOT
ATOM      1  N   UNL     1      33.225 -15.507 -26.314  0.00  0.00    -0.297 N 
ATOM      2  N   UNL     1      34.448 -17.362 -25.385  0.00  0.00    -0.229 NA
ATOM      3  C   UNL     1      33.937 -15.271 -24.211  0.00  0.00    +0.069 C 
ATOM      4  C   UNL     1      33.241 -14.095 -24.595  0.00  0.00    +0.051 C 
ATOM      5  C   UNL     1      33.909 -16.132 -25.305  0.00  0.00    +0.135 C 
ATOM      6  C   UNL     1      32.814 -14.269 -25.893  0.00  0.00    +0.066 C 
ATOM      7  C   UNL     1      34.595 -15.719 -23.054  0.00  0.00    +0.143 C 
ATOM      8  C   UNL     1      35.172 -16.987 -23.083  0.00  0.00    +0.058 C 
ATOM      9  C   UNL     1      35.069 -17.742 -24.244  0.00  0.00    +0.103 C 
ATOM     10  H   UNL     1      33.055 -15.889 -27.206  0.00  0.00    +0.154 HD
ENDROOT
BRANCH   4  14
ATOM     11  N   UNL     1      33.624 -11.790 -24.272  0.00  0.00    -0.338 NA
ATOM     12  N   UNL     1      32.530 -10.562 -22.511  0.00  0.00    -0.170 NA
ATOM     13  N   UNL     1      34.025  -9.498 -23.974  0.00  0.00    -0.293 N 
ATOM     14  C   UNL     1      32.973 -12.895 -23.855  0.00  0.00    +0.147 C 
ATOM     15  C   UNL     1      32.097 -12.913 -22.789  0.00  0.00    +0.055 C 
ATOM     16  C   UNL     1      31.913 -11.705 -22.148  0.00  0.00    +0.114 C 
ATOM     17  C   UNL     1      33.360 -10.674 -23.565  0.00  0.00    +0.141 C 
ATOM     18  H   UNL     1      34.643  -9.522 -24.739  0.00  0.00    +0.155 HD
ATOM     19  H   UNL     1      33.869  -8.653 -23.493  0.00  0.00    +0.155 HD
ENDBRANCH   4  14
BRANCH   7  20
ATOM     20  O   UNL     1      34.681 -14.955 -21.924  0.00  0.00    -0.471 OA
ATOM     21  C   UNL     1      34.508 -15.627 -20.680  0.00  0.00    +0.252 C 
ENDBRANCH   7  20
TORSDOF 2
ENDMDL
MODEL 5
REMARK VINA RESULT:      -8.3     11.075     13.392
REMARK  Name = 23727981
REMARK  2 active torsions:
REMARK  status: ('A' for Active; 'I' for Inactive)
REMARK    1  A    between atoms: C_4  and  C_14
REMARK    2  A    between atoms: C_7  and  O_20
REMARK                            x       y       z     vdW  Elec       q    Type
REMARK                         _______ _______ _______ _____ _____    ______ ____
ROOT
ATOM      1  N   UNL     1      32.376 -22.605 -18.057  0.00  0.00    -0.297 N 
ATOM      2  N   UNL     1      30.200 -22.413 -17.044  0.00  0.00    -0.229 NA
ATOM      3  C   UNL     1      32.234 -23.165 -15.900  0.00  0.00    +0.069 C 
ATOM      4  C   UNL     1      33.577 -23.336 -16.332  0.00  0.00    +0.051 C 
ATOM      5  C   UNL     1      31.512 -22.708 -16.999  0.00  0.00    +0.135 C 
ATOM      6  C   UNL     1      33.634 -22.984 -17.662  0.00  0.00    +0.066 C 
ATOM      7  C   UNL     1      31.534 -23.342 -14.696  0.00  0.00    +0.143 C 
ATOM      8  C   UNL     1      30.171 -23.050 -14.686  0.00  0.00    +0.058 C 
ATOM      9  C   UNL     1      29.576 -22.602 -15.858  0.00  0.00    +0.103 C 
ATOM     10  H   UNL     1      32.132 -22.306 -18.963  0.00  0.00    +0.154 HD
ENDROOT
BRANCH   4  14
ATOM     11  N   UNL     1      34.985 -25.106 -15.666  0.00  0.00    -0.338 NA
ATOM     12  N   UNL     1      36.908 -24.732 -14.262  0.00  0.00    -0.170 NA
ATOM     13  N   UNL     1      36.370 -26.886 -15.019  0.00  0.00    -0.293 N 
ATOM     14  C   UNL     1      34.731 -23.783 -15.608  0.00  0.00    +0.147 C 
ATOM     15  C   UNL     1      35.509 -22.883 -14.907  0.00  0.00    +0.055 C 
ATOM     16  C   UNL     1      36.594 -23.420 -14.246  0.00  0.00    +0.114 C 
ATOM     17  C   UNL     1      36.073 -25.507 -14.980  0.00  0.00    +0.141 C 
ATOM     18  H   UNL     1      35.793 -27.500 -15.529  0.00  0.00    +0.155 HD
ATOM     19  H   UNL     1      37.153 -27.235 -14.535  0.00  0.00    +0.155 HD
ENDBRANCH   4  14
BRANCH   7  20
ATOM     20  O   UNL     1      32.146 -23.785 -13.557  0.00  0.00    -0.471 OA
ATOM     21  C   UNL     1      32.158 -25.192 -13.340  0.00  0.00    +0.252 C 
ENDBRANCH   7  20
TORSDOF 2
ENDMDL
MODEL 6
REMARK VINA RESULT:      -8.2      3.970      6.976
REMARK  Name = 23727981
REMARK  2 active torsions:
REMARK  status: ('A' for Active; 'I' for Inactive)
REMARK    1  A    between atoms: C_4  and  C_14
REMARK    2  A    between atoms: C_7  and  O_20
REMARK                            x       y       z     vdW  Elec       q    Type
REMARK                         _______ _______ _______ _____ _____    ______ ____
ROOT
ATOM      1  N   UNL     1      34.661 -15.753 -21.713  0.00  0.00    -0.297 N 
ATOM      2  N   UNL     1      34.487 -15.549 -24.107  0.00  0.00    -0.229 NA
ATOM      3  C   UNL     1      34.801 -17.650 -22.883  0.00  0.00    +0.069 C 
ATOM      4  C   UNL     1      34.922 -17.953 -21.500  0.00  0.00    +0.051 C 
ATOM      5  C   UNL     1      34.639 -16.271 -22.981  0.00  0.00    +0.135 C 
ATOM      6  C   UNL     1      34.831 -16.766 -20.805  0.00  0.00    +0.066 C 
ATOM      7  C   UNL     1      34.808 -18.386 -24.078  0.00  0.00    +0.143 C 
ATOM      8  C   UNL     1      34.653 -17.687 -25.274  0.00  0.00    +0.058 C 
ATOM      9  C   UNL     1      34.501 -16.308 -25.227  0.00  0.00    +0.103 C 
ATOM     10  H   UNL     1      34.568 -14.799 -21.488  0.00  0.00    +0.154 HD
ENDROOT
BRANCH   4  14
ATOM     11  N   UNL     1      33.978 -19.881 -20.525  0.00  0.00    -0.338 NA
ATOM     12  N   UNL     1      35.352 -21.624 -19.586  0.00  0.00    -0.170 NA
ATOM     13  N   UNL     1      33.012 -21.790 -19.561  0.00  0.00    -0.293 N 
ATOM     14  C   UNL     1      35.106 -19.214 -20.842  0.00  0.00    +0.147 C 
ATOM     15  C   UNL     1      36.376 -19.680 -20.567  0.00  0.00    +0.055 C 
ATOM     16  C   UNL     1      36.438 -20.902 -19.931  0.00  0.00    +0.114 C 
ATOM     17  C   UNL     1      34.171 -21.063 -19.907  0.00  0.00    +0.141 C 
ATOM     18  H   UNL     1      32.122 -21.427 -19.772  0.00  0.00    +0.155 HD
ATOM     19  H   UNL     1      33.094 -22.659 -19.107  0.00  0.00    +0.155 HD
ENDBRANCH   4  14
BRANCH   7  20
ATOM     20  O   UNL     1      34.959 -19.745 -24.096  0.00  0.00    -0.471 OA
ATOM     21  C   UNL     1      34.797 -20.393 -25.353  0.00  0.00    +0.252 C 
ENDBRANCH   7  20
TORSDOF 2
ENDMDL
MODEL 7
REMARK VINA RESULT:      -8.1      1.825      5.771
REMARK  Name = 23727981
REMARK  2 active torsions:
REMARK  status: ('A' for Active; 'I' for Inactive)
REMARK    1  A    between atoms: C_4  and  C_14
REMARK    2  A    between atoms: C_7  and  O_20
REMARK                            x       y       z     vdW  Elec       q    Type
REMARK                         _______ _______ _______ _____ _____    ______ ____
ROOT
ATOM      1  N   UNL     1      31.744 -12.042 -21.694  0.00  0.00    -0.297 N 
ATOM      2  N   UNL     1      32.360  -9.745 -22.074  0.00  0.00    -0.229 NA
ATOM      3  C   UNL     1      33.085 -11.650 -23.437  0.00  0.00    +0.069 C 
ATOM      4  C   UNL     1      32.824 -13.044 -23.361  0.00  0.00    +0.051 C 
ATOM      5  C   UNL     1      32.396 -11.054 -22.383  0.00  0.00    +0.135 C 
ATOM      6  C   UNL     1      31.997 -13.256 -22.280  0.00  0.00    +0.066 C 
ATOM      7  C   UNL     1      33.828 -10.809 -24.280  0.00  0.00    +0.143 C 
ATOM      8  C   UNL     1      33.825  -9.443 -24.004  0.00  0.00    +0.058 C 
ATOM      9  C   UNL     1      33.093  -8.983 -22.918  0.00  0.00    +0.103 C 
ATOM     10  H   UNL     1      31.180 -11.902 -20.899  0.00  0.00    +0.154 HD
ENDROOT
BRANCH   4  14
ATOM     11  N   UNL     1      34.166 -14.965 -23.632  0.00  0.00    -0.338 NA
ATOM     12  N   UNL     1      34.212 -16.192 -25.706  0.00  0.00    -0.170 NA
ATOM     13  N   UNL     1      35.510 -16.873 -23.874  0.00  0.00    -0.293 N 
ATOM     14  C   UNL     1      33.282 -14.117 -24.196  0.00  0.00    +0.147 C 
ATOM     15  C   UNL     1      32.822 -14.239 -25.492  0.00  0.00    +0.055 C 
ATOM     16  C   UNL     1      33.328 -15.306 -26.206  0.00  0.00    +0.114 C 
ATOM     17  C   UNL     1      34.584 -15.965 -24.432  0.00  0.00    +0.141 C 
ATOM     18  H   UNL     1      35.816 -16.756 -22.946  0.00  0.00    +0.155 HD
ATOM     19  H   UNL     1      35.849 -17.623 -24.413  0.00  0.00    +0.155 HD
ENDBRANCH   4  14
BRANCH   7  20
ATOM     20  O   UNL     1      34.540 -11.290 -25.344  0.00  0.00    -0.471 OA
ATOM     21  C   UNL     1      35.493 -10.408 -25.930  0.00  0.00    +0.252 C 
ENDBRANCH   7  20
TORSDOF 2
ENDMDL
MODEL 8
REMARK VINA RESULT:      -8.1      4.853      7.030
REMARK  Name = 23727981
REMARK  2 active torsions:
REMARK  status: ('A' for Active; 'I' for Inactive)
REMARK    1  A    between atoms: C_4  and  C_14
REMARK    2  A    between atoms: C_7  and  O_20
REMARK                            x       y       z     vdW  Elec       q    Type
REMARK                         _______ _______ _______ _____ _____    ______ ____
ROOT
ATOM      1  N   UNL     1      37.040 -20.683 -19.539  0.00  0.00    -0.297 N 
ATOM      2  N   UNL     1      35.499 -22.165 -18.430  0.00  0.00    -0.229 NA
ATOM      3  C   UNL     1      34.907 -20.563 -20.190  0.00  0.00    +0.069 C 
ATOM      4  C   UNL     1      35.671 -19.630 -20.941  0.00  0.00    +0.051 C 
ATOM      5  C   UNL     1      35.791 -21.204 -19.326  0.00  0.00    +0.135 C 
ATOM      6  C   UNL     1      36.978 -19.726 -20.519  0.00  0.00    +0.066 C 
ATOM      7  C   UNL     1      33.559 -20.950 -20.138  0.00  0.00    +0.143 C 
ATOM      8  C   UNL     1      33.201 -21.943 -19.228  0.00  0.00    +0.058 C 
ATOM      9  C   UNL     1      34.187 -22.497 -18.423  0.00  0.00    +0.103 C 
ATOM     10  H   UNL     1      37.857 -20.954 -19.061  0.00  0.00    +0.154 HD
ENDROOT
BRANCH   4  14
ATOM     11  N   UNL     1      35.117 -17.428 -21.581  0.00  0.00    -0.338 NA
ATOM     12  N   UNL     1      34.488 -16.891 -23.845  0.00  0.00    -0.170 NA
ATOM     13  N   UNL     1      34.571 -15.230 -22.190  0.00  0.00    -0.293 N 
ATOM     14  C   UNL     1      35.262 -18.713 -21.966  0.00  0.00    +0.147 C 
ATOM     15  C   UNL     1      35.042 -19.157 -23.254  0.00  0.00    +0.055 C 
ATOM     16  C   UNL     1      34.652 -18.192 -24.159  0.00  0.00    +0.114 C 
ATOM     17  C   UNL     1      34.733 -16.583 -22.557  0.00  0.00    +0.141 C 
ATOM     18  H   UNL     1      34.737 -14.948 -21.262  0.00  0.00    +0.155 HD
ATOM     19  H   UNL     1      34.292 -14.568 -22.864  0.00  0.00    +0.155 HD
ENDBRANCH   4  14
BRANCH   7  20
ATOM     20  O   UNL     1      32.608 -20.387 -20.943  0.00  0.00    -0.471 OA
ATOM     21  C   UNL     1      32.087 -19.126 -20.535  0.00  0.00    +0.252 C 
ENDBRANCH   7  20
TORSDOF 2
ENDMDL
MODEL 9
REMARK VINA RESULT:      -8.0      1.573      5.215
REMARK  Name = 23727981
REMARK  2 active torsions:
REMARK  status: ('A' for Active; 'I' for Inactive)
REMARK    1  A    between atoms: C_4  and  C_14
REMARK    2  A    between atoms: C_7  and  O_20
REMARK                            x       y       z     vdW  Elec       q    Type
REMARK                         _______ _______ _______ _____ _____    ______ ____
ROOT
ATOM      1  N   UNL     1      33.461 -10.468 -24.101  0.00  0.00    -0.297 N 
ATOM      2  N   UNL     1      32.190  -9.920 -22.130  0.00  0.00    -0.229 NA
ATOM      3  C   UNL     1      32.709 -12.191 -22.895  0.00  0.00    +0.069 C 
ATOM      4  C   UNL     1      33.432 -12.692 -24.010  0.00  0.00    +0.051 C 
ATOM      5  C   UNL     1      32.747 -10.802 -22.980  0.00  0.00    +0.135 C 
ATOM      6  C   UNL     1      33.883 -11.609 -24.734  0.00  0.00    +0.066 C 
ATOM      7  C   UNL     1      32.020 -12.752 -21.808  0.00  0.00    +0.143 C 
ATOM      8  C   UNL     1      31.424 -11.883 -20.896  0.00  0.00    +0.058 C 
ATOM      9  C   UNL     1      31.540 -10.515 -21.103  0.00  0.00    +0.103 C 
ATOM     10  H   UNL     1      33.644  -9.550 -24.405  0.00  0.00    +0.154 HD
ENDROOT
BRANCH   4  14
ATOM     11  N   UNL     1      34.528 -14.739 -23.598  0.00  0.00    -0.338 NA
ATOM     12  N   UNL     1      34.277 -16.626 -25.075  0.00  0.00    -0.170 NA
ATOM     13  N   UNL     1      35.630 -16.763 -23.163  0.00  0.00    -0.293 N 
ATOM     14  C   UNL     1      33.702 -14.044 -24.406  0.00  0.00    +0.147 C 
ATOM     15  C   UNL     1      33.132 -14.564 -25.551  0.00  0.00    +0.055 C 
ATOM     16  C   UNL     1      33.460 -15.873 -25.838  0.00  0.00    +0.114 C 
ATOM     17  C   UNL     1      34.769 -16.006 -23.986  0.00  0.00    +0.141 C 
ATOM     18  H   UNL     1      36.018 -16.360 -22.353  0.00  0.00    +0.155 HD
ATOM     19  H   UNL     1      35.842 -17.695 -23.399  0.00  0.00    +0.155 HD
ENDBRANCH   4  14
BRANCH   7  20
ATOM     20  O   UNL     1      31.922 -14.103 -21.627  0.00  0.00    -0.471 OA
ATOM     21  C   UNL     1      32.698 -14.669 -20.576  0.00  0.00    +0.252 C 
ENDBRANCH   7  20
TORSDOF 2
ENDMDL
