MODEL 1
REMARK VINA RESULT:      -8.9      0.000      0.000
REMARK  Name = 1978
REMARK  11 active torsions:
REMARK  status: ('A' for Active; 'I' for Inactive)
REMARK    1  A    between atoms: C_1  and  O_17
REMARK    2  A    between atoms: C_2  and  C_15
REMARK    3  A    between atoms: C_3  and  N_8
REMARK    4  A    between atoms: C_9  and  C_11
REMARK    5  A    between atoms: C_11  and  C_12
REMARK    6  A    between atoms: O_17  and  C_18
REMARK    7  A    between atoms: C_18  and  C_19
REMARK    8  A    between atoms: C_19  and  O_20
REMARK    9  A    between atoms: C_19  and  C_22
REMARK   10  A    between atoms: C_22  and  N_23
REMARK   11  A    between atoms: N_23  and  C_26
REMARK                            x       y       z     vdW  Elec       q    Type
REMARK                         _______ _______ _______ _____ _____    ______ ____
ROOT
ATOM      1  C   UNL     1      34.576 -16.694 -23.239  0.00  0.00    +0.141 C 
ATOM      2  C   UNL     1      34.409 -16.554 -21.862  0.00  0.00    +0.070 C 
ATOM      3  C   UNL     1      34.873 -18.906 -21.566  0.00  0.00    +0.051 C 
ATOM      4  C   UNL     1      34.558 -17.659 -21.025  0.00  0.00    +0.021 C 
ATOM      5  C   UNL     1      34.890 -17.940 -23.781  0.00  0.00    +0.038 C 
ATOM      6  C   UNL     1      35.039 -19.046 -22.944  0.00  0.00    +0.018 C 
ENDROOT
BRANCH   3   8
ATOM      7  O   UNL     1      32.814 -20.522 -20.097  0.00  0.00    -0.275 OA
ATOM      8  N   UNL     1      35.023 -20.029 -20.718  0.00  0.00    -0.284 N 
ATOM      9  C   UNL     1      34.020 -20.745 -20.071  0.00  0.00    +0.226 C 
ATOM     10  H   UNL     1      35.945 -20.340 -20.569  0.00  0.00    +0.155 HD
BRANCH   9  11
ATOM     11  C   UNL     1      34.617 -21.884 -19.254  0.00  0.00    +0.085 C 
BRANCH  11  12
ATOM     12  C   UNL     1      36.106 -21.717 -18.956  0.00  0.00    +0.010 C 
ATOM     13  C   UNL     1      36.437 -21.945 -17.488  0.00  0.00    +0.001 C 
ENDBRANCH  11  12
ENDBRANCH   9  11
ENDBRANCH   3   8
BRANCH   2  15
ATOM     14  O   UNL     1      34.931 -14.595 -20.656  0.00  0.00    -0.291 OA
ATOM     15  C   UNL     1      34.080 -15.261 -21.277  0.00  0.00    +0.176 C 
ATOM     16  C   UNL     1      32.673 -14.693 -21.414  0.00  0.00    +0.077 C 
ENDBRANCH   2  15
BRANCH   1  17
ATOM     17  O   UNL     1      34.434 -15.625 -24.074  0.00  0.00    -0.473 OA
BRANCH  17  18
ATOM     18  C   UNL     1      33.843 -15.872 -25.348  0.00  0.00    +0.232 C 
BRANCH  18  19
ATOM     19  C   UNL     1      33.109 -14.613 -25.803  0.00  0.00    +0.133 C 
BRANCH  19  20
ATOM     20  O   UNL     1      33.570 -14.266 -27.112  0.00  0.00    -0.383 OA
ATOM     21  H   UNL     1      34.388 -14.751 -27.307  0.00  0.00    +0.210 HD
ENDBRANCH  19  20
BRANCH  19  22
ATOM     22  C   UNL     1      33.337 -13.412 -24.882  0.00  0.00    -0.048 C 
BRANCH  22  23
ATOM     23  N   UNL     1      33.658 -12.203 -25.629  0.00  0.00    +0.387 N 
ATOM     24  H   UNL     1      32.794 -11.776 -25.960  0.00  0.00    -0.084 HD
ATOM     25  H   UNL     1      34.255 -12.456 -26.417  0.00  0.00    -0.084 HD
BRANCH  23  26
ATOM     26  C   UNL     1      34.373 -11.249 -24.792  0.00  0.00    -0.062 C 
ATOM     27  C   UNL     1      33.386 -10.368 -24.033  0.00  0.00    -0.023 C 
ATOM     28  C   UNL     1      35.303 -10.408 -25.662  0.00  0.00    -0.023 C 
ENDBRANCH  23  26
ENDBRANCH  22  23
ENDBRANCH  19  22
ENDBRANCH  18  19
ENDBRANCH  17  18
ENDBRANCH   1  17
TORSDOF 11
ENDMDL
MODEL 2
REMARK VINA RESULT:      -8.6      3.612     10.799
REMARK  Name = 1978
REMARK  11 active torsions:
REMARK  status: ('A' for Active; 'I' for Inactive)
REMARK    1  A    between atoms: C_1  and  O_17
REMARK    2  A    between atoms: C_2  and  C_15
REMARK    3  A    between atoms: C_3  and  N_8
REMARK    4  A    between atoms: C_9  and  C_11
REMARK    5  A    between atoms: C_11  and  C_12
REMARK    6  A    between atoms: O_17  and  C_18
REMARK    7  A    between atoms: C_18  and  C_19
REMARK    8  A    between atoms: C_19  and  O_20
REMARK    9  A    between atoms: C_19  and  C_22
REMARK   10  A    between atoms: C_22  and  N_23
REMARK   11  A    between atoms: N_23  and  C_26
REMARK                            x       y       z     vdW  Elec       q    Type
REMARK                         _______ _______ _______ _____ _____    ______ ____
ROOT
ATOM      1  C   UNL     1      36.104 -21.705 -18.770  0.00  0.00    +0.141 C 
ATOM      2  C   UNL     1      34.842 -21.748 -19.362  0.00  0.00    +0.070 C 
ATOM      3  C   UNL     1      35.399 -19.810 -20.691  0.00  0.00    +0.051 C 
ATOM      4  C   UNL     1      34.489 -20.801 -20.323  0.00  0.00    +0.021 C 
ATOM      5  C   UNL     1      37.014 -20.714 -19.138  0.00  0.00    +0.038 C 
ATOM      6  C   UNL     1      36.661 -19.767 -20.099  0.00  0.00    +0.018 C 
ENDROOT
BRANCH   3   8
ATOM      7  O   UNL     1      35.223 -16.820 -20.497  0.00  0.00    -0.275 OA
ATOM      8  N   UNL     1      35.042 -18.847 -21.666  0.00  0.00    -0.284 N 
ATOM      9  C   UNL     1      34.989 -17.464 -21.514  0.00  0.00    +0.226 C 
ATOM     10  H   UNL     1      34.803 -19.197 -22.555  0.00  0.00    +0.155 HD
BRANCH   9  11
ATOM     11  C   UNL     1      34.556 -16.800 -22.814  0.00  0.00    +0.085 C 
BRANCH  11  12
ATOM     12  C   UNL     1      34.933 -17.588 -24.067  0.00  0.00    +0.010 C 
ATOM     13  C   UNL     1      34.608 -16.836 -25.350  0.00  0.00    +0.001 C 
ENDBRANCH  11  12
ENDBRANCH   9  11
ENDBRANCH   3   8
BRANCH   2  15
ATOM     14  O   UNL     1      33.836 -23.870 -19.585  0.00  0.00    -0.291 OA
ATOM     15  C   UNL     1      33.878 -22.775 -18.991  0.00  0.00    +0.176 C 
ATOM     16  C   UNL     1      32.890 -22.527 -17.858  0.00  0.00    +0.077 C 
ENDBRANCH   2  15
BRANCH   1  17
ATOM     17  O   UNL     1      36.467 -22.622 -17.828  0.00  0.00    -0.473 OA
BRANCH  17  18
ATOM     18  C   UNL     1      36.712 -22.135 -16.511  0.00  0.00    +0.232 C 
BRANCH  18  19
ATOM     19  C   UNL     1      36.231 -23.175 -15.503  0.00  0.00    +0.133 C 
BRANCH  19  20
ATOM     20  O   UNL     1      35.199 -22.592 -14.703  0.00  0.00    -0.383 OA
ATOM     21  H   UNL     1      34.388 -22.511 -15.229  0.00  0.00    +0.210 HD
ENDBRANCH  19  20
BRANCH  19  22
ATOM     22  C   UNL     1      37.338 -23.670 -14.568  0.00  0.00    -0.048 C 
BRANCH  22  23
ATOM     23  N   UNL     1      38.344 -24.451 -15.276  0.00  0.00    +0.387 N 
ATOM     24  H   UNL     1      39.153 -23.860 -15.464  0.00  0.00    -0.084 HD
ATOM     25  H   UNL     1      37.939 -24.789 -16.149  0.00  0.00    -0.084 HD
BRANCH  23  26
ATOM     26  C   UNL     1      38.765 -25.599 -14.485  0.00  0.00    -0.062 C 
ATOM     27  C   UNL     1      38.261 -25.465 -13.050  0.00  0.00    -0.023 C 
ATOM     28  C   UNL     1      40.285 -25.714 -14.524  0.00  0.00    -0.023 C 
ENDBRANCH  23  26
ENDBRANCH  22  23
ENDBRANCH  19  22
ENDBRANCH  18  19
ENDBRANCH  17  18
ENDBRANCH   1  17
TORSDOF 11
ENDMDL
MODEL 3
REMARK VINA RESULT:      -8.6      1.918      2.426
REMARK  Name = 1978
REMARK  11 active torsions:
REMARK  status: ('A' for Active; 'I' for Inactive)
REMARK    1  A    between atoms: C_1  and  O_17
REMARK    2  A    between atoms: C_2  and  C_15
REMARK    3  A    between atoms: C_3  and  N_8
REMARK    4  A    between atoms: C_9  and  C_11
REMARK    5  A    between atoms: C_11  and  C_12
REMARK    6  A    between atoms: O_17  and  C_18
REMARK    7  A    between atoms: C_18  and  C_19
REMARK    8  A    between atoms: C_19  and  O_20
REMARK    9  A    between atoms: C_19  and  C_22
REMARK   10  A    between atoms: C_22  and  N_23
REMARK   11  A    between atoms: N_23  and  C_26
REMARK                            x       y       z     vdW  Elec       q    Type
REMARK                         _______ _______ _______ _____ _____    ______ ____
ROOT
ATOM      1  C   UNL     1      34.735 -16.390 -22.919  0.00  0.00    +0.141 C 
ATOM      2  C   UNL     1      34.461 -16.480 -21.555  0.00  0.00    +0.070 C 
ATOM      3  C   UNL     1      34.753 -18.876 -21.655  0.00  0.00    +0.051 C 
ATOM      4  C   UNL     1      34.470 -17.723 -20.922  0.00  0.00    +0.021 C 
ATOM      5  C   UNL     1      35.017 -17.542 -23.652  0.00  0.00    +0.038 C 
ATOM      6  C   UNL     1      35.026 -18.785 -23.020  0.00  0.00    +0.018 C 
ENDROOT
BRANCH   3   8
ATOM      7  O   UNL     1      36.699 -20.047 -19.693  0.00  0.00    -0.275 OA
ATOM      8  N   UNL     1      34.761 -20.138 -21.014  0.00  0.00    -0.284 N 
ATOM      9  C   UNL     1      35.694 -20.620 -20.101  0.00  0.00    +0.226 C 
ATOM     10  H   UNL     1      34.021 -20.746 -21.242  0.00  0.00    +0.155 HD
BRANCH   9  11
ATOM     11  C   UNL     1      35.328 -22.031 -19.656  0.00  0.00    +0.085 C 
BRANCH  11  12
ATOM     12  C   UNL     1      33.850 -22.206 -19.310  0.00  0.00    +0.010 C 
ATOM     13  C   UNL     1      33.642 -22.875 -17.959  0.00  0.00    +0.001 C 
ENDBRANCH  11  12
ENDBRANCH   9  11
ENDBRANCH   3   8
BRANCH   2  15
ATOM     14  O   UNL     1      35.047 -14.453 -20.500  0.00  0.00    -0.291 OA
ATOM     15  C   UNL     1      34.163 -15.289 -20.771  0.00  0.00    +0.176 C 
ATOM     16  C   UNL     1      32.749 -15.039 -20.262  0.00  0.00    +0.077 C 
ENDBRANCH   2  15
BRANCH   1  17
ATOM     17  O   UNL     1      34.730 -15.183 -23.555  0.00  0.00    -0.473 OA
BRANCH  17  18
ATOM     18  C   UNL     1      33.616 -14.900 -24.398  0.00  0.00    +0.232 C 
BRANCH  18  19
ATOM     19  C   UNL     1      33.210 -13.441 -24.205  0.00  0.00    +0.133 C 
BRANCH  19  20
ATOM     20  O   UNL     1      34.368 -12.692 -23.827  0.00  0.00    -0.383 OA
ATOM     21  H   UNL     1      34.120 -11.766 -23.678  0.00  0.00    +0.210 HD
ENDBRANCH  19  20
BRANCH  19  22
ATOM     22  C   UNL     1      32.142 -13.247 -23.126  0.00  0.00    -0.048 C 
BRANCH  22  23
ATOM     23  N   UNL     1      32.466 -12.147 -22.228  0.00  0.00    +0.387 N 
ATOM     24  H   UNL     1      33.246 -11.618 -22.615  0.00  0.00    -0.084 HD
ATOM     25  H   UNL     1      32.715 -12.533 -21.317  0.00  0.00    -0.084 HD
BRANCH  23  26
ATOM     26  C   UNL     1      31.324 -11.258 -22.059  0.00  0.00    -0.062 C 
ATOM     27  C   UNL     1      31.652  -9.869 -22.598  0.00  0.00    -0.023 C 
ATOM     28  C   UNL     1      30.941 -11.198 -20.583  0.00  0.00    -0.023 C 
ENDBRANCH  23  26
ENDBRANCH  22  23
ENDBRANCH  19  22
ENDBRANCH  18  19
ENDBRANCH  17  18
ENDBRANCH   1  17
TORSDOF 11
ENDMDL
MODEL 4
REMARK VINA RESULT:      -8.5      3.028      5.042
REMARK  Name = 1978
REMARK  11 active torsions:
REMARK  status: ('A' for Active; 'I' for Inactive)
REMARK    1  A    between atoms: C_1  and  O_17
REMARK    2  A    between atoms: C_2  and  C_15
REMARK    3  A    between atoms: C_3  and  N_8
REMARK    4  A    between atoms: C_9  and  C_11
REMARK    5  A    between atoms: C_11  and  C_12
REMARK    6  A    between atoms: O_17  and  C_18
REMARK    7  A    between atoms: C_18  and  C_19
REMARK    8  A    between atoms: C_19  and  O_20
REMARK    9  A    between atoms: C_19  and  C_22
REMARK   10  A    between atoms: C_22  and  N_23
REMARK   11  A    between atoms: N_23  and  C_26
REMARK                            x       y       z     vdW  Elec       q    Type
REMARK                         _______ _______ _______ _____ _____    ______ ____
ROOT
ATOM      1  C   UNL     1      32.454 -12.809 -22.510  0.00  0.00    +0.141 C 
ATOM      2  C   UNL     1      33.428 -13.099 -23.465  0.00  0.00    +0.070 C 
ATOM      3  C   UNL     1      33.711 -15.299 -22.507  0.00  0.00    +0.051 C 
ATOM      4  C   UNL     1      34.057 -14.344 -23.464  0.00  0.00    +0.021 C 
ATOM      5  C   UNL     1      32.109 -13.762 -21.553  0.00  0.00    +0.038 C 
ATOM      6  C   UNL     1      32.737 -15.007 -21.552  0.00  0.00    +0.018 C 
ENDROOT
BRANCH   3   8
ATOM      7  O   UNL     1      35.263 -16.688 -20.346  0.00  0.00    -0.275 OA
ATOM      8  N   UNL     1      34.349 -16.563 -22.504  0.00  0.00    -0.284 N 
ATOM      9  C   UNL     1      35.049 -17.158 -21.459  0.00  0.00    +0.226 C 
ATOM     10  H   UNL     1      34.290 -17.080 -23.340  0.00  0.00    +0.155 HD
BRANCH   9  11
ATOM     11  C   UNL     1      35.577 -18.524 -21.878  0.00  0.00    +0.085 C 
BRANCH  11  12
ATOM     12  C   UNL     1      35.154 -19.662 -20.950  0.00  0.00    +0.010 C 
ATOM     13  C   UNL     1      33.642 -19.784 -20.827  0.00  0.00    +0.001 C 
ENDBRANCH  11  12
ENDBRANCH   9  11
ENDBRANCH   3   8
BRANCH   2  15
ATOM     14  O   UNL     1      34.301 -11.019 -24.156  0.00  0.00    -0.291 OA
ATOM     15  C   UNL     1      33.804 -12.117 -24.473  0.00  0.00    +0.176 C 
ATOM     16  C   UNL     1      33.593 -12.417 -25.952  0.00  0.00    +0.077 C 
ENDBRANCH   2  15
BRANCH   1  17
ATOM     17  O   UNL     1      31.830 -11.596 -22.495  0.00  0.00    -0.473 OA
BRANCH  17  18
ATOM     18  C   UNL     1      31.128 -11.245 -21.304  0.00  0.00    +0.232 C 
BRANCH  18  19
ATOM     19  C   UNL     1      31.873 -10.107 -20.611  0.00  0.00    +0.133 C 
BRANCH  19  20
ATOM     20  O   UNL     1      31.213  -9.816 -19.376  0.00  0.00    -0.383 OA
ATOM     21  H   UNL     1      30.347 -10.254 -19.360  0.00  0.00    +0.210 HD
ENDBRANCH  19  20
BRANCH  19  22
ATOM     22  C   UNL     1      31.923  -8.821 -21.440  0.00  0.00    -0.048 C 
BRANCH  22  23
ATOM     23  N   UNL     1      33.024  -8.827 -22.393  0.00  0.00    +0.387 N 
ATOM     24  H   UNL     1      32.674  -9.120 -23.305  0.00  0.00    -0.084 HD
ATOM     25  H   UNL     1      33.739  -9.475 -22.061  0.00  0.00    -0.084 HD
BRANCH  23  26
ATOM     26  C   UNL     1      33.617  -7.502 -22.513  0.00  0.00    -0.062 C 
ATOM     27  C   UNL     1      32.538  -6.464 -22.804  0.00  0.00    -0.023 C 
ATOM     28  C   UNL     1      34.676  -7.517 -23.612  0.00  0.00    -0.023 C 
ENDBRANCH  23  26
ENDBRANCH  22  23
ENDBRANCH  19  22
ENDBRANCH  18  19
ENDBRANCH  17  18
ENDBRANCH   1  17
TORSDOF 11
ENDMDL
MODEL 5
REMARK VINA RESULT:      -8.5      1.908      3.057
REMARK  Name = 1978
REMARK  11 active torsions:
REMARK  status: ('A' for Active; 'I' for Inactive)
REMARK    1  A    between atoms: C_1  and  O_17
REMARK    2  A    between atoms: C_2  and  C_15
REMARK    3  A    between atoms: C_3  and  N_8
REMARK    4  A    between atoms: C_9  and  C_11
REMARK    5  A    between atoms: C_11  and  C_12
REMARK    6  A    between atoms: O_17  and  C_18
REMARK    7  A    between atoms: C_18  and  C_19
REMARK    8  A    between atoms: C_19  and  O_20
REMARK    9  A    between atoms: C_19  and  C_22
REMARK   10  A    between atoms: C_22  and  N_23
REMARK   11  A    between atoms: N_23  and  C_26
REMARK                            x       y       z     vdW  Elec       q    Type
REMARK                         _______ _______ _______ _____ _____    ______ ____
ROOT
ATOM      1  C   UNL     1      34.412 -15.107 -22.938  0.00  0.00    +0.141 C 
ATOM      2  C   UNL     1      34.450 -16.285 -23.682  0.00  0.00    +0.070 C 
ATOM      3  C   UNL     1      34.737 -17.560 -21.650  0.00  0.00    +0.051 C 
ATOM      4  C   UNL     1      34.612 -17.512 -23.039  0.00  0.00    +0.021 C 
ATOM      5  C   UNL     1      34.538 -15.154 -21.550  0.00  0.00    +0.038 C 
ATOM      6  C   UNL     1      34.700 -16.381 -20.906  0.00  0.00    +0.018 C 
ENDROOT
BRANCH   3   8
ATOM      7  O   UNL     1      32.706 -19.619 -20.848  0.00  0.00    -0.275 OA
ATOM      8  N   UNL     1      34.902 -18.804 -20.996  0.00  0.00    -0.284 N 
ATOM      9  C   UNL     1      33.914 -19.724 -20.659  0.00  0.00    +0.226 C 
ATOM     10  H   UNL     1      35.825 -19.047 -20.751  0.00  0.00    +0.155 HD
BRANCH   9  11
ATOM     11  C   UNL     1      34.524 -20.935 -19.964  0.00  0.00    +0.085 C 
BRANCH  11  12
ATOM     12  C   UNL     1      36.049 -20.898 -19.882  0.00  0.00    +0.010 C 
ATOM     13  C   UNL     1      36.580 -21.507 -18.592  0.00  0.00    +0.001 C 
ENDBRANCH  11  12
ENDBRANCH   9  11
ENDBRANCH   3   8
BRANCH   2  15
ATOM     14  O   UNL     1      35.089 -16.910 -25.865  0.00  0.00    -0.291 OA
ATOM     15  C   UNL     1      34.320 -16.257 -25.133  0.00  0.00    +0.176 C 
ATOM     16  C   UNL     1      33.230 -15.419 -25.790  0.00  0.00    +0.077 C 
ENDBRANCH   2  15
BRANCH   1  17
ATOM     17  O   UNL     1      34.256 -13.898 -23.549  0.00  0.00    -0.473 OA
BRANCH  17  18
ATOM     18  C   UNL     1      33.266 -13.024 -23.011  0.00  0.00    +0.232 C 
BRANCH  18  19
ATOM     19  C   UNL     1      33.281 -11.717 -23.799  0.00  0.00    +0.133 C 
BRANCH  19  20
ATOM     20  O   UNL     1      34.637 -11.390 -24.115  0.00  0.00    -0.383 OA
ATOM     21  H   UNL     1      35.172 -11.408 -23.306  0.00  0.00    +0.210 HD
ENDBRANCH  19  20
BRANCH  19  22
ATOM     22  C   UNL     1      32.672 -10.540 -23.033  0.00  0.00    -0.048 C 
BRANCH  22  23
ATOM     23  N   UNL     1      32.867  -9.275 -23.728  0.00  0.00    +0.387 N 
ATOM     24  H   UNL     1      31.960  -8.908 -24.015  0.00  0.00    -0.084 HD
ATOM     25  H   UNL     1      33.459  -9.439 -24.543  0.00  0.00    -0.084 HD
BRANCH  23  26
ATOM     26  C   UNL     1      33.524  -8.302 -22.866  0.00  0.00    -0.062 C 
ATOM     27  C   UNL     1      32.564  -7.168 -22.522  0.00  0.00    -0.023 C 
ATOM     28  C   UNL     1      34.776  -7.772 -23.558  0.00  0.00    -0.023 C 
ENDBRANCH  23  26
ENDBRANCH  22  23
ENDBRANCH  19  22
ENDBRANCH  18  19
ENDBRANCH  17  18
ENDBRANCH   1  17
TORSDOF 11
ENDMDL
MODEL 6
REMARK VINA RESULT:      -8.4      2.532      4.290
REMARK  Name = 1978
REMARK  11 active torsions:
REMARK  status: ('A' for Active; 'I' for Inactive)
REMARK    1  A    between atoms: C_1  and  O_17
REMARK    2  A    between atoms: C_2  and  C_15
REMARK    3  A    between atoms: C_3  and  N_8
REMARK    4  A    between atoms: C_9  and  C_11
REMARK    5  A    between atoms: C_11  and  C_12
REMARK    6  A    between atoms: O_17  and  C_18
REMARK    7  A    between atoms: C_18  and  C_19
REMARK    8  A    between atoms: C_19  and  O_20
REMARK    9  A    between atoms: C_19  and  C_22
REMARK   10  A    between atoms: C_22  and  N_23
REMARK   11  A    between atoms: N_23  and  C_26
REMARK                            x       y       z     vdW  Elec       q    Type
REMARK                         _______ _______ _______ _____ _____    ______ ____
ROOT
ATOM      1  C   UNL     1      32.569 -13.492 -22.139  0.00  0.00    +0.141 C 
ATOM      2  C   UNL     1      33.413 -14.055 -23.096  0.00  0.00    +0.070 C 
ATOM      3  C   UNL     1      34.198 -15.653 -21.463  0.00  0.00    +0.051 C 
ATOM      4  C   UNL     1      34.227 -15.136 -22.759  0.00  0.00    +0.021 C 
ATOM      5  C   UNL     1      32.540 -14.008 -20.844  0.00  0.00    +0.038 C 
ATOM      6  C   UNL     1      33.354 -15.089 -20.507  0.00  0.00    +0.018 C 
ENDROOT
BRANCH   3   8
ATOM      7  O   UNL     1      34.484 -18.350 -22.749  0.00  0.00    -0.275 OA
ATOM      8  N   UNL     1      35.024 -16.750 -21.120  0.00  0.00    -0.284 N 
ATOM      9  C   UNL     1      35.118 -17.978 -21.768  0.00  0.00    +0.226 C 
ATOM     10  H   UNL     1      35.600 -16.629 -20.330  0.00  0.00    +0.155 HD
BRANCH   9  11
ATOM     11  C   UNL     1      36.131 -18.876 -21.068  0.00  0.00    +0.085 C 
BRANCH  11  12
ATOM     12  C   UNL     1      35.565 -20.227 -20.634  0.00  0.00    +0.010 C 
ATOM     13  C   UNL     1      36.543 -21.023 -19.782  0.00  0.00    +0.001 C 
ENDBRANCH  11  12
ENDBRANCH   9  11
ENDBRANCH   3   8
BRANCH   2  15
ATOM     14  O   UNL     1      33.945 -12.409 -24.700  0.00  0.00    -0.291 OA
ATOM     15  C   UNL     1      33.459 -13.530 -24.454  0.00  0.00    +0.176 C 
ATOM     16  C   UNL     1      32.906 -14.350 -25.612  0.00  0.00    +0.077 C 
ENDBRANCH   2  15
BRANCH   1  17
ATOM     17  O   UNL     1      31.767 -12.434 -22.449  0.00  0.00    -0.473 OA
BRANCH  17  18
ATOM     18  C   UNL     1      31.304 -11.632 -21.365  0.00  0.00    +0.232 C 
BRANCH  18  19
ATOM     19  C   UNL     1      31.983 -10.267 -21.436  0.00  0.00    +0.133 C 
BRANCH  19  20
ATOM     20  O   UNL     1      31.546  -9.482 -20.324  0.00  0.00    -0.383 OA
ATOM     21  H   UNL     1      32.094  -9.683 -19.549  0.00  0.00    +0.210 HD
ENDBRANCH  19  20
BRANCH  19  22
ATOM     22  C   UNL     1      31.663  -9.497 -22.720  0.00  0.00    -0.048 C 
BRANCH  22  23
ATOM     23  N   UNL     1      32.690  -9.677 -23.737  0.00  0.00    +0.387 N 
ATOM     24  H   UNL     1      32.319  -9.388 -24.641  0.00  0.00    -0.084 HD
ATOM     25  H   UNL     1      32.957 -10.661 -23.760  0.00  0.00    -0.084 HD
BRANCH  23  26
ATOM     26  C   UNL     1      33.872  -8.883 -23.430  0.00  0.00    -0.062 C 
ATOM     27  C   UNL     1      33.543  -7.395 -23.501  0.00  0.00    -0.023 C 
ATOM     28  C   UNL     1      34.993  -9.245 -24.400  0.00  0.00    -0.023 C 
ENDBRANCH  23  26
ENDBRANCH  22  23
ENDBRANCH  19  22
ENDBRANCH  18  19
ENDBRANCH  17  18
ENDBRANCH   1  17
TORSDOF 11
ENDMDL
MODEL 7
REMARK VINA RESULT:      -8.4      4.247     10.956
REMARK  Name = 1978
REMARK  11 active torsions:
REMARK  status: ('A' for Active; 'I' for Inactive)
REMARK    1  A    between atoms: C_1  and  O_17
REMARK    2  A    between atoms: C_2  and  C_15
REMARK    3  A    between atoms: C_3  and  N_8
REMARK    4  A    between atoms: C_9  and  C_11
REMARK    5  A    between atoms: C_11  and  C_12
REMARK    6  A    between atoms: O_17  and  C_18
REMARK    7  A    between atoms: C_18  and  C_19
REMARK    8  A    between atoms: C_19  and  O_20
REMARK    9  A    between atoms: C_19  and  C_22
REMARK   10  A    between atoms: C_22  and  N_23
REMARK   11  A    between atoms: N_23  and  C_26
REMARK                            x       y       z     vdW  Elec       q    Type
REMARK                         _______ _______ _______ _____ _____    ______ ____
ROOT
ATOM      1  C   UNL     1      35.883 -22.092 -18.033  0.00  0.00    +0.141 C 
ATOM      2  C   UNL     1      34.673 -22.183 -18.720  0.00  0.00    +0.070 C 
ATOM      3  C   UNL     1      35.433 -20.501 -20.279  0.00  0.00    +0.051 C 
ATOM      4  C   UNL     1      34.447 -21.387 -19.844  0.00  0.00    +0.021 C 
ATOM      5  C   UNL     1      36.868 -21.206 -18.468  0.00  0.00    +0.038 C 
ATOM      6  C   UNL     1      36.643 -20.411 -19.591  0.00  0.00    +0.018 C 
ENDROOT
BRANCH   3   8
ATOM      7  O   UNL     1      35.408 -17.513 -20.570  0.00  0.00    -0.275 OA
ATOM      8  N   UNL     1      35.205 -19.692 -21.419  0.00  0.00    -0.284 N 
ATOM      9  C   UNL     1      35.217 -18.302 -21.489  0.00  0.00    +0.226 C 
ATOM     10  H   UNL     1      35.015 -20.169 -22.259  0.00  0.00    +0.155 HD
BRANCH   9  11
ATOM     11  C   UNL     1      34.922 -17.836 -22.910  0.00  0.00    +0.085 C 
BRANCH  11  12
ATOM     12  C   UNL     1      34.884 -18.967 -23.936  0.00  0.00    +0.010 C 
ATOM     13  C   UNL     1      34.195 -18.557 -25.230  0.00  0.00    +0.001 C 
ENDBRANCH  11  12
ENDBRANCH   9  11
ENDBRANCH   3   8
BRANCH   2  15
ATOM     14  O   UNL     1      33.617 -24.291 -18.655  0.00  0.00    -0.291 OA
ATOM     15  C   UNL     1      33.631 -23.102 -18.282  0.00  0.00    +0.176 C 
ATOM     16  C   UNL     1      32.526 -22.621 -17.350  0.00  0.00    +0.077 C 
ENDBRANCH   2  15
BRANCH   1  17
ATOM     17  O   UNL     1      36.122 -22.861 -16.932  0.00  0.00    -0.473 OA
BRANCH  17  18
ATOM     18  C   UNL     1      36.878 -22.268 -15.880  0.00  0.00    +0.232 C 
BRANCH  18  19
ATOM     19  C   UNL     1      37.654 -23.362 -15.152  0.00  0.00    +0.133 C 
BRANCH  19  20
ATOM     20  O   UNL     1      38.825 -23.673 -15.913  0.00  0.00    -0.383 OA
ATOM     21  H   UNL     1      39.241 -22.852 -16.217  0.00  0.00    +0.210 HD
ENDBRANCH  19  20
BRANCH  19  22
ATOM     22  C   UNL     1      36.850 -24.652 -14.963  0.00  0.00    -0.048 C 
BRANCH  22  23
ATOM     23  N   UNL     1      35.650 -24.436 -14.168  0.00  0.00    +0.387 N 
ATOM     24  H   UNL     1      34.891 -25.000 -14.550  0.00  0.00    -0.084 HD
ATOM     25  H   UNL     1      35.410 -23.446 -14.202  0.00  0.00    -0.084 HD
BRANCH  23  26
ATOM     26  C   UNL     1      35.870 -24.814 -12.778  0.00  0.00    -0.062 C 
ATOM     27  C   UNL     1      36.129 -23.573 -11.929  0.00  0.00    -0.023 C 
ATOM     28  C   UNL     1      37.040 -25.789 -12.696  0.00  0.00    -0.023 C 
ENDBRANCH  23  26
ENDBRANCH  22  23
ENDBRANCH  19  22
ENDBRANCH  18  19
ENDBRANCH  17  18
ENDBRANCH   1  17
TORSDOF 11
ENDMDL
MODEL 8
REMARK VINA RESULT:      -8.3      3.259     10.366
REMARK  Name = 1978
REMARK  11 active torsions:
REMARK  status: ('A' for Active; 'I' for Inactive)
REMARK    1  A    between atoms: C_1  and  O_17
REMARK    2  A    between atoms: C_2  and  C_15
REMARK    3  A    between atoms: C_3  and  N_8
REMARK    4  A    between atoms: C_9  and  C_11
REMARK    5  A    between atoms: C_11  and  C_12
REMARK    6  A    between atoms: O_17  and  C_18
REMARK    7  A    between atoms: C_18  and  C_19
REMARK    8  A    between atoms: C_19  and  O_20
REMARK    9  A    between atoms: C_19  and  C_22
REMARK   10  A    between atoms: C_22  and  N_23
REMARK   11  A    between atoms: N_23  and  C_26
REMARK                            x       y       z     vdW  Elec       q    Type
REMARK                         _______ _______ _______ _____ _____    ______ ____
ROOT
ATOM      1  C   UNL     1      36.092 -21.650 -18.689  0.00  0.00    +0.141 C 
ATOM      2  C   UNL     1      34.868 -21.769 -19.345  0.00  0.00    +0.070 C 
ATOM      3  C   UNL     1      35.492 -19.973 -20.836  0.00  0.00    +0.051 C 
ATOM      4  C   UNL     1      34.567 -20.931 -20.419  0.00  0.00    +0.021 C 
ATOM      5  C   UNL     1      37.017 -20.692 -19.105  0.00  0.00    +0.038 C 
ATOM      6  C   UNL     1      36.716 -19.854 -20.178  0.00  0.00    +0.018 C 
ENDROOT
BRANCH   3   8
ATOM      7  O   UNL     1      35.178 -16.990 -20.942  0.00  0.00    -0.275 OA
ATOM      8  N   UNL     1      35.188 -19.121 -21.925  0.00  0.00    -0.284 N 
ATOM      9  C   UNL     1      35.066 -17.735 -21.910  0.00  0.00    +0.226 C 
ATOM     10  H   UNL     1      35.046 -19.561 -22.794  0.00  0.00    +0.155 HD
BRANCH   9  11
ATOM     11  C   UNL     1      34.728 -17.212 -23.301  0.00  0.00    +0.085 C 
BRANCH  11  12
ATOM     12  C   UNL     1      34.631 -15.690 -23.383  0.00  0.00    +0.010 C 
ATOM     13  C   UNL     1      33.667 -15.224 -24.465  0.00  0.00    +0.001 C 
ENDBRANCH  11  12
ENDBRANCH   9  11
ENDBRANCH   3   8
BRANCH   2  15
ATOM     14  O   UNL     1      33.919 -23.928 -19.367  0.00  0.00    -0.291 OA
ATOM     15  C   UNL     1      33.889 -22.763 -18.927  0.00  0.00    +0.176 C 
ATOM     16  C   UNL     1      32.797 -22.392 -17.931  0.00  0.00    +0.077 C 
ENDBRANCH   2  15
BRANCH   1  17
ATOM     17  O   UNL     1      36.404 -22.459 -17.637  0.00  0.00    -0.473 OA
BRANCH  17  18
ATOM     18  C   UNL     1      36.945 -21.833 -16.476  0.00  0.00    +0.232 C 
BRANCH  18  19
ATOM     19  C   UNL     1      37.356 -22.913 -15.479  0.00  0.00    +0.133 C 
BRANCH  19  20
ATOM     20  O   UNL     1      38.563 -23.525 -15.942  0.00  0.00    -0.383 OA
ATOM     21  H   UNL     1      39.085 -23.828 -15.182  0.00  0.00    +0.210 HD
ENDBRANCH  19  20
BRANCH  19  22
ATOM     22  C   UNL     1      36.301 -24.009 -15.304  0.00  0.00    -0.048 C 
BRANCH  22  23
ATOM     23  N   UNL     1      34.947 -23.477 -15.344  0.00  0.00    +0.387 N 
ATOM     24  H   UNL     1      34.574 -23.583 -16.287  0.00  0.00    -0.084 HD
ATOM     25  H   UNL     1      34.976 -22.491 -15.082  0.00  0.00    -0.084 HD
BRANCH  23  26
ATOM     26  C   UNL     1      34.082 -24.181 -14.407  0.00  0.00    -0.062 C 
ATOM     27  C   UNL     1      32.698 -23.538 -14.380  0.00  0.00    -0.023 C 
ATOM     28  C   UNL     1      34.719 -24.172 -13.021  0.00  0.00    -0.023 C 
ENDBRANCH  23  26
ENDBRANCH  22  23
ENDBRANCH  19  22
ENDBRANCH  18  19
ENDBRANCH  17  18
ENDBRANCH   1  17
TORSDOF 11
ENDMDL
MODEL 9
REMARK VINA RESULT:      -8.3      3.371      6.109
REMARK  Name = 1978
REMARK  11 active torsions:
REMARK  status: ('A' for Active; 'I' for Inactive)
REMARK    1  A    between atoms: C_1  and  O_17
REMARK    2  A    between atoms: C_2  and  C_15
REMARK    3  A    between atoms: C_3  and  N_8
REMARK    4  A    between atoms: C_9  and  C_11
REMARK    5  A    between atoms: C_11  and  C_12
REMARK    6  A    between atoms: O_17  and  C_18
REMARK    7  A    between atoms: C_18  and  C_19
REMARK    8  A    between atoms: C_19  and  O_20
REMARK    9  A    between atoms: C_19  and  C_22
REMARK   10  A    between atoms: C_22  and  N_23
REMARK   11  A    between atoms: N_23  and  C_26
REMARK                            x       y       z     vdW  Elec       q    Type
REMARK                         _______ _______ _______ _____ _____    ______ ____
ROOT
ATOM      1  C   UNL     1      32.404 -11.429 -22.717  0.00  0.00    +0.141 C 
ATOM      2  C   UNL     1      33.381 -11.958 -23.559  0.00  0.00    +0.070 C 
ATOM      3  C   UNL     1      33.267 -14.059 -22.371  0.00  0.00    +0.051 C 
ATOM      4  C   UNL     1      33.813 -13.273 -23.386  0.00  0.00    +0.021 C 
ATOM      5  C   UNL     1      31.858 -12.213 -21.702  0.00  0.00    +0.038 C 
ATOM      6  C   UNL     1      32.289 -13.528 -21.529  0.00  0.00    +0.018 C 
ENDROOT
BRANCH   3   8
ATOM      7  O   UNL     1      34.921 -15.289 -20.189  0.00  0.00    -0.275 OA
ATOM      8  N   UNL     1      33.704 -15.393 -22.194  0.00  0.00    -0.284 N 
ATOM      9  C   UNL     1      34.466 -15.905 -21.147  0.00  0.00    +0.226 C 
ATOM     10  H   UNL     1      33.438 -16.034 -22.893  0.00  0.00    +0.155 HD
BRANCH   9  11
ATOM     11  C   UNL     1      34.715 -17.395 -21.346  0.00  0.00    +0.085 C 
BRANCH  11  12
ATOM     12  C   UNL     1      34.957 -17.794 -22.801  0.00  0.00    +0.010 C 
ATOM     13  C   UNL     1      34.833 -19.294 -23.023  0.00  0.00    +0.001 C 
ENDBRANCH  11  12
ENDBRANCH   9  11
ENDBRANCH   3   8
BRANCH   2  15
ATOM     14  O   UNL     1      33.836 -11.476 -25.823  0.00  0.00    -0.291 OA
ATOM     15  C   UNL     1      33.964 -11.156 -24.625  0.00  0.00    +0.176 C 
ATOM     16  C   UNL     1      34.752  -9.894 -24.293  0.00  0.00    +0.077 C 
ENDBRANCH   2  15
BRANCH   1  17
ATOM     17  O   UNL     1      31.970 -10.145 -22.870  0.00  0.00    -0.473 OA
BRANCH  17  18
ATOM     18  C   UNL     1      31.666  -9.419 -21.681  0.00  0.00    +0.232 C 
BRANCH  18  19
ATOM     19  C   UNL     1      32.821  -8.470 -21.373  0.00  0.00    +0.133 C 
BRANCH  19  20
ATOM     20  O   UNL     1      32.851  -8.231 -19.963  0.00  0.00    -0.383 OA
ATOM     21  H   UNL     1      31.944  -8.212 -19.619  0.00  0.00    +0.210 HD
ENDBRANCH  19  20
BRANCH  19  22
ATOM     22  C   UNL     1      32.703  -7.120 -22.085  0.00  0.00    -0.048 C 
BRANCH  22  23
ATOM     23  N   UNL     1      31.485  -7.023 -22.876  0.00  0.00    +0.387 N 
ATOM     24  H   UNL     1      30.856  -6.350 -22.440  0.00  0.00    -0.084 HD
ATOM     25  H   UNL     1      31.048  -7.944 -22.916  0.00  0.00    -0.084 HD
BRANCH  23  26
ATOM     26  C   UNL     1      31.779  -6.590 -24.236  0.00  0.00    -0.062 C 
ATOM     27  C   UNL     1      33.285  -6.444 -24.429  0.00  0.00    -0.023 C 
ATOM     28  C   UNL     1      31.059  -5.275 -24.517  0.00  0.00    -0.023 C 
ENDBRANCH  23  26
ENDBRANCH  22  23
ENDBRANCH  19  22
ENDBRANCH  18  19
ENDBRANCH  17  18
ENDBRANCH   1  17
TORSDOF 11
ENDMDL
