MODEL 1
REMARK VINA RESULT:      -9.5      0.000      0.000
REMARK  Name = 445354
REMARK  6 active torsions:
REMARK  status: ('A' for Active; 'I' for Inactive)
REMARK    1  A    between atoms: C_1  and  C_6
REMARK    2  A    between atoms: C_2  and  C_12
REMARK    3  A    between atoms: C_14  and  C_15
REMARK    4  A    between atoms: C_16  and  C_17
REMARK    5  A    between atoms: C_19  and  C_20
REMARK    6  A    between atoms: C_20  and  O_21
REMARK                            x       y       z     vdW  Elec       q    Type
REMARK                         _______ _______ _______ _____ _____    ______ ____
ROOT
ATOM      1  C   UNL     1      34.565 -18.090 -21.037  0.00  0.00    -0.005 C 
ATOM      2  C   UNL     1      34.130 -19.353 -21.171  0.00  0.00    -0.005 C 
ENDROOT
BRANCH   1   6
ATOM      3  C   UNL     1      33.639 -15.780 -21.535  0.00  0.00    +0.018 C 
ATOM      4  C   UNL     1      33.182 -14.877 -22.714  0.00  0.00    +0.004 C 
ATOM      5  C   UNL     1      34.253 -14.741 -23.781  0.00  0.00    +0.005 C 
ATOM      6  C   UNL     1      34.342 -17.062 -22.040  0.00  0.00    -0.031 C 
ATOM      7  C   UNL     1      34.591 -16.108 -24.358  0.00  0.00    +0.022 C 
ATOM      8  C   UNL     1      34.745 -17.207 -23.326  0.00  0.00    -0.048 C 
ATOM      9  C   UNL     1      32.360 -16.098 -20.723  0.00  0.00    +0.004 C 
ATOM     10  C   UNL     1      34.605 -14.979 -20.634  0.00  0.00    +0.004 C 
ATOM     11  C   UNL     1      35.388 -18.441 -23.917  0.00  0.00    +0.026 C 
ENDBRANCH   1   6
BRANCH   2  12
ATOM     12  C   UNL     1      34.309 -20.449 -20.213  0.00  0.00    -0.022 C 
ATOM     13  C   UNL     1      33.063 -21.129 -19.704  0.00  0.00    +0.031 C 
ATOM     14  C   UNL     1      35.567 -20.781 -19.849  0.00  0.00    -0.004 C 
BRANCH  14  15
ATOM     15  C   UNL     1      35.980 -21.822 -18.926  0.00  0.00    -0.001 C 
ATOM     16  C   UNL     1      36.082 -21.614 -17.601  0.00  0.00    -0.005 C 
BRANCH  16  17
ATOM     17  C   UNL     1      36.488 -22.594 -16.588  0.00  0.00    -0.024 C 
ATOM     18  C   UNL     1      37.936 -22.603 -16.172  0.00  0.00    +0.031 C 
ATOM     19  C   UNL     1      35.552 -23.426 -16.085  0.00  0.00    +0.001 C 
BRANCH  19  20
ATOM     20  C   UNL     1      35.713 -24.499 -15.055  0.00  0.00    +0.163 C 
BRANCH  20  21
ATOM     21  O   UNL     1      36.313 -25.631 -15.674  0.00  0.00    -0.377 OA
ATOM     22  H   UNL     1      36.146 -26.421 -15.136  0.00  0.00    +0.211 HD
ENDBRANCH  20  21
ENDBRANCH  19  20
ENDBRANCH  16  17
ENDBRANCH  14  15
ENDBRANCH   2  12
TORSDOF 6
ENDMDL
MODEL 2
REMARK VINA RESULT:      -9.2      2.300      2.751
REMARK  Name = 445354
REMARK  6 active torsions:
REMARK  status: ('A' for Active; 'I' for Inactive)
REMARK    1  A    between atoms: C_1  and  C_6
REMARK    2  A    between atoms: C_2  and  C_12
REMARK    3  A    between atoms: C_14  and  C_15
REMARK    4  A    between atoms: C_16  and  C_17
REMARK    5  A    between atoms: C_19  and  C_20
REMARK    6  A    between atoms: C_20  and  O_21
REMARK                            x       y       z     vdW  Elec       q    Type
REMARK                         _______ _______ _______ _____ _____    ______ ____
ROOT
ATOM      1  C   UNL     1      34.588 -18.118 -21.058  0.00  0.00    -0.005 C 
ATOM      2  C   UNL     1      34.226 -19.400 -21.217  0.00  0.00    -0.005 C 
ENDROOT
BRANCH   1   6
ATOM      3  C   UNL     1      33.612 -15.820 -21.520  0.00  0.00    +0.018 C 
ATOM      4  C   UNL     1      33.112 -14.919 -22.682  0.00  0.00    +0.004 C 
ATOM      5  C   UNL     1      34.153 -14.760 -23.775  0.00  0.00    +0.005 C 
ATOM      6  C   UNL     1      34.323 -17.088 -22.049  0.00  0.00    -0.031 C 
ATOM      7  C   UNL     1      34.498 -16.119 -24.367  0.00  0.00    +0.022 C 
ATOM      8  C   UNL     1      34.696 -17.221 -23.346  0.00  0.00    -0.048 C 
ATOM      9  C   UNL     1      32.360 -16.163 -20.677  0.00  0.00    +0.004 C 
ATOM     10  C   UNL     1      34.589 -15.009 -20.639  0.00  0.00    +0.004 C 
ATOM     11  C   UNL     1      35.343 -18.441 -23.959  0.00  0.00    +0.026 C 
ENDBRANCH   1   6
BRANCH   2  12
ATOM     12  C   UNL     1      34.452 -20.500 -20.273  0.00  0.00    -0.022 C 
ATOM     13  C   UNL     1      35.883 -20.889 -20.000  0.00  0.00    +0.031 C 
ATOM     14  C   UNL     1      33.376 -21.091 -19.710  0.00  0.00    -0.004 C 
BRANCH  14  15
ATOM     15  C   UNL     1      33.360 -22.186 -18.758  0.00  0.00    -0.001 C 
ATOM     16  C   UNL     1      32.531 -22.212 -17.700  0.00  0.00    -0.005 C 
BRANCH  16  17
ATOM     17  C   UNL     1      32.436 -23.266 -16.684  0.00  0.00    -0.024 C 
ATOM     18  C   UNL     1      33.721 -23.902 -16.221  0.00  0.00    +0.031 C 
ATOM     19  C   UNL     1      31.215 -23.605 -16.219  0.00  0.00    +0.001 C 
BRANCH  19  20
ATOM     20  C   UNL     1      30.859 -24.635 -15.195  0.00  0.00    +0.163 C 
BRANCH  20  21
ATOM     21  O   UNL     1      29.491 -24.986 -15.366  0.00  0.00    -0.377 OA
ATOM     22  H   UNL     1      29.327 -25.856 -14.969  0.00  0.00    +0.211 HD
ENDBRANCH  20  21
ENDBRANCH  19  20
ENDBRANCH  16  17
ENDBRANCH  14  15
ENDBRANCH   2  12
TORSDOF 6
ENDMDL
MODEL 3
REMARK VINA RESULT:      -9.2      6.378     10.092
REMARK  Name = 445354
REMARK  6 active torsions:
REMARK  status: ('A' for Active; 'I' for Inactive)
REMARK    1  A    between atoms: C_1  and  C_6
REMARK    2  A    between atoms: C_2  and  C_12
REMARK    3  A    between atoms: C_14  and  C_15
REMARK    4  A    between atoms: C_16  and  C_17
REMARK    5  A    between atoms: C_19  and  C_20
REMARK    6  A    between atoms: C_20  and  O_21
REMARK                            x       y       z     vdW  Elec       q    Type
REMARK                         _______ _______ _______ _____ _____    ______ ____
ROOT
ATOM      1  C   UNL     1      33.399  -8.572 -23.232  0.00  0.00    -0.005 C 
ATOM      2  C   UNL     1      32.859  -9.768 -23.516  0.00  0.00    -0.005 C 
ENDROOT
BRANCH   1   6
ATOM      3  C   UNL     1      32.109  -6.475 -23.852  0.00  0.00    +0.018 C 
ATOM      4  C   UNL     1      31.550  -5.161 -23.239  0.00  0.00    +0.004 C 
ATOM      5  C   UNL     1      30.664  -5.421 -22.035  0.00  0.00    +0.005 C 
ATOM      6  C   UNL     1      32.619  -7.441 -22.757  0.00  0.00    -0.031 C 
ATOM      7  C   UNL     1      31.456  -6.130 -20.947  0.00  0.00    +0.022 C 
ATOM      8  C   UNL     1      32.337  -7.259 -21.443  0.00  0.00    -0.048 C 
ATOM      9  C   UNL     1      33.237  -6.046 -24.822  0.00  0.00    +0.004 C 
ATOM     10  C   UNL     1      30.993  -7.162 -24.671  0.00  0.00    +0.004 C 
ATOM     11  C   UNL     1      32.837  -8.119 -20.305  0.00  0.00    +0.026 C 
ENDBRANCH   1   6
BRANCH   2  12
ATOM     12  C   UNL     1      33.568 -10.958 -23.998  0.00  0.00    -0.022 C 
ATOM     13  C   UNL     1      34.621 -10.750 -25.058  0.00  0.00    +0.031 C 
ATOM     14  C   UNL     1      33.240 -12.156 -23.468  0.00  0.00    -0.004 C 
BRANCH  14  15
ATOM     15  C   UNL     1      33.804 -13.454 -23.788  0.00  0.00    -0.001 C 
ATOM     16  C   UNL     1      33.998 -14.407 -22.860  0.00  0.00    -0.005 C 
BRANCH  16  17
ATOM     17  C   UNL     1      34.559 -15.745 -23.079  0.00  0.00    -0.024 C 
ATOM     18  C   UNL     1      34.683 -16.222 -24.503  0.00  0.00    +0.031 C 
ATOM     19  C   UNL     1      34.934 -16.470 -22.004  0.00  0.00    +0.001 C 
BRANCH  19  20
ATOM     20  C   UNL     1      35.525 -17.843 -21.964  0.00  0.00    +0.163 C 
BRANCH  20  21
ATOM     21  O   UNL     1      35.743 -18.200 -20.604  0.00  0.00    -0.377 OA
ATOM     22  H   UNL     1      34.999 -17.892 -20.065  0.00  0.00    +0.211 HD
ENDBRANCH  20  21
ENDBRANCH  19  20
ENDBRANCH  16  17
ENDBRANCH  14  15
ENDBRANCH   2  12
TORSDOF 6
ENDMDL
MODEL 4
REMARK VINA RESULT:      -9.1      6.789     10.461
REMARK  Name = 445354
REMARK  6 active torsions:
REMARK  status: ('A' for Active; 'I' for Inactive)
REMARK    1  A    between atoms: C_1  and  C_6
REMARK    2  A    between atoms: C_2  and  C_12
REMARK    3  A    between atoms: C_14  and  C_15
REMARK    4  A    between atoms: C_16  and  C_17
REMARK    5  A    between atoms: C_19  and  C_20
REMARK    6  A    between atoms: C_20  and  O_21
REMARK                            x       y       z     vdW  Elec       q    Type
REMARK                         _______ _______ _______ _____ _____    ______ ____
ROOT
ATOM      1  C   UNL     1      33.354  -8.437 -23.236  0.00  0.00    -0.005 C 
ATOM      2  C   UNL     1      32.801  -9.641 -23.445  0.00  0.00    -0.005 C 
ENDROOT
BRANCH   1   6
ATOM      3  C   UNL     1      32.079  -6.354 -23.930  0.00  0.00    +0.018 C 
ATOM      4  C   UNL     1      31.542  -5.008 -23.369  0.00  0.00    +0.004 C 
ATOM      5  C   UNL     1      30.669  -5.205 -22.143  0.00  0.00    +0.005 C 
ATOM      6  C   UNL     1      32.593  -7.277 -22.800  0.00  0.00    -0.031 C 
ATOM      7  C   UNL     1      31.468  -5.876 -21.035  0.00  0.00    +0.022 C 
ATOM      8  C   UNL     1      32.331  -7.035 -21.492  0.00  0.00    -0.048 C 
ATOM      9  C   UNL     1      33.198  -5.981 -24.932  0.00  0.00    +0.004 C 
ATOM     10  C   UNL     1      30.945  -7.064 -24.704  0.00  0.00    +0.004 C 
ATOM     11  C   UNL     1      32.836  -7.850 -20.324  0.00  0.00    +0.026 C 
ENDBRANCH   1   6
BRANCH   2  12
ATOM     12  C   UNL     1      33.491 -10.860 -23.881  0.00  0.00    -0.022 C 
ATOM     13  C   UNL     1      34.570 -10.703 -24.924  0.00  0.00    +0.031 C 
ATOM     14  C   UNL     1      33.122 -12.036 -23.330  0.00  0.00    -0.004 C 
BRANCH  14  15
ATOM     15  C   UNL     1      33.661 -13.355 -23.606  0.00  0.00    -0.001 C 
ATOM     16  C   UNL     1      33.881 -14.263 -22.639  0.00  0.00    -0.005 C 
BRANCH  16  17
ATOM     17  C   UNL     1      34.420 -15.616 -22.811  0.00  0.00    -0.024 C 
ATOM     18  C   UNL     1      34.841 -16.360 -21.571  0.00  0.00    +0.031 C 
ATOM     19  C   UNL     1      34.506 -16.120 -24.061  0.00  0.00    +0.001 C 
BRANCH  19  20
ATOM     20  C   UNL     1      35.014 -17.459 -24.494  0.00  0.00    +0.163 C 
BRANCH  20  21
ATOM     21  O   UNL     1      34.216 -17.913 -25.580  0.00  0.00    -0.377 OA
ATOM     22  H   UNL     1      34.402 -18.850 -25.750  0.00  0.00    +0.211 HD
ENDBRANCH  20  21
ENDBRANCH  19  20
ENDBRANCH  16  17
ENDBRANCH  14  15
ENDBRANCH   2  12
TORSDOF 6
ENDMDL
MODEL 5
REMARK VINA RESULT:      -8.9      6.459     11.402
REMARK  Name = 445354
REMARK  6 active torsions:
REMARK  status: ('A' for Active; 'I' for Inactive)
REMARK    1  A    between atoms: C_1  and  C_6
REMARK    2  A    between atoms: C_2  and  C_12
REMARK    3  A    between atoms: C_14  and  C_15
REMARK    4  A    between atoms: C_16  and  C_17
REMARK    5  A    between atoms: C_19  and  C_20
REMARK    6  A    between atoms: C_20  and  O_21
REMARK                            x       y       z     vdW  Elec       q    Type
REMARK                         _______ _______ _______ _____ _____    ______ ____
ROOT
ATOM      1  C   UNL     1      33.386 -14.440 -23.387  0.00  0.00    -0.005 C 
ATOM      2  C   UNL     1      34.155 -13.418 -23.792  0.00  0.00    -0.005 C 
ENDROOT
BRANCH   1   6
ATOM      3  C   UNL     1      33.936 -15.907 -21.389  0.00  0.00    +0.018 C 
ATOM      4  C   UNL     1      34.788 -17.139 -20.978  0.00  0.00    +0.004 C 
ATOM      5  C   UNL     1      34.519 -18.344 -21.862  0.00  0.00    +0.005 C 
ATOM      6  C   UNL     1      33.926 -15.707 -22.923  0.00  0.00    -0.031 C 
ATOM      7  C   UNL     1      34.857 -18.016 -23.309  0.00  0.00    +0.022 C 
ATOM      8  C   UNL     1      34.370 -16.660 -23.779  0.00  0.00    -0.048 C 
ATOM      9  C   UNL     1      34.554 -14.696 -20.648  0.00  0.00    +0.004 C 
ATOM     10  C   UNL     1      32.489 -16.105 -20.883  0.00  0.00    +0.004 C 
ATOM     11  C   UNL     1      34.447 -16.530 -25.283  0.00  0.00    +0.026 C 
ENDBRANCH   1   6
BRANCH   2  12
ATOM     12  C   UNL     1      33.696 -12.111 -24.273  0.00  0.00    -0.022 C 
ATOM     13  C   UNL     1      33.770 -11.859 -25.758  0.00  0.00    +0.031 C 
ATOM     14  C   UNL     1      33.238 -11.221 -23.366  0.00  0.00    -0.004 C 
BRANCH  14  15
ATOM     15  C   UNL     1      32.737  -9.880 -23.610  0.00  0.00    -0.001 C 
ATOM     16  C   UNL     1      33.524  -8.792 -23.547  0.00  0.00    -0.005 C 
BRANCH  16  17
ATOM     17  C   UNL     1      33.118  -7.401 -23.776  0.00  0.00    -0.024 C 
ATOM     18  C   UNL     1      34.036  -6.535 -24.599  0.00  0.00    +0.031 C 
ATOM     19  C   UNL     1      31.953  -6.975 -23.244  0.00  0.00    +0.001 C 
BRANCH  19  20
ATOM     20  C   UNL     1      31.327  -5.619 -23.333  0.00  0.00    +0.163 C 
BRANCH  20  21
ATOM     21  O   UNL     1      31.771  -4.844 -22.225  0.00  0.00    -0.377 OA
ATOM     22  H   UNL     1      31.893  -3.923 -22.503  0.00  0.00    +0.211 HD
ENDBRANCH  20  21
ENDBRANCH  19  20
ENDBRANCH  16  17
ENDBRANCH  14  15
ENDBRANCH   2  12
TORSDOF 6
ENDMDL
MODEL 6
REMARK VINA RESULT:      -8.8      4.085      9.237
REMARK  Name = 445354
REMARK  6 active torsions:
REMARK  status: ('A' for Active; 'I' for Inactive)
REMARK    1  A    between atoms: C_1  and  C_6
REMARK    2  A    between atoms: C_2  and  C_12
REMARK    3  A    between atoms: C_14  and  C_15
REMARK    4  A    between atoms: C_16  and  C_17
REMARK    5  A    between atoms: C_19  and  C_20
REMARK    6  A    between atoms: C_20  and  O_21
REMARK                            x       y       z     vdW  Elec       q    Type
REMARK                         _______ _______ _______ _____ _____    ______ ____
ROOT
ATOM      1  C   UNL     1      32.148 -22.754 -17.099  0.00  0.00    -0.005 C 
ATOM      2  C   UNL     1      33.314 -22.774 -17.763  0.00  0.00    -0.005 C 
ENDROOT
BRANCH   1   6
ATOM      3  C   UNL     1      30.500 -23.711 -15.421  0.00  0.00    +0.018 C 
ATOM      4  C   UNL     1      30.371 -24.095 -13.922  0.00  0.00    +0.004 C 
ATOM      5  C   UNL     1      31.467 -25.046 -13.476  0.00  0.00    +0.005 C 
ATOM      6  C   UNL     1      31.963 -23.378 -15.799  0.00  0.00    -0.031 C 
ATOM      7  C   UNL     1      32.830 -24.397 -13.665  0.00  0.00    +0.022 C 
ATOM      8  C   UNL     1      33.006 -23.671 -14.984  0.00  0.00    -0.048 C 
ATOM      9  C   UNL     1      29.554 -22.504 -15.635  0.00  0.00    +0.004 C 
ATOM     10  C   UNL     1      29.997 -24.888 -16.287  0.00  0.00    +0.004 C 
ATOM     11  C   UNL     1      34.455 -23.335 -15.247  0.00  0.00    +0.026 C 
ENDBRANCH   1   6
BRANCH   2  12
ATOM     12  C   UNL     1      33.588 -22.172 -19.072  0.00  0.00    -0.022 C 
ATOM     13  C   UNL     1      34.544 -22.906 -19.980  0.00  0.00    +0.031 C 
ATOM     14  C   UNL     1      32.976 -21.009 -19.383  0.00  0.00    -0.004 C 
BRANCH  14  15
ATOM     15  C   UNL     1      33.096 -20.241 -20.608  0.00  0.00    -0.001 C 
ATOM     16  C   UNL     1      34.189 -19.516 -20.903  0.00  0.00    -0.005 C 
BRANCH  16  17
ATOM     17  C   UNL     1      34.409 -18.709 -22.108  0.00  0.00    -0.024 C 
ATOM     18  C   UNL     1      34.758 -19.438 -23.379  0.00  0.00    +0.031 C 
ATOM     19  C   UNL     1      34.284 -17.368 -22.016  0.00  0.00    +0.001 C 
BRANCH  19  20
ATOM     20  C   UNL     1      34.455 -16.339 -23.087  0.00  0.00    +0.163 C 
BRANCH  20  21
ATOM     21  O   UNL     1      35.838 -16.252 -23.411  0.00  0.00    -0.377 OA
ATOM     22  H   UNL     1      35.988 -16.625 -24.293  0.00  0.00    +0.211 HD
ENDBRANCH  20  21
ENDBRANCH  19  20
ENDBRANCH  16  17
ENDBRANCH  14  15
ENDBRANCH   2  12
TORSDOF 6
ENDMDL
MODEL 7
REMARK VINA RESULT:      -8.6      0.652      2.258
REMARK  Name = 445354
REMARK  6 active torsions:
REMARK  status: ('A' for Active; 'I' for Inactive)
REMARK    1  A    between atoms: C_1  and  C_6
REMARK    2  A    between atoms: C_2  and  C_12
REMARK    3  A    between atoms: C_14  and  C_15
REMARK    4  A    between atoms: C_16  and  C_17
REMARK    5  A    between atoms: C_19  and  C_20
REMARK    6  A    between atoms: C_20  and  O_21
REMARK                            x       y       z     vdW  Elec       q    Type
REMARK                         _______ _______ _______ _____ _____    ______ ____
ROOT
ATOM      1  C   UNL     1      34.388 -18.213 -21.026  0.00  0.00    -0.005 C 
ATOM      2  C   UNL     1      34.013 -19.494 -21.159  0.00  0.00    -0.005 C 
ENDROOT
BRANCH   1   6
ATOM      3  C   UNL     1      35.096 -17.641 -23.396  0.00  0.00    +0.018 C 
ATOM      4  C   UNL     1      35.220 -16.443 -24.377  0.00  0.00    +0.004 C 
ATOM      5  C   UNL     1      33.914 -15.682 -24.521  0.00  0.00    +0.005 C 
ATOM      6  C   UNL     1      34.327 -17.249 -22.113  0.00  0.00    -0.031 C 
ATOM      7  C   UNL     1      33.483 -15.126 -23.173  0.00  0.00    +0.022 C 
ATOM      8  C   UNL     1      33.621 -16.096 -22.016  0.00  0.00    -0.048 C 
ATOM      9  C   UNL     1      36.545 -18.093 -23.091  0.00  0.00    +0.004 C 
ATOM     10  C   UNL     1      34.361 -18.799 -24.108  0.00  0.00    +0.004 C 
ATOM     11  C   UNL     1      32.886 -15.609 -20.789  0.00  0.00    +0.026 C 
ENDBRANCH   1   6
BRANCH   2  12
ATOM     12  C   UNL     1      34.040 -20.529 -20.120  0.00  0.00    -0.022 C 
ATOM     13  C   UNL     1      32.714 -20.971 -19.554  0.00  0.00    +0.031 C 
ATOM     14  C   UNL     1      35.239 -21.019 -19.737  0.00  0.00    -0.004 C 
BRANCH  14  15
ATOM     15  C   UNL     1      35.505 -22.038 -18.738  0.00  0.00    -0.001 C 
ATOM     16  C   UNL     1      36.062 -21.754 -17.547  0.00  0.00    -0.005 C 
BRANCH  16  17
ATOM     17  C   UNL     1      36.370 -22.705 -16.474  0.00  0.00    -0.024 C 
ATOM     18  C   UNL     1      37.798 -22.779 -16.000  0.00  0.00    +0.031 C 
ATOM     19  C   UNL     1      35.367 -23.455 -15.970  0.00  0.00    +0.001 C 
BRANCH  19  20
ATOM     20  C   UNL     1      35.425 -24.483 -14.885  0.00  0.00    +0.163 C 
BRANCH  20  21
ATOM     21  O   UNL     1      35.872 -25.710 -15.451  0.00  0.00    -0.377 OA
ATOM     22  H   UNL     1      35.481 -25.821 -16.332  0.00  0.00    +0.211 HD
ENDBRANCH  20  21
ENDBRANCH  19  20
ENDBRANCH  16  17
ENDBRANCH  14  15
ENDBRANCH   2  12
TORSDOF 6
ENDMDL
MODEL 8
REMARK VINA RESULT:      -8.4      3.471     10.146
REMARK  Name = 445354
REMARK  6 active torsions:
REMARK  status: ('A' for Active; 'I' for Inactive)
REMARK    1  A    between atoms: C_1  and  C_6
REMARK    2  A    between atoms: C_2  and  C_12
REMARK    3  A    between atoms: C_14  and  C_15
REMARK    4  A    between atoms: C_16  and  C_17
REMARK    5  A    between atoms: C_19  and  C_20
REMARK    6  A    between atoms: C_20  and  O_21
REMARK                            x       y       z     vdW  Elec       q    Type
REMARK                         _______ _______ _______ _____ _____    ______ ____
ROOT
ATOM      1  C   UNL     1      35.058 -24.494 -15.351  0.00  0.00    -0.005 C 
ATOM      2  C   UNL     1      35.105 -23.296 -15.956  0.00  0.00    -0.005 C 
ENDROOT
BRANCH   1   6
ATOM      3  C   UNL     1      37.169 -25.512 -14.375  0.00  0.00    +0.018 C 
ATOM      4  C   UNL     1      37.755 -26.065 -13.046  0.00  0.00    +0.004 C 
ATOM      5  C   UNL     1      37.641 -25.065 -11.909  0.00  0.00    +0.005 C 
ATOM      6  C   UNL     1      35.811 -24.807 -14.148  0.00  0.00    -0.031 C 
ATOM      7  C   UNL     1      36.179 -24.726 -11.657  0.00  0.00    +0.022 C 
ATOM      8  C   UNL     1      35.364 -24.479 -12.911  0.00  0.00    -0.048 C 
ATOM      9  C   UNL     1      37.041 -26.730 -15.322  0.00  0.00    +0.004 C 
ATOM     10  C   UNL     1      38.175 -24.515 -14.991  0.00  0.00    +0.004 C 
ATOM     11  C   UNL     1      34.032 -23.839 -12.593  0.00  0.00    +0.026 C 
ENDBRANCH   1   6
BRANCH   2  12
ATOM     12  C   UNL     1      34.381 -22.896 -17.167  0.00  0.00    -0.022 C 
ATOM     13  C   UNL     1      32.899 -23.176 -17.206  0.00  0.00    +0.031 C 
ATOM     14  C   UNL     1      35.077 -22.307 -18.163  0.00  0.00    -0.004 C 
BRANCH  14  15
ATOM     15  C   UNL     1      34.574 -21.832 -19.439  0.00  0.00    -0.001 C 
ATOM     16  C   UNL     1      34.621 -20.538 -19.798  0.00  0.00    -0.005 C 
BRANCH  16  17
ATOM     17  C   UNL     1      34.142 -19.958 -21.058  0.00  0.00    -0.024 C 
ATOM     18  C   UNL     1      32.658 -19.740 -21.203  0.00  0.00    +0.031 C 
ATOM     19  C   UNL     1      35.048 -19.650 -22.010  0.00  0.00    +0.001 C 
BRANCH  19  20
ATOM     20  C   UNL     1      34.814 -19.057 -23.363  0.00  0.00    +0.163 C 
BRANCH  20  21
ATOM     21  O   UNL     1      35.826 -18.088 -23.610  0.00  0.00    -0.377 OA
ATOM     22  H   UNL     1      35.496 -17.207 -23.373  0.00  0.00    +0.211 HD
ENDBRANCH  20  21
ENDBRANCH  19  20
ENDBRANCH  16  17
ENDBRANCH  14  15
ENDBRANCH   2  12
TORSDOF 6
ENDMDL
MODEL 9
REMARK VINA RESULT:      -8.3      4.787      7.897
REMARK  Name = 445354
REMARK  6 active torsions:
REMARK  status: ('A' for Active; 'I' for Inactive)
REMARK    1  A    between atoms: C_1  and  C_6
REMARK    2  A    between atoms: C_2  and  C_12
REMARK    3  A    between atoms: C_14  and  C_15
REMARK    4  A    between atoms: C_16  and  C_17
REMARK    5  A    between atoms: C_19  and  C_20
REMARK    6  A    between atoms: C_20  and  O_21
REMARK                            x       y       z     vdW  Elec       q    Type
REMARK                         _______ _______ _______ _____ _____    ______ ____
ROOT
ATOM      1  C   UNL     1      33.120 -10.868 -22.983  0.00  0.00    -0.005 C 
ATOM      2  C   UNL     1      33.473 -11.931 -23.722  0.00  0.00    -0.005 C 
ENDROOT
BRANCH   1   6
ATOM      3  C   UNL     1      32.276  -8.476 -22.880  0.00  0.00    +0.018 C 
ATOM      4  C   UNL     1      32.369  -7.116 -23.626  0.00  0.00    +0.004 C 
ATOM      5  C   UNL     1      33.806  -6.663 -23.817  0.00  0.00    +0.005 C 
ATOM      6  C   UNL     1      33.304  -9.496 -23.425  0.00  0.00    -0.031 C 
ATOM      7  C   UNL     1      34.571  -7.689 -24.639  0.00  0.00    +0.022 C 
ATOM      8  C   UNL     1      34.323  -9.130 -24.241  0.00  0.00    -0.048 C 
ATOM      9  C   UNL     1      30.819  -8.963 -23.064  0.00  0.00    +0.004 C 
ATOM     10  C   UNL     1      32.529  -8.240 -21.374  0.00  0.00    +0.004 C 
ATOM     11  C   UNL     1      35.337 -10.064 -24.861  0.00  0.00    +0.026 C 
ENDBRANCH   1   6
BRANCH   2  12
ATOM     12  C   UNL     1      33.324 -13.343 -23.356  0.00  0.00    -0.022 C 
ATOM     13  C   UNL     1      32.344 -13.669 -22.256  0.00  0.00    +0.031 C 
ATOM     14  C   UNL     1      34.065 -14.258 -24.018  0.00  0.00    -0.004 C 
BRANCH  14  15
ATOM     15  C   UNL     1      34.081 -15.696 -23.826  0.00  0.00    -0.001 C 
ATOM     16  C   UNL     1      34.929 -16.303 -22.978  0.00  0.00    -0.005 C 
BRANCH  16  17
ATOM     17  C   UNL     1      35.026 -17.743 -22.714  0.00  0.00    -0.024 C 
ATOM     18  C   UNL     1      35.029 -18.669 -23.902  0.00  0.00    +0.031 C 
ATOM     19  C   UNL     1      35.109 -18.158 -21.432  0.00  0.00    +0.001 C 
BRANCH  19  20
ATOM     20  C   UNL     1      35.214 -19.555 -20.908  0.00  0.00    +0.163 C 
BRANCH  20  21
ATOM     21  O   UNL     1      36.427 -19.669 -20.172  0.00  0.00    -0.377 OA
ATOM     22  H   UNL     1      37.167 -19.798 -20.786  0.00  0.00    +0.211 HD
ENDBRANCH  20  21
ENDBRANCH  19  20
ENDBRANCH  16  17
ENDBRANCH  14  15
ENDBRANCH   2  12
TORSDOF 6
ENDMDL
