MODEL 1
REMARK VINA RESULT:     -10.4      0.000      0.000
REMARK  Name = 74077203
REMARK  4 active torsions:
REMARK  status: ('A' for Active; 'I' for Inactive)
REMARK    1  A    between atoms: C_15  and  O_17
REMARK    2  A    between atoms: O_17  and  C_20
REMARK    3  A    between atoms: N_19  and  C_22
REMARK    4  A    between atoms: C_23  and  C_28
REMARK                            x       y       z     vdW  Elec       q    Type
REMARK                         _______ _______ _______ _____ _____    ______ ____
ROOT
ATOM      1  O   UNL     1      30.438  -7.335 -22.976  0.00  0.00    -0.287 OA
ATOM      2  N   UNL     1      31.536  -6.563 -22.695  0.00  0.00    +0.441 N 
ATOM      3  N   UNL     1      32.299  -8.586 -21.413  0.00  0.00    -0.321 N 
ATOM      4  C   UNL     1      33.520  -7.844 -23.383  0.00  0.00    +0.023 C 
ATOM      5  C   UNL     1      32.696  -7.381 -22.134  0.00  0.00    +0.067 C 
ATOM      6  C   UNL     1      32.859  -7.157 -24.585  0.00  0.00    -0.013 C 
ATOM      7  C   UNL     1      32.088  -6.003 -23.976  0.00  0.00    -0.025 C 
ATOM      8  C   UNL     1      33.304  -9.334 -23.351  0.00  0.00    -0.007 C 
ATOM      9  C   UNL     1      32.603  -9.687 -22.190  0.00  0.00    +0.042 C 
ATOM     10  C   UNL     1      35.000  -7.483 -23.248  0.00  0.00    +0.004 C 
ATOM     11  C   UNL     1      31.124  -5.458 -21.771  0.00  0.00    -0.043 C 
ATOM     12  C   UNL     1      31.595  -8.605 -20.161  0.00  0.00    +0.110 C 
ATOM     13  C   UNL     1      33.712 -10.285 -24.276  0.00  0.00    +0.035 C 
ATOM     14  C   UNL     1      32.306 -11.021 -21.945  0.00  0.00    +0.017 C 
ATOM     15  C   UNL     1      33.409 -11.623 -24.028  0.00  0.00    +0.150 C 
ATOM     16  C   UNL     1      32.710 -11.988 -22.871  0.00  0.00    +0.039 C 
ENDROOT
BRANCH  15  17
ATOM     17  O   UNL     1      33.792 -12.581 -24.917  0.00  0.00    -0.410 OA
BRANCH  17  20
ATOM     18  O   UNL     1      32.456 -14.468 -24.809  0.00  0.00    -0.226 OA
ATOM     19  N   UNL     1      34.580 -14.427 -23.826  0.00  0.00    -0.250 N 
ATOM     20  C   UNL     1      33.511 -13.909 -24.531  0.00  0.00    +0.410 C 
ATOM     21  H   UNL     1      35.348 -13.824 -23.701  0.00  0.00    +0.158 HD
BRANCH  19  22
ATOM     22  C   UNL     1      34.709 -15.717 -23.263  0.00  0.00    +0.049 C 
ATOM     23  C   UNL     1      34.581 -15.915 -21.888  0.00  0.00    -0.009 C 
ATOM     24  C   UNL     1      34.968 -16.802 -24.101  0.00  0.00    +0.014 C 
ATOM     25  C   UNL     1      34.711 -17.195 -21.352  0.00  0.00    -0.003 C 
ATOM     26  C   UNL     1      35.098 -18.083 -23.566  0.00  0.00    +0.001 C 
ATOM     27  C   UNL     1      34.970 -18.279 -22.190  0.00  0.00    -0.000 C 
BRANCH  23  28
ATOM     28  C   UNL     1      34.304 -14.771 -20.966  0.00  0.00    +0.028 C 
ATOM     29  C   UNL     1      32.884 -14.810 -20.408  0.00  0.00    +0.005 C 
ENDBRANCH  23  28
ENDBRANCH  19  22
ENDBRANCH  17  20
ENDBRANCH  15  17
TORSDOF 4
ENDMDL
MODEL 2
REMARK VINA RESULT:      -9.9     10.134     14.975
REMARK  Name = 74077203
REMARK  4 active torsions:
REMARK  status: ('A' for Active; 'I' for Inactive)
REMARK    1  A    between atoms: C_15  and  O_17
REMARK    2  A    between atoms: O_17  and  C_20
REMARK    3  A    between atoms: N_19  and  C_22
REMARK    4  A    between atoms: C_23  and  C_28
REMARK                            x       y       z     vdW  Elec       q    Type
REMARK                         _______ _______ _______ _____ _____    ______ ____
ROOT
ATOM      1  O   UNL     1      37.318 -22.681 -13.094  0.00  0.00    -0.287 OA
ATOM      2  N   UNL     1      37.739 -23.986 -13.108  0.00  0.00    +0.441 N 
ATOM      3  N   UNL     1      35.293 -24.499 -12.843  0.00  0.00    -0.321 N 
ATOM      4  C   UNL     1      36.473 -25.139 -14.873  0.00  0.00    +0.023 C 
ATOM      5  C   UNL     1      36.590 -24.968 -13.320  0.00  0.00    +0.067 C 
ATOM      6  C   UNL     1      37.647 -24.346 -15.461  0.00  0.00    -0.013 C 
ATOM      7  C   UNL     1      38.619 -24.210 -14.306  0.00  0.00    -0.025 C 
ATOM      8  C   UNL     1      35.131 -24.513 -15.145  0.00  0.00    -0.007 C 
ATOM      9  C   UNL     1      34.509 -24.177 -13.934  0.00  0.00    +0.042 C 
ATOM     10  C   UNL     1      36.504 -26.612 -15.281  0.00  0.00    +0.004 C 
ATOM     11  C   UNL     1      38.492 -24.263 -11.843  0.00  0.00    -0.043 C 
ATOM     12  C   UNL     1      34.947 -24.291 -11.464  0.00  0.00    +0.110 C 
ATOM     13  C   UNL     1      34.520 -24.278 -16.369  0.00  0.00    +0.035 C 
ATOM     14  C   UNL     1      33.248 -23.597 -13.947  0.00  0.00    +0.017 C 
ATOM     15  C   UNL     1      33.255 -23.692 -16.377  0.00  0.00    +0.150 C 
ATOM     16  C   UNL     1      32.624 -23.354 -15.174  0.00  0.00    +0.039 C 
ENDROOT
BRANCH  15  17
ATOM     17  O   UNL     1      32.629 -23.447 -17.561  0.00  0.00    -0.410 OA
BRANCH  17  20
ATOM     18  O   UNL     1      33.918 -23.926 -19.424  0.00  0.00    -0.226 OA
ATOM     19  N   UNL     1      33.711 -21.736 -18.622  0.00  0.00    -0.250 N 
ATOM     20  C   UNL     1      33.480 -23.099 -18.633  0.00  0.00    +0.410 C 
ATOM     21  H   UNL     1      33.270 -21.229 -17.903  0.00  0.00    +0.158 HD
BRANCH  19  22
ATOM     22  C   UNL     1      34.503 -20.981 -19.517  0.00  0.00    +0.049 C 
ATOM     23  C   UNL     1      35.895 -21.013 -19.443  0.00  0.00    -0.009 C 
ATOM     24  C   UNL     1      33.874 -20.194 -20.482  0.00  0.00    +0.014 C 
ATOM     25  C   UNL     1      36.658 -20.260 -20.335  0.00  0.00    -0.003 C 
ATOM     26  C   UNL     1      34.636 -19.440 -21.374  0.00  0.00    +0.001 C 
ATOM     27  C   UNL     1      36.029 -19.473 -21.300  0.00  0.00    -0.000 C 
BRANCH  23  28
ATOM     28  C   UNL     1      36.597 -21.846 -18.420  0.00  0.00    +0.028 C 
ATOM     29  C   UNL     1      37.151 -21.007 -17.272  0.00  0.00    +0.005 C 
ENDBRANCH  23  28
ENDBRANCH  19  22
ENDBRANCH  17  20
ENDBRANCH  15  17
TORSDOF 4
ENDMDL
MODEL 3
REMARK VINA RESULT:      -9.8      1.775      2.761
REMARK  Name = 74077203
REMARK  4 active torsions:
REMARK  status: ('A' for Active; 'I' for Inactive)
REMARK    1  A    between atoms: C_15  and  O_17
REMARK    2  A    between atoms: O_17  and  C_20
REMARK    3  A    between atoms: N_19  and  C_22
REMARK    4  A    between atoms: C_23  and  C_28
REMARK                            x       y       z     vdW  Elec       q    Type
REMARK                         _______ _______ _______ _____ _____    ______ ____
ROOT
ATOM      1  O   UNL     1      30.387  -6.283 -22.255  0.00  0.00    -0.287 OA
ATOM      2  N   UNL     1      31.583  -6.084 -22.897  0.00  0.00    +0.441 N 
ATOM      3  N   UNL     1      32.543  -7.298 -20.917  0.00  0.00    -0.321 N 
ATOM      4  C   UNL     1      32.652  -8.285 -23.139  0.00  0.00    +0.023 C 
ATOM      5  C   UNL     1      32.703  -6.948 -22.325  0.00  0.00    +0.067 C 
ATOM      6  C   UNL     1      31.588  -8.064 -24.222  0.00  0.00    -0.013 C 
ATOM      7  C   UNL     1      31.465  -6.556 -24.320  0.00  0.00    -0.025 C 
ATOM      8  C   UNL     1      32.233  -9.267 -22.078  0.00  0.00    -0.007 C 
ATOM      9  C   UNL     1      32.198  -8.633 -20.829  0.00  0.00    +0.042 C 
ATOM     10  C   UNL     1      34.018  -8.638 -23.729  0.00  0.00    +0.004 C 
ATOM     11  C   UNL     1      31.916  -4.624 -22.853  0.00  0.00    -0.043 C 
ATOM     12  C   UNL     1      32.612  -6.370 -19.823  0.00  0.00    +0.110 C 
ATOM     13  C   UNL     1      31.922 -10.613 -22.222  0.00  0.00    +0.035 C 
ATOM     14  C   UNL     1      31.849  -9.358 -19.698  0.00  0.00    +0.017 C 
ATOM     15  C   UNL     1      31.569 -11.337 -21.085  0.00  0.00    +0.150 C 
ATOM     16  C   UNL     1      31.533 -10.714 -19.832  0.00  0.00    +0.039 C 
ENDROOT
BRANCH  15  17
ATOM     17  O   UNL     1      31.256 -12.658 -21.192  0.00  0.00    -0.410 OA
BRANCH  17  20
ATOM     18  O   UNL     1      33.108 -13.628 -20.197  0.00  0.00    -0.226 OA
ATOM     19  N   UNL     1      32.419 -14.250 -22.347  0.00  0.00    -0.250 N 
ATOM     20  C   UNL     1      32.355 -13.543 -21.161  0.00  0.00    +0.410 C 
ATOM     21  H   UNL     1      31.722 -14.043 -23.011  0.00  0.00    +0.158 HD
BRANCH  19  22
ATOM     22  C   UNL     1      33.362 -15.232 -22.725  0.00  0.00    +0.049 C 
ATOM     23  C   UNL     1      33.791 -15.342 -24.048  0.00  0.00    -0.009 C 
ATOM     24  C   UNL     1      33.865 -16.100 -21.756  0.00  0.00    +0.014 C 
ATOM     25  C   UNL     1      34.722 -16.317 -24.401  0.00  0.00    -0.003 C 
ATOM     26  C   UNL     1      34.797 -17.077 -22.108  0.00  0.00    +0.001 C 
ATOM     27  C   UNL     1      35.225 -17.185 -23.432  0.00  0.00    -0.000 C 
BRANCH  23  28
ATOM     28  C   UNL     1      33.269 -14.426 -25.109  0.00  0.00    +0.028 C 
ATOM     29  C   UNL     1      32.905 -15.172 -26.388  0.00  0.00    +0.005 C 
ENDBRANCH  23  28
ENDBRANCH  19  22
ENDBRANCH  17  20
ENDBRANCH  15  17
TORSDOF 4
ENDMDL
MODEL 4
REMARK VINA RESULT:      -9.5      1.364      1.704
REMARK  Name = 74077203
REMARK  4 active torsions:
REMARK  status: ('A' for Active; 'I' for Inactive)
REMARK    1  A    between atoms: C_15  and  O_17
REMARK    2  A    between atoms: O_17  and  C_20
REMARK    3  A    between atoms: N_19  and  C_22
REMARK    4  A    between atoms: C_23  and  C_28
REMARK                            x       y       z     vdW  Elec       q    Type
REMARK                         _______ _______ _______ _____ _____    ______ ____
ROOT
ATOM      1  O   UNL     1      30.283  -6.123 -22.350  0.00  0.00    -0.287 OA
ATOM      2  N   UNL     1      31.477  -5.666 -22.844  0.00  0.00    +0.441 N 
ATOM      3  N   UNL     1      32.473  -7.249 -21.165  0.00  0.00    -0.321 N 
ATOM      4  C   UNL     1      32.773  -7.633 -23.549  0.00  0.00    +0.023 C 
ATOM      5  C   UNL     1      32.655  -6.544 -22.429  0.00  0.00    +0.067 C 
ATOM      6  C   UNL     1      31.738  -7.242 -24.611  0.00  0.00    -0.013 C 
ATOM      7  C   UNL     1      31.468  -5.775 -24.344  0.00  0.00    -0.025 C 
ATOM      8  C   UNL     1      32.411  -8.884 -22.792  0.00  0.00    -0.007 C 
ATOM      9  C   UNL     1      32.261  -8.588 -21.430  0.00  0.00    +0.042 C 
ATOM     10  C   UNL     1      34.191  -7.706 -24.117  0.00  0.00    +0.004 C 
ATOM     11  C   UNL     1      31.659  -4.240 -22.421  0.00  0.00    -0.043 C 
ATOM     12  C   UNL     1      32.402  -6.623 -19.874  0.00  0.00    +0.110 C 
ATOM     13  C   UNL     1      32.245 -10.172 -23.282  0.00  0.00    +0.035 C 
ATOM     14  C   UNL     1      31.940  -9.602 -20.537  0.00  0.00    +0.017 C 
ATOM     15  C   UNL     1      31.919 -11.186 -22.383  0.00  0.00    +0.150 C 
ATOM     16  C   UNL     1      31.768 -10.903 -21.020  0.00  0.00    +0.039 C 
ENDROOT
BRANCH  15  17
ATOM     17  O   UNL     1      31.747 -12.460 -22.832  0.00  0.00    -0.410 OA
BRANCH  17  20
ATOM     18  O   UNL     1      34.031 -12.631 -23.168  0.00  0.00    -0.226 OA
ATOM     19  N   UNL     1      32.651 -14.521 -23.227  0.00  0.00    -0.250 N 
ATOM     20  C   UNL     1      32.936 -13.176 -23.089  0.00  0.00    +0.410 C 
ATOM     21  H   UNL     1      31.703 -14.774 -23.130  0.00  0.00    +0.158 HD
BRANCH  19  22
ATOM     22  C   UNL     1      33.550 -15.579 -23.490  0.00  0.00    +0.049 C 
ATOM     23  C   UNL     1      34.092 -16.333 -22.450  0.00  0.00    -0.009 C 
ATOM     24  C   UNL     1      33.894 -15.865 -24.811  0.00  0.00    +0.014 C 
ATOM     25  C   UNL     1      34.978 -17.373 -22.730  0.00  0.00    -0.003 C 
ATOM     26  C   UNL     1      34.780 -16.905 -25.093  0.00  0.00    +0.001 C 
ATOM     27  C   UNL     1      35.322 -17.660 -24.052  0.00  0.00    -0.000 C 
BRANCH  23  28
ATOM     28  C   UNL     1      33.742 -16.049 -21.025  0.00  0.00    +0.028 C 
ATOM     29  C   UNL     1      34.716 -15.071 -20.374  0.00  0.00    +0.005 C 
ENDBRANCH  23  28
ENDBRANCH  19  22
ENDBRANCH  17  20
ENDBRANCH  15  17
TORSDOF 4
ENDMDL
MODEL 5
REMARK VINA RESULT:      -9.3      9.815     15.024
REMARK  Name = 74077203
REMARK  4 active torsions:
REMARK  status: ('A' for Active; 'I' for Inactive)
REMARK    1  A    between atoms: C_15  and  O_17
REMARK    2  A    between atoms: O_17  and  C_20
REMARK    3  A    between atoms: N_19  and  C_22
REMARK    4  A    between atoms: C_23  and  C_28
REMARK                            x       y       z     vdW  Elec       q    Type
REMARK                         _______ _______ _______ _____ _____    ______ ____
ROOT
ATOM      1  O   UNL     1      37.515 -22.796 -13.041  0.00  0.00    -0.287 OA
ATOM      2  N   UNL     1      37.908 -24.110 -13.058  0.00  0.00    +0.441 N 
ATOM      3  N   UNL     1      35.456 -24.568 -12.751  0.00  0.00    -0.321 N 
ATOM      4  C   UNL     1      36.588 -25.240 -14.797  0.00  0.00    +0.023 C 
ATOM      5  C   UNL     1      36.734 -25.067 -13.248  0.00  0.00    +0.067 C 
ATOM      6  C   UNL     1      37.769 -24.474 -15.407  0.00  0.00    -0.013 C 
ATOM      7  C   UNL     1      38.763 -24.356 -14.269  0.00  0.00    -0.025 C 
ATOM      8  C   UNL     1      35.256 -24.586 -15.049  0.00  0.00    -0.007 C 
ATOM      9  C   UNL     1      34.661 -24.233 -13.830  0.00  0.00    +0.042 C 
ATOM     10  C   UNL     1      36.580 -26.715 -15.202  0.00  0.00    +0.004 C 
ATOM     11  C   UNL     1      38.675 -24.399 -11.803  0.00  0.00    -0.043 C 
ATOM     12  C   UNL     1      35.136 -24.350 -11.367  0.00  0.00    +0.110 C 
ATOM     13  C   UNL     1      34.630 -24.342 -16.264  0.00  0.00    +0.035 C 
ATOM     14  C   UNL     1      33.413 -23.626 -13.824  0.00  0.00    +0.017 C 
ATOM     15  C   UNL     1      33.378 -23.729 -16.254  0.00  0.00    +0.150 C 
ATOM     16  C   UNL     1      32.774 -23.373 -15.041  0.00  0.00    +0.039 C 
ENDROOT
BRANCH  15  17
ATOM     17  O   UNL     1      32.739 -23.473 -17.428  0.00  0.00    -0.410 OA
BRANCH  17  20
ATOM     18  O   UNL     1      33.816 -23.977 -19.415  0.00  0.00    -0.226 OA
ATOM     19  N   UNL     1      34.058 -21.881 -18.401  0.00  0.00    -0.250 N 
ATOM     20  C   UNL     1      33.580 -23.172 -18.521  0.00  0.00    +0.410 C 
ATOM     21  H   UNL     1      33.756 -21.380 -17.608  0.00  0.00    +0.158 HD
BRANCH  19  22
ATOM     22  C   UNL     1      34.926 -21.189 -19.276  0.00  0.00    +0.049 C 
ATOM     23  C   UNL     1      34.421 -20.375 -20.291  0.00  0.00    -0.009 C 
ATOM     24  C   UNL     1      36.304 -21.327 -19.115  0.00  0.00    +0.014 C 
ATOM     25  C   UNL     1      35.294 -19.701 -21.143  0.00  0.00    -0.003 C 
ATOM     26  C   UNL     1      37.178 -20.653 -19.968  0.00  0.00    +0.001 C 
ATOM     27  C   UNL     1      36.672 -19.839 -20.983  0.00  0.00    -0.000 C 
BRANCH  23  28
ATOM     28  C   UNL     1      32.948 -20.208 -20.487  0.00  0.00    +0.028 C 
ATOM     29  C   UNL     1      32.579 -18.790 -20.911  0.00  0.00    +0.005 C 
ENDBRANCH  23  28
ENDBRANCH  19  22
ENDBRANCH  17  20
ENDBRANCH  15  17
TORSDOF 4
ENDMDL
MODEL 6
REMARK VINA RESULT:      -9.0      1.892      8.390
REMARK  Name = 74077203
REMARK  4 active torsions:
REMARK  status: ('A' for Active; 'I' for Inactive)
REMARK    1  A    between atoms: C_15  and  O_17
REMARK    2  A    between atoms: O_17  and  C_20
REMARK    3  A    between atoms: N_19  and  C_22
REMARK    4  A    between atoms: C_23  and  C_28
REMARK                            x       y       z     vdW  Elec       q    Type
REMARK                         _______ _______ _______ _____ _____    ______ ____
ROOT
ATOM      1  O   UNL     1      35.236 -16.107 -20.898  0.00  0.00    -0.287 OA
ATOM      2  N   UNL     1      34.792 -17.054 -21.785  0.00  0.00    +0.441 N 
ATOM      3  N   UNL     1      32.701 -15.660 -21.814  0.00  0.00    -0.321 N 
ATOM      4  C   UNL     1      34.072 -15.867 -23.814  0.00  0.00    +0.023 C 
ATOM      5  C   UNL     1      33.543 -16.606 -22.539  0.00  0.00    +0.067 C 
ATOM      6  C   UNL     1      35.596 -16.043 -23.787  0.00  0.00    -0.013 C 
ATOM      7  C   UNL     1      35.815 -17.232 -22.873  0.00  0.00    -0.025 C 
ATOM      8  C   UNL     1      33.628 -14.453 -23.548  0.00  0.00    -0.007 C 
ATOM      9  C   UNL     1      32.841 -14.412 -22.389  0.00  0.00    +0.042 C 
ATOM     10  C   UNL     1      33.444 -16.426 -25.091  0.00  0.00    +0.004 C 
ATOM     11  C   UNL     1      34.577 -18.341 -21.048  0.00  0.00    -0.043 C 
ATOM     12  C   UNL     1      31.953 -15.964 -20.626  0.00  0.00    +0.110 C 
ATOM     13  C   UNL     1      33.899 -13.309 -24.287  0.00  0.00    +0.035 C 
ATOM     14  C   UNL     1      32.309 -13.203 -21.961  0.00  0.00    +0.017 C 
ATOM     15  C   UNL     1      33.366 -12.097 -23.852  0.00  0.00    +0.150 C 
ATOM     16  C   UNL     1      32.576 -12.045 -22.697  0.00  0.00    +0.039 C 
ENDROOT
BRANCH  15  17
ATOM     17  O   UNL     1      33.614 -10.956 -24.553  0.00  0.00    -0.410 OA
BRANCH  17  20
ATOM     18  O   UNL     1      34.930  -9.294 -23.625  0.00  0.00    -0.226 OA
ATOM     19  N   UNL     1      32.623  -9.375 -23.235  0.00  0.00    -0.250 N 
ATOM     20  C   UNL     1      33.824  -9.800 -23.771  0.00  0.00    +0.410 C 
ATOM     21  H   UNL     1      31.832  -9.914 -23.465  0.00  0.00    +0.158 HD
BRANCH  19  22
ATOM     22  C   UNL     1      32.390  -8.261 -22.397  0.00  0.00    +0.049 C 
ATOM     23  C   UNL     1      31.902  -7.062 -22.917  0.00  0.00    -0.009 C 
ATOM     24  C   UNL     1      32.656  -8.371 -21.032  0.00  0.00    +0.014 C 
ATOM     25  C   UNL     1      31.678  -5.975 -22.073  0.00  0.00    -0.003 C 
ATOM     26  C   UNL     1      32.433  -7.284 -20.187  0.00  0.00    +0.001 C 
ATOM     27  C   UNL     1      31.944  -6.085 -20.708  0.00  0.00    -0.000 C 
BRANCH  23  28
ATOM     28  C   UNL     1      31.609  -6.915 -24.376  0.00  0.00    +0.028 C 
ATOM     29  C   UNL     1      32.309  -5.705 -24.987  0.00  0.00    +0.005 C 
ENDBRANCH  23  28
ENDBRANCH  19  22
ENDBRANCH  17  20
ENDBRANCH  15  17
TORSDOF 4
ENDMDL
MODEL 7
REMARK VINA RESULT:      -9.0      1.907      8.201
REMARK  Name = 74077203
REMARK  4 active torsions:
REMARK  status: ('A' for Active; 'I' for Inactive)
REMARK    1  A    between atoms: C_15  and  O_17
REMARK    2  A    between atoms: O_17  and  C_20
REMARK    3  A    between atoms: N_19  and  C_22
REMARK    4  A    between atoms: C_23  and  C_28
REMARK                            x       y       z     vdW  Elec       q    Type
REMARK                         _______ _______ _______ _____ _____    ______ ____
ROOT
ATOM      1  O   UNL     1      35.279 -16.184 -20.880  0.00  0.00    -0.287 OA
ATOM      2  N   UNL     1      34.840 -17.170 -21.726  0.00  0.00    +0.441 N 
ATOM      3  N   UNL     1      32.760 -15.766 -21.853  0.00  0.00    -0.321 N 
ATOM      4  C   UNL     1      34.156 -16.080 -23.821  0.00  0.00    +0.023 C 
ATOM      5  C   UNL     1      33.605 -16.752 -22.518  0.00  0.00    +0.067 C 
ATOM      6  C   UNL     1      35.678 -16.266 -23.764  0.00  0.00    -0.013 C 
ATOM      7  C   UNL     1      35.877 -17.409 -22.789  0.00  0.00    -0.025 C 
ATOM      8  C   UNL     1      33.719 -14.652 -23.631  0.00  0.00    -0.007 C 
ATOM      9  C   UNL     1      32.917 -14.548 -22.486  0.00  0.00    +0.042 C 
ATOM     10  C   UNL     1      33.541 -16.698 -25.077  0.00  0.00    +0.004 C 
ATOM     11  C   UNL     1      34.606 -18.418 -20.929  0.00  0.00    -0.043 C 
ATOM     12  C   UNL     1      31.994 -16.005 -20.661  0.00  0.00    +0.110 C 
ATOM     13  C   UNL     1      34.008 -13.548 -24.422  0.00  0.00    +0.035 C 
ATOM     14  C   UNL     1      32.388 -13.317 -22.126  0.00  0.00    +0.017 C 
ATOM     15  C   UNL     1      33.478 -12.313 -24.055  0.00  0.00    +0.150 C 
ATOM     16  C   UNL     1      32.673 -12.198 -22.915  0.00  0.00    +0.039 C 
ENDROOT
BRANCH  15  17
ATOM     17  O   UNL     1      33.743 -11.210 -24.808  0.00  0.00    -0.410 OA
BRANCH  17  20
ATOM     18  O   UNL     1      35.015  -9.609 -23.721  0.00  0.00    -0.226 OA
ATOM     19  N   UNL     1      32.687  -9.413 -23.873  0.00  0.00    -0.250 N 
ATOM     20  C   UNL     1      33.915 -10.011 -24.084  0.00  0.00    +0.410 C 
ATOM     21  H   UNL     1      31.906  -9.887 -24.242  0.00  0.00    +0.158 HD
BRANCH  19  22
ATOM     22  C   UNL     1      32.412  -8.204 -23.194  0.00  0.00    +0.049 C 
ATOM     23  C   UNL     1      32.051  -8.205 -21.847  0.00  0.00    -0.009 C 
ATOM     24  C   UNL     1      32.506  -6.998 -23.890  0.00  0.00    +0.014 C 
ATOM     25  C   UNL     1      31.784  -7.002 -21.195  0.00  0.00    -0.003 C 
ATOM     26  C   UNL     1      32.239  -5.794 -23.238  0.00  0.00    +0.001 C 
ATOM     27  C   UNL     1      31.877  -5.796 -21.890  0.00  0.00    -0.000 C 
BRANCH  23  28
ATOM     28  C   UNL     1      31.942  -9.482 -21.077  0.00  0.00    +0.028 C 
ATOM     29  C   UNL     1      31.941  -9.249 -19.569  0.00  0.00    +0.005 C 
ENDBRANCH  23  28
ENDBRANCH  19  22
ENDBRANCH  17  20
ENDBRANCH  15  17
TORSDOF 4
ENDMDL
MODEL 8
REMARK VINA RESULT:      -9.0      1.453      2.706
REMARK  Name = 74077203
REMARK  4 active torsions:
REMARK  status: ('A' for Active; 'I' for Inactive)
REMARK    1  A    between atoms: C_15  and  O_17
REMARK    2  A    between atoms: O_17  and  C_20
REMARK    3  A    between atoms: N_19  and  C_22
REMARK    4  A    between atoms: C_23  and  C_28
REMARK                            x       y       z     vdW  Elec       q    Type
REMARK                         _______ _______ _______ _____ _____    ______ ____
ROOT
ATOM      1  O   UNL     1      33.546  -8.104 -20.929  0.00  0.00    -0.287 OA
ATOM      2  N   UNL     1      32.222  -8.342 -20.661  0.00  0.00    +0.441 N 
ATOM      3  N   UNL     1      32.051  -8.670 -23.146  0.00  0.00    -0.321 N 
ATOM      4  C   UNL     1      31.665 -10.532 -21.628  0.00  0.00    +0.023 C 
ATOM      5  C   UNL     1      31.495  -8.989 -21.836  0.00  0.00    +0.067 C 
ATOM      6  C   UNL     1      32.370 -10.687 -20.275  0.00  0.00    -0.013 C 
ATOM      7  C   UNL     1      32.114  -9.370 -19.569  0.00  0.00    -0.025 C 
ATOM      8  C   UNL     1      32.533 -10.900 -22.802  0.00  0.00    -0.007 C 
ATOM      9  C   UNL     1      32.707  -9.784 -23.633  0.00  0.00    +0.042 C 
ATOM     10  C   UNL     1      30.319 -11.258 -21.670  0.00  0.00    +0.004 C 
ATOM     11  C   UNL     1      31.579  -7.056 -20.237  0.00  0.00    -0.043 C 
ATOM     12  C   UNL     1      32.023  -7.372 -23.761  0.00  0.00    +0.110 C 
ATOM     13  C   UNL     1      33.105 -12.129 -23.101  0.00  0.00    +0.035 C 
ATOM     14  C   UNL     1      33.465  -9.900 -24.790  0.00  0.00    +0.017 C 
ATOM     15  C   UNL     1      33.869 -12.240 -24.262  0.00  0.00    +0.150 C 
ATOM     16  C   UNL     1      34.047 -11.133 -25.100  0.00  0.00    +0.039 C 
ENDROOT
BRANCH  15  17
ATOM     17  O   UNL     1      34.445 -13.431 -24.583  0.00  0.00    -0.410 OA
BRANCH  17  20
ATOM     18  O   UNL     1      32.656 -14.701 -23.845  0.00  0.00    -0.226 OA
ATOM     19  N   UNL     1      34.861 -15.439 -23.575  0.00  0.00    -0.250 N 
ATOM     20  C   UNL     1      33.867 -14.565 -23.974  0.00  0.00    +0.410 C 
ATOM     21  H   UNL     1      35.786 -15.157 -23.765  0.00  0.00    +0.158 HD
BRANCH  19  22
ATOM     22  C   UNL     1      34.715 -16.687 -22.928  0.00  0.00    +0.049 C 
ATOM     23  C   UNL     1      34.504 -16.760 -21.551  0.00  0.00    -0.009 C 
ATOM     24  C   UNL     1      34.786 -17.857 -23.685  0.00  0.00    +0.014 C 
ATOM     25  C   UNL     1      34.363 -18.002 -20.932  0.00  0.00    -0.003 C 
ATOM     26  C   UNL     1      34.644 -19.099 -23.067  0.00  0.00    +0.001 C 
ATOM     27  C   UNL     1      34.433 -19.171 -21.690  0.00  0.00    -0.000 C 
BRANCH  23  28
ATOM     28  C   UNL     1      34.425 -15.524 -20.715  0.00  0.00    +0.028 C 
ATOM     29  C   UNL     1      32.984 -15.122 -20.413  0.00  0.00    +0.005 C 
ENDBRANCH  23  28
ENDBRANCH  19  22
ENDBRANCH  17  20
ENDBRANCH  15  17
TORSDOF 4
ENDMDL
MODEL 9
REMARK VINA RESULT:      -8.5      9.137     14.318
REMARK  Name = 74077203
REMARK  4 active torsions:
REMARK  status: ('A' for Active; 'I' for Inactive)
REMARK    1  A    between atoms: C_15  and  O_17
REMARK    2  A    between atoms: O_17  and  C_20
REMARK    3  A    between atoms: N_19  and  C_22
REMARK    4  A    between atoms: C_23  and  C_28
REMARK                            x       y       z     vdW  Elec       q    Type
REMARK                         _______ _______ _______ _____ _____    ______ ____
ROOT
ATOM      1  O   UNL     1      35.410 -23.086 -12.217  0.00  0.00    -0.287 OA
ATOM      2  N   UNL     1      36.164 -24.231 -12.242  0.00  0.00    +0.441 N 
ATOM      3  N   UNL     1      35.122 -24.550 -14.507  0.00  0.00    -0.321 N 
ATOM      4  C   UNL     1      37.516 -24.167 -14.295  0.00  0.00    +0.023 C 
ATOM      5  C   UNL     1      36.260 -24.836 -13.640  0.00  0.00    +0.067 C 
ATOM      6  C   UNL     1      38.146 -23.311 -13.190  0.00  0.00    -0.013 C 
ATOM      7  C   UNL     1      37.590 -23.893 -11.906  0.00  0.00    -0.025 C 
ATOM      8  C   UNL     1      36.884 -23.356 -15.396  0.00  0.00    -0.007 C 
ATOM      9  C   UNL     1      35.512 -23.632 -15.462  0.00  0.00    +0.042 C 
ATOM     10  C   UNL     1      38.487 -25.211 -14.848  0.00  0.00    +0.004 C 
ATOM     11  C   UNL     1      35.603 -25.198 -11.245  0.00  0.00    -0.043 C 
ATOM     12  C   UNL     1      33.789 -25.051 -14.311  0.00  0.00    +0.110 C 
ATOM     13  C   UNL     1      37.492 -22.460 -16.265  0.00  0.00    +0.035 C 
ATOM     14  C   UNL     1      34.729 -23.002 -16.420  0.00  0.00    +0.017 C 
ATOM     15  C   UNL     1      36.702 -21.827 -17.223  0.00  0.00    +0.150 C 
ATOM     16  C   UNL     1      35.330 -22.097 -17.300  0.00  0.00    +0.039 C 
ENDROOT
BRANCH  15  17
ATOM     17  O   UNL     1      37.267 -20.942 -18.090  0.00  0.00    -0.410 OA
BRANCH  17  20
ATOM     18  O   UNL     1      36.697 -22.030 -20.053  0.00  0.00    -0.226 OA
ATOM     19  N   UNL     1      36.402 -19.719 -19.816  0.00  0.00    -0.250 N 
ATOM     20  C   UNL     1      36.769 -20.988 -19.410  0.00  0.00    +0.410 C 
ATOM     21  H   UNL     1      36.534 -19.000 -19.156  0.00  0.00    +0.158 HD
BRANCH  19  22
ATOM     22  C   UNL     1      35.860 -19.326 -21.060  0.00  0.00    +0.049 C 
ATOM     23  C   UNL     1      34.556 -19.674 -21.416  0.00  0.00    -0.009 C 
ATOM     24  C   UNL     1      36.646 -18.580 -21.938  0.00  0.00    +0.014 C 
ATOM     25  C   UNL     1      34.040 -19.275 -22.648  0.00  0.00    -0.003 C 
ATOM     26  C   UNL     1      36.131 -18.182 -23.172  0.00  0.00    +0.001 C 
ATOM     27  C   UNL     1      34.827 -18.530 -23.527  0.00  0.00    -0.000 C 
BRANCH  23  28
ATOM     28  C   UNL     1      33.691 -20.472 -20.496  0.00  0.00    +0.028 C 
ATOM     29  C   UNL     1      32.358 -19.784 -20.214  0.00  0.00    +0.005 C 
ENDBRANCH  23  28
ENDBRANCH  19  22
ENDBRANCH  17  20
ENDBRANCH  15  17
TORSDOF 4
ENDMDL
