MODEL 1
REMARK VINA RESULT:      -5.2      0.000      0.000
REMARK  Name = 17429
REMARK  0 active torsions:
REMARK  status: ('A' for Active; 'I' for Inactive)
REMARK                            x       y       z     vdW  Elec       q    Type
REMARK                         _______ _______ _______ _____ _____    ______ ____
ROOT
ATOM      1  O   UNL     1      35.975 -22.451 -17.473  0.00  0.00    -0.265 OA
ATOM      2  N   UNL     1      35.283 -21.396 -19.444  0.00  0.00    -0.272 N 
ATOM      3  C   UNL     1      33.256 -19.961 -20.900  0.00  0.00    +0.004 C 
ATOM      4  C   UNL     1      32.906 -20.806 -19.674  0.00  0.00    +0.022 C 
ATOM      5  C   UNL     1      34.690 -19.438 -20.811  0.00  0.00    +0.022 C 
ATOM      6  C   UNL     1      33.922 -21.924 -19.464  0.00  0.00    +0.094 C 
ATOM      7  C   UNL     1      35.682 -20.576 -20.585  0.00  0.00    +0.094 C 
ATOM      8  C   UNL     1      36.175 -21.722 -18.437  0.00  0.00    +0.303 C 
ENDROOT
TORSDOF 0
ENDMDL
MODEL 2
REMARK VINA RESULT:      -5.2      7.211      7.989
REMARK  Name = 17429
REMARK  0 active torsions:
REMARK  status: ('A' for Active; 'I' for Inactive)
REMARK                            x       y       z     vdW  Elec       q    Type
REMARK                         _______ _______ _______ _____ _____    ______ ____
ROOT
ATOM      1  O   UNL     1      27.666 -24.392 -17.558  0.00  0.00    -0.265 OA
ATOM      2  N   UNL     1      28.938 -23.651 -15.738  0.00  0.00    -0.272 N 
ATOM      3  C   UNL     1      31.070 -24.113 -13.861  0.00  0.00    +0.004 C 
ATOM      4  C   UNL     1      30.408 -25.269 -14.611  0.00  0.00    +0.022 C 
ATOM      5  C   UNL     1      30.994 -22.820 -14.673  0.00  0.00    +0.022 C 
ATOM      6  C   UNL     1      28.979 -24.919 -15.017  0.00  0.00    +0.094 C 
ATOM      7  C   UNL     1      29.558 -22.504 -15.079  0.00  0.00    +0.094 C 
ATOM      8  C   UNL     1      28.276 -23.522 -16.947  0.00  0.00    +0.303 C 
ENDROOT
TORSDOF 0
ENDMDL
MODEL 3
REMARK VINA RESULT:      -5.0      5.240      6.352
REMARK  Name = 17429
REMARK  0 active torsions:
REMARK  status: ('A' for Active; 'I' for Inactive)
REMARK                            x       y       z     vdW  Elec       q    Type
REMARK                         _______ _______ _______ _____ _____    ______ ____
ROOT
ATOM      1  O   UNL     1      34.115 -16.406 -25.970  0.00  0.00    -0.265 OA
ATOM      2  N   UNL     1      34.993 -17.233 -23.964  0.00  0.00    -0.272 N 
ATOM      3  C   UNL     1      34.963 -17.281 -21.086  0.00  0.00    +0.004 C 
ATOM      4  C   UNL     1      34.355 -16.116 -21.868  0.00  0.00    +0.022 C 
ATOM      5  C   UNL     1      34.909 -18.573 -21.902  0.00  0.00    +0.022 C 
ATOM      6  C   UNL     1      35.009 -15.967 -23.238  0.00  0.00    +0.094 C 
ATOM      7  C   UNL     1      35.555 -18.390 -23.273  0.00  0.00    +0.094 C 
ATOM      8  C   UNL     1      34.542 -17.317 -25.270  0.00  0.00    +0.303 C 
ENDROOT
TORSDOF 0
ENDMDL
MODEL 4
REMARK VINA RESULT:      -5.0      5.705      6.777
REMARK  Name = 17429
REMARK  0 active torsions:
REMARK  status: ('A' for Active; 'I' for Inactive)
REMARK                            x       y       z     vdW  Elec       q    Type
REMARK                         _______ _______ _______ _____ _____    ______ ____
ROOT
ATOM      1  O   UNL     1      34.166 -16.257 -25.939  0.00  0.00    -0.265 OA
ATOM      2  N   UNL     1      34.853 -16.420 -23.707  0.00  0.00    -0.272 N 
ATOM      3  C   UNL     1      34.407 -15.801 -20.932  0.00  0.00    +0.004 C 
ATOM      4  C   UNL     1      33.752 -14.981 -22.044  0.00  0.00    +0.022 C 
ATOM      5  C   UNL     1      34.671 -17.235 -21.393  0.00  0.00    +0.022 C 
ATOM      6  C   UNL     1      34.571 -15.038 -23.329  0.00  0.00    +0.094 C 
ATOM      7  C   UNL     1      35.476 -17.261 -22.689  0.00  0.00    +0.094 C 
ATOM      8  C   UNL     1      34.618 -16.886 -24.989  0.00  0.00    +0.303 C 
ENDROOT
TORSDOF 0
ENDMDL
MODEL 5
REMARK VINA RESULT:      -5.0      4.568      5.430
REMARK  Name = 17429
REMARK  0 active torsions:
REMARK  status: ('A' for Active; 'I' for Inactive)
REMARK                            x       y       z     vdW  Elec       q    Type
REMARK                         _______ _______ _______ _____ _____    ______ ____
ROOT
ATOM      1  O   UNL     1      34.904 -15.864 -20.390  0.00  0.00    -0.265 OA
ATOM      2  N   UNL     1      35.129 -16.750 -22.545  0.00  0.00    -0.272 N 
ATOM      3  C   UNL     1      34.837 -18.976 -24.346  0.00  0.00    +0.004 C 
ATOM      4  C   UNL     1      34.902 -19.182 -22.832  0.00  0.00    +0.022 C 
ATOM      5  C   UNL     1      34.264 -17.600 -24.685  0.00  0.00    +0.022 C 
ATOM      6  C   UNL     1      35.665 -18.049 -22.152  0.00  0.00    +0.094 C 
ATOM      7  C   UNL     1      35.035 -16.489 -23.979  0.00  0.00    +0.094 C 
ATOM      8  C   UNL     1      34.803 -15.784 -21.609  0.00  0.00    +0.303 C 
ENDROOT
TORSDOF 0
ENDMDL
MODEL 6
REMARK VINA RESULT:      -4.9      3.208      4.337
REMARK  Name = 17429
REMARK  0 active torsions:
REMARK  status: ('A' for Active; 'I' for Inactive)
REMARK                            x       y       z     vdW  Elec       q    Type
REMARK                         _______ _______ _______ _____ _____    ______ ____
ROOT
ATOM      1  O   UNL     1      34.956 -16.126 -21.441  0.00  0.00    -0.265 OA
ATOM      2  N   UNL     1      34.761 -18.455 -21.313  0.00  0.00    -0.272 N 
ATOM      3  C   UNL     1      35.724 -20.964 -20.281  0.00  0.00    +0.004 C 
ATOM      4  C   UNL     1      36.620 -19.725 -20.322  0.00  0.00    +0.022 C 
ATOM      5  C   UNL     1      34.251 -20.569 -20.161  0.00  0.00    +0.022 C 
ATOM      6  C   UNL     1      36.183 -18.763 -21.423  0.00  0.00    +0.094 C 
ATOM      7  C   UNL     1      33.848 -19.595 -21.264  0.00  0.00    +0.094 C 
ATOM      8  C   UNL     1      34.294 -17.152 -21.335  0.00  0.00    +0.303 C 
ENDROOT
TORSDOF 0
ENDMDL
MODEL 7
REMARK VINA RESULT:      -4.9      6.589      7.850
REMARK  Name = 17429
REMARK  0 active torsions:
REMARK  status: ('A' for Active; 'I' for Inactive)
REMARK                            x       y       z     vdW  Elec       q    Type
REMARK                         _______ _______ _______ _____ _____    ______ ____
ROOT
ATOM      1  O   UNL     1      27.687 -21.674 -16.851  0.00  0.00    -0.265 OA
ATOM      2  N   UNL     1      29.018 -23.407 -16.012  0.00  0.00    -0.272 N 
ATOM      3  C   UNL     1      31.393 -24.248 -14.620  0.00  0.00    +0.004 C 
ATOM      4  C   UNL     1      31.298 -22.864 -15.263  0.00  0.00    +0.022 C 
ATOM      5  C   UNL     1      30.010 -24.757 -14.210  0.00  0.00    +0.022 C 
ATOM      6  C   UNL     1      30.308 -22.861 -16.425  0.00  0.00    +0.094 C 
ATOM      7  C   UNL     1      29.038 -24.726 -15.386  0.00  0.00    +0.094 C 
ATOM      8  C   UNL     1      27.831 -22.746 -16.275  0.00  0.00    +0.303 C 
ENDROOT
TORSDOF 0
ENDMDL
MODEL 8
REMARK VINA RESULT:      -4.8      5.381      6.438
REMARK  Name = 17429
REMARK  0 active torsions:
REMARK  status: ('A' for Active; 'I' for Inactive)
REMARK                            x       y       z     vdW  Elec       q    Type
REMARK                         _______ _______ _______ _____ _____    ______ ____
ROOT
ATOM      1  O   UNL     1      33.989 -14.422 -22.468  0.00  0.00    -0.265 OA
ATOM      2  N   UNL     1      34.682 -16.288 -23.702  0.00  0.00    -0.272 N 
ATOM      3  C   UNL     1      34.948 -19.145 -23.923  0.00  0.00    +0.004 C 
ATOM      4  C   UNL     1      34.768 -18.467 -22.564  0.00  0.00    +0.022 C 
ATOM      5  C   UNL     1      34.301 -18.320 -25.035  0.00  0.00    +0.022 C 
ATOM      6  C   UNL     1      35.275 -17.028 -22.592  0.00  0.00    +0.094 C 
ATOM      7  C   UNL     1      34.814 -16.882 -25.029  0.00  0.00    +0.094 C 
ATOM      8  C   UNL     1      34.095 -15.047 -23.517  0.00  0.00    +0.303 C 
ENDROOT
TORSDOF 0
ENDMDL
MODEL 9
REMARK VINA RESULT:      -4.8      1.680      2.255
REMARK  Name = 17429
REMARK  0 active torsions:
REMARK  status: ('A' for Active; 'I' for Inactive)
REMARK                            x       y       z     vdW  Elec       q    Type
REMARK                         _______ _______ _______ _____ _____    ______ ____
ROOT
ATOM      1  O   UNL     1      32.237 -22.461 -18.040  0.00  0.00    -0.265 OA
ATOM      2  N   UNL     1      34.001 -21.833 -19.444  0.00  0.00    -0.272 N 
ATOM      3  C   UNL     1      35.325 -19.800 -20.993  0.00  0.00    +0.004 C 
ATOM      4  C   UNL     1      33.854 -19.667 -20.600  0.00  0.00    +0.022 C 
ATOM      5  C   UNL     1      36.089 -20.644 -19.971  0.00  0.00    +0.022 C 
ATOM      6  C   UNL     1      33.214 -21.034 -20.379  0.00  0.00    +0.094 C 
ATOM      7  C   UNL     1      35.418 -21.997 -19.758  0.00  0.00    +0.094 C 
ATOM      8  C   UNL     1      33.419 -22.470 -18.362  0.00  0.00    +0.303 C 
ENDROOT
TORSDOF 0
ENDMDL
