MODEL 1
REMARK VINA RESULT:      -8.9      0.000      0.000
REMARK  Name = 6914624
REMARK  5 active torsions:
REMARK  status: ('A' for Active; 'I' for Inactive)
REMARK    1  A    between atoms: C_5  and  O_21
REMARK    2  A    between atoms: CA_6  and  C_14
REMARK    3  A    between atoms: N_13  and  CA_16
REMARK    4  A    between atoms: CA_16  and  C_18
REMARK    5  A    between atoms: C_18  and  O_19
REMARK                            x       y       z     vdW  Elec       q    Type
REMARK                         _______ _______ _______ _____ _____    ______ ____
ROOT
ATOM      1  I   UNL     1      30.574 -23.930 -14.424  0.00  0.00    -0.043 I 
ATOM      2  N   UNL     1      35.181 -24.081 -13.333  0.00  0.00    -0.263 NA
ATOM      3  C   UNL     1      34.680 -23.325 -15.999  0.00  0.00    +0.008 C 
ATOM      4  C   UNL     1      33.608 -23.615 -15.129  0.00  0.00    +0.006 C 
ATOM      5  C   UNL     1      35.991 -23.418 -15.514  0.00  0.00    +0.176 C 
ATOM      6  CA  UNL     1      36.182 -23.796 -14.194  0.00  0.00    +0.138 C 
ATOM      7  C   UNL     1      34.403 -22.949 -17.323  0.00  0.00    -0.002 C 
ATOM      8  C   UNL     1      32.286 -23.526 -15.595  0.00  0.00    +0.028 C 
ATOM      9  C   UNL     1      33.923 -23.984 -13.820  0.00  0.00    +0.152 C 
ATOM     10  C   UNL     1      33.086 -22.863 -17.776  0.00  0.00    +0.000 C 
ATOM     11  C   UNL     1      32.029 -23.152 -16.914  0.00  0.00    +0.006 C 
ENDROOT
BRANCH   6  14
ATOM     12  O   UNL     1      37.905 -23.111 -12.759  0.00  0.00    -0.269 OA
ATOM     13  N   UNL     1      38.318 -24.957 -14.100  0.00  0.00    -0.290 N 
ATOM     14  C   ACE A   1      37.519 -23.908 -13.631  0.00  0.00    +0.262 C 
ATOM     15  H   UNL     1      37.948 -25.552 -14.792  0.00  0.00    +0.150 HD
BRANCH  13  16
ATOM     16  CA  UNL     1      39.658 -25.214 -13.623  0.00  0.00    +0.201 C 
BRANCH  16  18
ATOM     17  OXT UNL     1      41.205 -26.890 -14.399  0.00  0.00    -0.248 OA
ATOM     18  C   UNL     1      40.411 -25.997 -14.660  0.00  0.00    +0.334 C 
BRANCH  18  19
ATOM     19  O   UNL     1      40.105 -25.619 -15.927  0.00  0.00    -0.479 OA
ATOM     20  H   UNL     1      39.538 -24.887 -16.073  0.00  0.00    +0.295 HD
ENDBRANCH  18  19
ENDBRANCH  16  18
ENDBRANCH  13  16
ENDBRANCH   6  14
BRANCH   5  21
ATOM     21  O   UNL     1      37.062 -23.148 -16.309  0.00  0.00    -0.374 OA
ATOM     22  H   UNL     1      37.931 -23.225 -15.967  0.00  0.00    +0.211 HD
ENDBRANCH   5  21
TORSDOF 5
ENDMDL
MODEL 2
REMARK VINA RESULT:      -8.9      3.115      4.403
REMARK  Name = 6914624
REMARK  5 active torsions:
REMARK  status: ('A' for Active; 'I' for Inactive)
REMARK    1  A    between atoms: C_5  and  O_21
REMARK    2  A    between atoms: CA_6  and  C_14
REMARK    3  A    between atoms: N_13  and  CA_16
REMARK    4  A    between atoms: CA_16  and  C_18
REMARK    5  A    between atoms: C_18  and  O_19
REMARK                            x       y       z     vdW  Elec       q    Type
REMARK                         _______ _______ _______ _____ _____    ______ ____
ROOT
ATOM      1  I   UNL     1      36.779 -20.398 -20.198  0.00  0.00    -0.043 I 
ATOM      2  N   UNL     1      37.575 -22.215 -15.897  0.00  0.00    -0.263 NA
ATOM      3  C   UNL     1      35.006 -22.783 -16.900  0.00  0.00    +0.008 C 
ATOM      4  C   UNL     1      35.917 -22.024 -17.665  0.00  0.00    +0.006 C 
ATOM      5  C   UNL     1      35.403 -23.247 -15.640  0.00  0.00    +0.176 C 
ATOM      6  CA  UNL     1      36.678 -22.939 -15.193  0.00  0.00    +0.138 C 
ATOM      7  C   UNL     1      33.732 -23.052 -17.424  0.00  0.00    -0.002 C 
ATOM      8  C   UNL     1      35.539 -21.549 -18.932  0.00  0.00    +0.028 C 
ATOM      9  C   UNL     1      37.174 -21.777 -17.111  0.00  0.00    +0.152 C 
ATOM     10  C   UNL     1      33.367 -22.576 -18.685  0.00  0.00    +0.000 C 
ATOM     11  C   UNL     1      34.269 -21.825 -19.437  0.00  0.00    +0.006 C 
ENDROOT
BRANCH   6  14
ATOM     12  O   UNL     1      38.263 -23.937 -13.781  0.00  0.00    -0.269 OA
ATOM     13  N   UNL     1      36.305 -23.173 -12.799  0.00  0.00    -0.290 N 
ATOM     14  C   ACE A   1      37.149 -23.395 -13.894  0.00  0.00    +0.262 C 
ATOM     15  H   UNL     1      35.438 -22.738 -12.961  0.00  0.00    +0.150 HD
BRANCH  13  16
ATOM     16  CA  UNL     1      36.641 -23.547 -11.445  0.00  0.00    +0.201 C 
BRANCH  16  18
ATOM     17  OXT UNL     1      35.376 -24.615  -9.694  0.00  0.00    -0.248 OA
ATOM     18  C   UNL     1      35.555 -24.422 -10.889  0.00  0.00    +0.334 C 
BRANCH  18  19
ATOM     19  O   UNL     1      34.775 -24.967 -11.857  0.00  0.00    -0.479 OA
ATOM     20  H   UNL     1      34.578 -25.883 -11.840  0.00  0.00    +0.295 HD
ENDBRANCH  18  19
ENDBRANCH  16  18
ENDBRANCH  13  16
ENDBRANCH   6  14
BRANCH   5  21
ATOM     21  O   UNL     1      34.565 -23.986 -14.861  0.00  0.00    -0.374 OA
ATOM     22  H   UNL     1      34.796 -24.862 -14.625  0.00  0.00    +0.211 HD
ENDBRANCH   5  21
TORSDOF 5
ENDMDL
MODEL 3
REMARK VINA RESULT:      -8.8      2.490      3.040
REMARK  Name = 6914624
REMARK  5 active torsions:
REMARK  status: ('A' for Active; 'I' for Inactive)
REMARK    1  A    between atoms: C_5  and  O_21
REMARK    2  A    between atoms: CA_6  and  C_14
REMARK    3  A    between atoms: N_13  and  CA_16
REMARK    4  A    between atoms: CA_16  and  C_18
REMARK    5  A    between atoms: C_18  and  O_19
REMARK                            x       y       z     vdW  Elec       q    Type
REMARK                         _______ _______ _______ _____ _____    ______ ____
ROOT
ATOM      1  I   UNL     1      35.561 -20.508 -20.435  0.00  0.00    -0.043 I 
ATOM      2  N   UNL     1      37.556 -22.438 -16.598  0.00  0.00    -0.263 NA
ATOM      3  C   UNL     1      34.800 -22.969 -16.820  0.00  0.00    +0.008 C 
ATOM      4  C   UNL     1      35.456 -22.194 -17.800  0.00  0.00    +0.006 C 
ATOM      5  C   UNL     1      35.541 -23.467 -15.742  0.00  0.00    +0.176 C 
ATOM      6  CA  UNL     1      36.895 -23.176 -15.680  0.00  0.00    +0.138 C 
ATOM      7  C   UNL     1      33.425 -23.219 -16.955  0.00  0.00    -0.002 C 
ATOM      8  C   UNL     1      34.730 -21.685 -18.890  0.00  0.00    +0.028 C 
ATOM      9  C   UNL     1      36.823 -21.967 -17.632  0.00  0.00    +0.152 C 
ATOM     10  C   UNL     1      32.714 -22.709 -18.042  0.00  0.00    +0.000 C 
ATOM     11  C   UNL     1      33.365 -21.943 -19.008  0.00  0.00    +0.006 C 
ENDROOT
BRANCH   6  14
ATOM     12  O   UNL     1      37.596 -23.197 -13.442  0.00  0.00    -0.269 OA
ATOM     13  N   UNL     1      38.622 -24.695 -14.884  0.00  0.00    -0.290 N 
ATOM     14  C   ACE A   1      37.720 -23.668 -14.586  0.00  0.00    +0.262 C 
ATOM     15  H   UNL     1      38.667 -25.021 -15.812  0.00  0.00    +0.150 HD
BRANCH  13  16
ATOM     16  CA  UNL     1      39.490 -25.304 -13.903  0.00  0.00    +0.201 C 
BRANCH  16  18
ATOM     17  OXT UNL     1      41.348 -26.834 -14.030  0.00  0.00    -0.248 OA
ATOM     18  C   UNL     1      40.532 -26.126 -14.606  0.00  0.00    +0.334 C 
BRANCH  18  19
ATOM     19  O   UNL     1      40.465 -26.013 -15.956  0.00  0.00    -0.479 OA
ATOM     20  H   UNL     1      41.251 -26.006 -16.466  0.00  0.00    +0.295 HD
ENDBRANCH  18  19
ENDBRANCH  16  18
ENDBRANCH  13  16
ENDBRANCH   6  14
BRANCH   5  21
ATOM     21  O   UNL     1      34.960 -24.222 -14.769  0.00  0.00    -0.374 OA
ATOM     22  H   UNL     1      34.994 -23.943 -13.876  0.00  0.00    +0.211 HD
ENDBRANCH   5  21
TORSDOF 5
ENDMDL
MODEL 4
REMARK VINA RESULT:      -8.6     11.785     14.070
REMARK  Name = 6914624
REMARK  5 active torsions:
REMARK  status: ('A' for Active; 'I' for Inactive)
REMARK    1  A    between atoms: C_5  and  O_21
REMARK    2  A    between atoms: CA_6  and  C_14
REMARK    3  A    between atoms: N_13  and  CA_16
REMARK    4  A    between atoms: CA_16  and  C_18
REMARK    5  A    between atoms: C_18  and  O_19
REMARK                            x       y       z     vdW  Elec       q    Type
REMARK                         _______ _______ _______ _____ _____    ______ ____
ROOT
ATOM      1  I   UNL     1      35.743 -18.989 -21.053  0.00  0.00    -0.043 I 
ATOM      2  N   UNL     1      34.124 -14.614 -21.873  0.00  0.00    -0.263 NA
ATOM      3  C   UNL     1      34.139 -16.255 -24.161  0.00  0.00    +0.008 C 
ATOM      4  C   UNL     1      34.585 -16.759 -22.921  0.00  0.00    +0.006 C 
ATOM      5  C   UNL     1      33.689 -14.931 -24.231  0.00  0.00    +0.176 C 
ATOM      6  CA  UNL     1      33.704 -14.165 -23.075  0.00  0.00    +0.138 C 
ATOM      7  C   UNL     1      34.156 -17.095 -25.286  0.00  0.00    -0.002 C 
ATOM      8  C   UNL     1      35.039 -18.085 -22.829  0.00  0.00    +0.028 C 
ATOM      9  C   UNL     1      34.552 -15.895 -21.825  0.00  0.00    +0.152 C 
ATOM     10  C   UNL     1      34.608 -18.411 -25.183  0.00  0.00    +0.000 C 
ATOM     11  C   UNL     1      35.050 -18.905 -23.957  0.00  0.00    +0.006 C 
ENDROOT
BRANCH   6  14
ATOM     12  O   UNL     1      32.314 -12.423 -22.345  0.00  0.00    -0.269 OA
ATOM     13  N   UNL     1      33.918 -11.899 -23.936  0.00  0.00    -0.290 N 
ATOM     14  C   ACE A   1      33.246 -12.784 -23.084  0.00  0.00    +0.262 C 
ATOM     15  H   UNL     1      34.647 -12.252 -24.493  0.00  0.00    +0.150 HD
BRANCH  13  16
ATOM     16  CA  UNL     1      33.597 -10.494 -24.040  0.00  0.00    +0.201 C 
BRANCH  16  18
ATOM     17  OXT UNL     1      35.138  -8.675 -23.688  0.00  0.00    -0.248 OA
ATOM     18  C   UNL     1      34.859  -9.714 -24.271  0.00  0.00    +0.334 C 
BRANCH  18  19
ATOM     19  O   UNL     1      35.672 -10.294 -25.190  0.00  0.00    -0.479 OA
ATOM     20  H   UNL     1      35.303 -10.739 -25.928  0.00  0.00    +0.295 HD
ENDBRANCH  18  19
ENDBRANCH  16  18
ENDBRANCH  13  16
ENDBRANCH   6  14
BRANCH   5  21
ATOM     21  O   UNL     1      33.245 -14.393 -25.401  0.00  0.00    -0.374 OA
ATOM     22  H   UNL     1      32.571 -14.823 -25.888  0.00  0.00    +0.211 HD
ENDBRANCH   5  21
TORSDOF 5
ENDMDL
MODEL 5
REMARK VINA RESULT:      -8.6      1.855      2.360
REMARK  Name = 6914624
REMARK  5 active torsions:
REMARK  status: ('A' for Active; 'I' for Inactive)
REMARK    1  A    between atoms: C_5  and  O_21
REMARK    2  A    between atoms: CA_6  and  C_14
REMARK    3  A    between atoms: N_13  and  CA_16
REMARK    4  A    between atoms: CA_16  and  C_18
REMARK    5  A    between atoms: C_18  and  O_19
REMARK                            x       y       z     vdW  Elec       q    Type
REMARK                         _______ _______ _______ _____ _____    ______ ____
ROOT
ATOM      1  I   UNL     1      33.551 -22.024 -19.214  0.00  0.00    -0.043 I 
ATOM      2  N   UNL     1      36.600 -23.399 -15.862  0.00  0.00    -0.263 NA
ATOM      3  C   UNL     1      33.902 -23.771 -15.149  0.00  0.00    +0.008 C 
ATOM      4  C   UNL     1      34.237 -23.223 -16.405  0.00  0.00    +0.006 C 
ATOM      5  C   UNL     1      34.931 -24.127 -14.269  0.00  0.00    +0.176 C 
ATOM      6  CA  UNL     1      36.243 -23.922 -14.668  0.00  0.00    +0.138 C 
ATOM      7  C   UNL     1      32.548 -23.947 -14.819  0.00  0.00    -0.002 C 
ATOM      8  C   UNL     1      33.219 -22.860 -17.302  0.00  0.00    +0.028 C 
ATOM      9  C   UNL     1      35.592 -23.064 -16.697  0.00  0.00    +0.152 C 
ATOM     10  C   UNL     1      31.545 -23.584 -15.719  0.00  0.00    +0.000 C 
ATOM     11  C   UNL     1      31.880 -23.041 -16.958  0.00  0.00    +0.006 C 
ENDROOT
BRANCH   6  14
ATOM     12  O   UNL     1      37.322 -23.998 -12.588  0.00  0.00    -0.269 OA
ATOM     13  N   UNL     1      38.432 -24.948 -14.389  0.00  0.00    -0.290 N 
ATOM     14  C   ACE A   1      37.356 -24.274 -13.800  0.00  0.00    +0.262 C 
ATOM     15  H   UNL     1      38.392 -25.134 -15.354  0.00  0.00    +0.150 HD
BRANCH  13  16
ATOM     16  CA  UNL     1      39.598 -25.384 -13.655  0.00  0.00    +0.201 C 
BRANCH  16  18
ATOM     17  OXT UNL     1      41.381 -26.907 -14.211  0.00  0.00    -0.248 OA
ATOM     18  C   UNL     1      40.519 -26.122 -14.584  0.00  0.00    +0.334 C 
BRANCH  18  19
ATOM     19  O   UNL     1      40.284 -25.839 -15.889  0.00  0.00    -0.479 OA
ATOM     20  H   UNL     1      40.620 -25.049 -16.266  0.00  0.00    +0.295 HD
ENDBRANCH  18  19
ENDBRANCH  16  18
ENDBRANCH  13  16
ENDBRANCH   6  14
BRANCH   5  21
ATOM     21  O   UNL     1      34.666 -24.662 -13.046  0.00  0.00    -0.374 OA
ATOM     22  H   UNL     1      34.995 -25.511 -12.824  0.00  0.00    +0.211 HD
ENDBRANCH   5  21
TORSDOF 5
ENDMDL
MODEL 6
REMARK VINA RESULT:      -8.5      8.736     10.502
REMARK  Name = 6914624
REMARK  5 active torsions:
REMARK  status: ('A' for Active; 'I' for Inactive)
REMARK    1  A    between atoms: C_5  and  O_21
REMARK    2  A    between atoms: CA_6  and  C_14
REMARK    3  A    between atoms: N_13  and  CA_16
REMARK    4  A    between atoms: CA_16  and  C_18
REMARK    5  A    between atoms: C_18  and  O_19
REMARK                            x       y       z     vdW  Elec       q    Type
REMARK                         _______ _______ _______ _____ _____    ______ ____
ROOT
ATOM      1  I   UNL     1      33.012 -14.502 -26.298  0.00  0.00    -0.043 I 
ATOM      2  N   UNL     1      35.343 -17.606 -23.584  0.00  0.00    -0.263 NA
ATOM      3  C   UNL     1      34.151 -15.511 -22.128  0.00  0.00    +0.008 C 
ATOM      4  C   UNL     1      34.021 -15.565 -23.531  0.00  0.00    +0.006 C 
ATOM      5  C   UNL     1      34.878 -16.515 -21.476  0.00  0.00    +0.176 C 
ATOM      6  CA  UNL     1      35.445 -17.523 -22.240  0.00  0.00    +0.138 C 
ATOM      7  C   UNL     1      33.546 -14.456 -21.426  0.00  0.00    -0.002 C 
ATOM      8  C   UNL     1      33.295 -14.568 -24.205  0.00  0.00    +0.028 C 
ATOM      9  C   UNL     1      34.636 -16.629 -24.195  0.00  0.00    +0.152 C 
ATOM     10  C   UNL     1      32.826 -13.472 -22.105  0.00  0.00    +0.000 C 
ATOM     11  C   UNL     1      32.702 -13.528 -23.491  0.00  0.00    +0.006 C 
ENDROOT
BRANCH   6  14
ATOM     12  O   UNL     1      37.429 -18.705 -21.835  0.00  0.00    -0.269 OA
ATOM     13  N   UNL     1      35.514 -19.459 -20.767  0.00  0.00    -0.290 N 
ATOM     14  C   ACE A   1      36.210 -18.595 -21.620  0.00  0.00    +0.262 C 
ATOM     15  H   UNL     1      34.549 -19.312 -20.642  0.00  0.00    +0.150 HD
BRANCH  13  16
ATOM     16  CA  UNL     1      36.136 -20.555 -20.061  0.00  0.00    +0.201 C 
BRANCH  16  18
ATOM     17  OXT UNL     1      35.300 -22.425 -18.791  0.00  0.00    -0.248 OA
ATOM     18  C   UNL     1      35.070 -21.423 -19.456  0.00  0.00    +0.334 C 
BRANCH  18  19
ATOM     19  O   UNL     1      33.818 -20.968 -19.710  0.00  0.00    -0.479 OA
ATOM     20  H   UNL     1      33.166 -20.986 -19.036  0.00  0.00    +0.295 HD
ENDBRANCH  18  19
ENDBRANCH  16  18
ENDBRANCH  13  16
ENDBRANCH   6  14
BRANCH   5  21
ATOM     21  O   UNL     1      35.033 -16.513 -20.123  0.00  0.00    -0.374 OA
ATOM     22  H   UNL     1      34.838 -15.742 -19.629  0.00  0.00    +0.211 HD
ENDBRANCH   5  21
TORSDOF 5
ENDMDL
MODEL 7
REMARK VINA RESULT:      -8.5      4.401      7.223
REMARK  Name = 6914624
REMARK  5 active torsions:
REMARK  status: ('A' for Active; 'I' for Inactive)
REMARK    1  A    between atoms: C_5  and  O_21
REMARK    2  A    between atoms: CA_6  and  C_14
REMARK    3  A    between atoms: N_13  and  CA_16
REMARK    4  A    between atoms: CA_16  and  C_18
REMARK    5  A    between atoms: C_18  and  O_19
REMARK                            x       y       z     vdW  Elec       q    Type
REMARK                         _______ _______ _______ _____ _____    ______ ____
ROOT
ATOM      1  I   UNL     1      37.300 -23.897 -12.191  0.00  0.00    -0.043 I 
ATOM      2  N   UNL     1      32.786 -24.546 -13.469  0.00  0.00    -0.263 NA
ATOM      3  C   UNL     1      34.365 -23.363 -15.478  0.00  0.00    +0.008 C 
ATOM      4  C   UNL     1      34.935 -23.704 -14.233  0.00  0.00    +0.006 C 
ATOM      5  C   UNL     1      33.006 -23.623 -15.694  0.00  0.00    +0.176 C 
ATOM      6  CA  UNL     1      32.274 -24.206 -14.672  0.00  0.00    +0.138 C 
ATOM      7  C   UNL     1      35.175 -22.774 -16.462  0.00  0.00    -0.002 C 
ATOM      8  C   UNL     1      36.297 -23.451 -13.996  0.00  0.00    +0.028 C 
ATOM      9  C   UNL     1      34.099 -24.287 -13.280  0.00  0.00    +0.152 C 
ATOM     10  C   UNL     1      36.527 -22.529 -16.216  0.00  0.00    +0.000 C 
ATOM     11  C   UNL     1      37.086 -22.866 -14.986  0.00  0.00    +0.006 C 
ENDROOT
BRANCH   6  14
ATOM     12  O   UNL     1      30.430 -25.655 -14.643  0.00  0.00    -0.269 OA
ATOM     13  N   UNL     1      30.025 -23.439 -15.196  0.00  0.00    -0.290 N 
ATOM     14  C   ACE A   1      30.859 -24.504 -14.837  0.00  0.00    +0.262 C 
ATOM     15  H   UNL     1      30.432 -22.555 -15.333  0.00  0.00    +0.150 HD
BRANCH  13  16
ATOM     16  CA  UNL     1      28.597 -23.571 -15.375  0.00  0.00    +0.201 C 
BRANCH  16  18
ATOM     17  OXT UNL     1      27.773 -24.042 -17.590  0.00  0.00    -0.248 OA
ATOM     18  C   UNL     1      28.243 -23.238 -16.796  0.00  0.00    +0.334 C 
BRANCH  18  19
ATOM     19  O   UNL     1      28.486 -21.939 -17.105  0.00  0.00    -0.479 OA
ATOM     20  H   UNL     1      29.291 -21.538 -16.845  0.00  0.00    +0.295 HD
ENDBRANCH  18  19
ENDBRANCH  16  18
ENDBRANCH  13  16
ENDBRANCH   6  14
BRANCH   5  21
ATOM     21  O   UNL     1      32.405 -23.317 -16.877  0.00  0.00    -0.374 OA
ATOM     22  H   UNL     1      31.620 -23.759 -17.132  0.00  0.00    +0.211 HD
ENDBRANCH   5  21
TORSDOF 5
ENDMDL
MODEL 8
REMARK VINA RESULT:      -8.4      8.050      9.900
REMARK  Name = 6914624
REMARK  5 active torsions:
REMARK  status: ('A' for Active; 'I' for Inactive)
REMARK    1  A    between atoms: C_5  and  O_21
REMARK    2  A    between atoms: CA_6  and  C_14
REMARK    3  A    between atoms: N_13  and  CA_16
REMARK    4  A    between atoms: CA_16  and  C_18
REMARK    5  A    between atoms: C_18  and  O_19
REMARK                            x       y       z     vdW  Elec       q    Type
REMARK                         _______ _______ _______ _____ _____    ______ ____
ROOT
ATOM      1  I   UNL     1      33.408 -13.257 -23.061  0.00  0.00    -0.043 I 
ATOM      2  N   UNL     1      34.982 -17.181 -20.927  0.00  0.00    -0.263 NA
ATOM      3  C   UNL     1      34.558 -17.498 -23.693  0.00  0.00    +0.008 C 
ATOM      4  C   UNL     1      34.305 -16.257 -23.072  0.00  0.00    +0.006 C 
ATOM      5  C   UNL     1      35.023 -18.563 -22.912  0.00  0.00    +0.176 C 
ATOM      6  CA  UNL     1      35.214 -18.354 -21.555  0.00  0.00    +0.138 C 
ATOM      7  C   UNL     1      34.339 -17.628 -25.074  0.00  0.00    -0.002 C 
ATOM      8  C   UNL     1      33.838 -15.175 -23.837  0.00  0.00    +0.028 C 
ATOM      9  C   UNL     1      34.535 -16.165 -21.698  0.00  0.00    +0.152 C 
ATOM     10  C   UNL     1      33.876 -16.547 -25.825  0.00  0.00    +0.000 C 
ATOM     11  C   UNL     1      33.626 -15.322 -25.208  0.00  0.00    +0.006 C 
ENDROOT
BRANCH   6  14
ATOM     12  O   UNL     1      36.841 -19.370 -20.206  0.00  0.00    -0.269 OA
ATOM     13  N   UNL     1      34.814 -20.474 -20.428  0.00  0.00    -0.290 N 
ATOM     14  C   ACE A   1      35.698 -19.422 -20.692  0.00  0.00    +0.262 C 
ATOM     15  H   UNL     1      33.924 -20.450 -20.846  0.00  0.00    +0.150 HD
BRANCH  13  16
ATOM     16  CA  UNL     1      35.139 -21.593 -19.573  0.00  0.00    +0.201 C 
BRANCH  16  18
ATOM     17  OXT UNL     1      33.947 -23.617 -19.036  0.00  0.00    -0.248 OA
ATOM     18  C   UNL     1      33.917 -22.446 -19.389  0.00  0.00    +0.334 C 
BRANCH  18  19
ATOM     19  O   UNL     1      32.766 -21.773 -19.641  0.00  0.00    -0.479 OA
ATOM     20  H   UNL     1      32.640 -21.353 -20.470  0.00  0.00    +0.295 HD
ENDBRANCH  18  19
ENDBRANCH  16  18
ENDBRANCH  13  16
ENDBRANCH   6  14
BRANCH   5  21
ATOM     21  O   UNL     1      35.286 -19.782 -23.460  0.00  0.00    -0.374 OA
ATOM     22  H   UNL     1      34.800 -20.534 -23.186  0.00  0.00    +0.211 HD
ENDBRANCH   5  21
TORSDOF 5
ENDMDL
MODEL 9
REMARK VINA RESULT:      -8.3      8.160      9.987
REMARK  Name = 6914624
REMARK  5 active torsions:
REMARK  status: ('A' for Active; 'I' for Inactive)
REMARK    1  A    between atoms: C_5  and  O_21
REMARK    2  A    between atoms: CA_6  and  C_14
REMARK    3  A    between atoms: N_13  and  CA_16
REMARK    4  A    between atoms: CA_16  and  C_18
REMARK    5  A    between atoms: C_18  and  O_19
REMARK                            x       y       z     vdW  Elec       q    Type
REMARK                         _______ _______ _______ _____ _____    ______ ____
ROOT
ATOM      1  I   UNL     1      32.490 -13.092 -22.053  0.00  0.00    -0.043 I 
ATOM      2  N   UNL     1      34.673 -17.081 -20.727  0.00  0.00    -0.263 NA
ATOM      3  C   UNL     1      34.488 -16.775 -23.520  0.00  0.00    +0.008 C 
ATOM      4  C   UNL     1      33.958 -15.790 -22.660  0.00  0.00    +0.006 C 
ATOM      5  C   UNL     1      35.105 -17.900 -22.962  0.00  0.00    +0.176 C 
ATOM      6  CA  UNL     1      35.169 -18.003 -21.581  0.00  0.00    +0.138 C 
ATOM      7  C   UNL     1      34.382 -16.597 -24.909  0.00  0.00    -0.002 C 
ATOM      8  C   UNL     1      33.335 -14.652 -23.200  0.00  0.00    +0.028 C 
ATOM      9  C   UNL     1      34.082 -16.001 -21.286  0.00  0.00    +0.152 C 
ATOM     10  C   UNL     1      33.762 -15.463 -25.435  0.00  0.00    +0.000 C 
ATOM     11  C   UNL     1      33.239 -14.493 -24.582  0.00  0.00    +0.006 C 
ENDROOT
BRANCH   6  14
ATOM     12  O   UNL     1      37.040 -19.247 -20.910  0.00  0.00    -0.269 OA
ATOM     13  N   UNL     1      34.953 -20.094 -20.355  0.00  0.00    -0.290 N 
ATOM     14  C   ACE A   1      35.801 -19.147 -20.941  0.00  0.00    +0.262 C 
ATOM     15  H   UNL     1      33.982 -19.951 -20.417  0.00  0.00    +0.150 HD
BRANCH  13  16
ATOM     16  CA  UNL     1      35.429 -21.270 -19.663  0.00  0.00    +0.201 C 
BRANCH  16  18
ATOM     17  OXT UNL     1      33.142 -22.030 -19.682  0.00  0.00    -0.248 OA
ATOM     18  C   UNL     1      34.253 -22.063 -19.170  0.00  0.00    +0.334 C 
BRANCH  18  19
ATOM     19  O   UNL     1      34.557 -22.838 -18.098  0.00  0.00    -0.479 OA
ATOM     20  H   UNL     1      35.443 -23.102 -17.947  0.00  0.00    +0.295 HD
ENDBRANCH  18  19
ENDBRANCH  16  18
ENDBRANCH  13  16
ENDBRANCH   6  14
BRANCH   5  21
ATOM     21  O   UNL     1      35.635 -18.880 -23.745  0.00  0.00    -0.374 OA
ATOM     22  H   UNL     1      36.121 -19.580 -23.355  0.00  0.00    +0.211 HD
ENDBRANCH   5  21
TORSDOF 5
ENDMDL
