MODEL 1
REMARK VINA RESULT:     -10.3      0.000      0.000
REMARK  Name = 9882972
REMARK  3 active torsions:
REMARK  status: ('A' for Active; 'I' for Inactive)
REMARK    1  A    between atoms: N_4  and  C_12
REMARK    2  A    between atoms: C_6  and  O_21
REMARK    3  A    between atoms: C_18  and  C_20
REMARK                            x       y       z     vdW  Elec       q    Type
REMARK                         _______ _______ _______ _____ _____    ______ ____
ROOT
ATOM      1  O   UNL     1      34.838 -16.252 -20.235  0.00  0.00    -0.272 OA
ATOM      2  O   UNL     1      34.126 -18.749 -24.082  0.00  0.00    -0.252 OA
ATOM      3  N   UNL     1      34.707 -16.543 -23.668  0.00  0.00    -0.255 N 
ATOM      4  N   UNL     1      34.589 -17.918 -21.908  0.00  0.00    -0.191 N 
ATOM      5  C   UNL     1      34.969 -15.678 -22.556  0.00  0.00    +0.181 C 
ATOM      6  C   UNL     1      33.999 -14.533 -22.781  0.00  0.00    +0.139 C 
ATOM      7  C   UNL     1      34.015 -14.402 -24.314  0.00  0.00    +0.053 C 
ATOM      8  C   UNL     1      34.151 -15.847 -24.810  0.00  0.00    +0.098 C 
ATOM      9  C   UNL     1      34.772 -16.633 -21.397  0.00  0.00    +0.257 C 
ATOM     10  C   UNL     1      34.477 -17.870 -23.305  0.00  0.00    +0.317 C 
ENDROOT
BRANCH   4  12
ATOM     11 CL   UNL     1      36.781 -21.777 -19.247  0.00  0.00    -0.082 Cl
ATOM     12  C   UNL     1      34.442 -19.107 -21.125  0.00  0.00    +0.059 C 
ATOM     13  C   UNL     1      35.555 -19.788 -20.623  0.00  0.00    +0.004 C 
ATOM     14  C   UNL     1      33.158 -19.594 -20.860  0.00  0.00    +0.016 C 
ATOM     15  C   UNL     1      35.386 -20.946 -19.863  0.00  0.00    +0.064 C 
ATOM     16  C   UNL     1      36.925 -19.255 -20.914  0.00  0.00    +0.033 C 
ATOM     17  C   UNL     1      32.989 -20.752 -20.101  0.00  0.00    +0.012 C 
ATOM     18  C   UNL     1      34.103 -21.427 -19.602  0.00  0.00    +0.079 C 
BRANCH  18  20
ATOM     19  N   UNL     1      33.698 -23.568 -18.199  0.00  0.00    -0.191 NA
ATOM     20  C   UNL     1      33.879 -22.611 -18.826  0.00  0.00    +0.101 C 
ENDBRANCH  18  20
ENDBRANCH   4  12
BRANCH   6  21
ATOM     21  O   UNL     1      32.693 -14.885 -22.342  0.00  0.00    -0.382 OA
ATOM     22  H   UNL     1      32.103 -14.966 -23.109  0.00  0.00    +0.210 HD
ENDBRANCH   6  21
TORSDOF 3
ENDMDL
MODEL 2
REMARK VINA RESULT:      -8.9      1.390      2.034
REMARK  Name = 9882972
REMARK  3 active torsions:
REMARK  status: ('A' for Active; 'I' for Inactive)
REMARK    1  A    between atoms: N_4  and  C_12
REMARK    2  A    between atoms: C_6  and  O_21
REMARK    3  A    between atoms: C_18  and  C_20
REMARK                            x       y       z     vdW  Elec       q    Type
REMARK                         _______ _______ _______ _____ _____    ______ ____
ROOT
ATOM      1  O   UNL     1      35.021 -15.552 -20.907  0.00  0.00    -0.272 OA
ATOM      2  O   UNL     1      34.464 -18.610 -24.354  0.00  0.00    -0.252 OA
ATOM      3  N   UNL     1      34.542 -16.296 -24.239  0.00  0.00    -0.255 N 
ATOM      4  N   UNL     1      34.977 -17.428 -22.360  0.00  0.00    -0.191 N 
ATOM      5  C   UNL     1      34.722 -15.261 -23.265  0.00  0.00    +0.181 C 
ATOM      6  C   UNL     1      33.484 -14.403 -23.448  0.00  0.00    +0.139 C 
ATOM      7  C   UNL     1      33.279 -14.466 -24.972  0.00  0.00    +0.053 C 
ATOM      8  C   UNL     1      33.697 -15.894 -25.345  0.00  0.00    +0.098 C 
ATOM      9  C   UNL     1      34.906 -16.081 -22.005  0.00  0.00    +0.257 C 
ATOM     10  C   UNL     1      34.685 -17.584 -23.723  0.00  0.00    +0.317 C 
ENDROOT
BRANCH   4  12
ATOM     11 CL   UNL     1      33.109 -21.229 -19.385  0.00  0.00    -0.082 Cl
ATOM     12  C   UNL     1      35.219 -18.511 -21.456  0.00  0.00    +0.059 C 
ATOM     13  C   UNL     1      34.167 -19.260 -20.919  0.00  0.00    +0.004 C 
ATOM     14  C   UNL     1      36.537 -18.824 -21.106  0.00  0.00    +0.016 C 
ATOM     15  C   UNL     1      34.430 -20.310 -20.040  0.00  0.00    +0.064 C 
ATOM     16  C   UNL     1      32.761 -18.914 -21.303  0.00  0.00    +0.033 C 
ATOM     17  C   UNL     1      36.799 -19.875 -20.227  0.00  0.00    +0.012 C 
ATOM     18  C   UNL     1      35.746 -20.618 -19.694  0.00  0.00    +0.079 C 
BRANCH  18  20
ATOM     19  N   UNL     1      36.324 -22.552 -18.070  0.00  0.00    -0.191 NA
ATOM     20  C   UNL     1      36.065 -21.688 -18.796  0.00  0.00    +0.101 C 
ENDBRANCH  18  20
ENDBRANCH   4  12
BRANCH   6  21
ATOM     21  O   UNL     1      32.366 -14.983 -22.788  0.00  0.00    -0.382 OA
ATOM     22  H   UNL     1      32.628 -15.272 -21.899  0.00  0.00    +0.210 HD
ENDBRANCH   6  21
TORSDOF 3
ENDMDL
MODEL 3
REMARK VINA RESULT:      -8.6      8.508     10.948
REMARK  Name = 9882972
REMARK  3 active torsions:
REMARK  status: ('A' for Active; 'I' for Inactive)
REMARK    1  A    between atoms: N_4  and  C_12
REMARK    2  A    between atoms: C_6  and  O_21
REMARK    3  A    between atoms: C_18  and  C_20
REMARK                            x       y       z     vdW  Elec       q    Type
REMARK                         _______ _______ _______ _____ _____    ______ ____
ROOT
ATOM      1  O   UNL     1      35.529 -25.894 -15.904  0.00  0.00    -0.272 OA
ATOM      2  O   UNL     1      34.802 -23.536 -11.973  0.00  0.00    -0.252 OA
ATOM      3  N   UNL     1      36.687 -24.353 -13.047  0.00  0.00    -0.255 N 
ATOM      4  N   UNL     1      34.736 -24.540 -14.123  0.00  0.00    -0.191 N 
ATOM      5  C   UNL     1      37.038 -25.062 -14.242  0.00  0.00    +0.181 C 
ATOM      6  C   UNL     1      37.811 -26.256 -13.713  0.00  0.00    +0.139 C 
ATOM      7  C   UNL     1      38.574 -25.639 -12.529  0.00  0.00    +0.053 C 
ATOM      8  C   UNL     1      37.592 -24.615 -11.945  0.00  0.00    +0.098 C 
ATOM      9  C   UNL     1      35.674 -25.251 -14.873  0.00  0.00    +0.257 C 
ATOM     10  C   UNL     1      35.332 -24.038 -12.956  0.00  0.00    +0.317 C 
ENDROOT
BRANCH   4  12
ATOM     11 CL   UNL     1      31.039 -22.526 -17.132  0.00  0.00    -0.082 Cl
ATOM     12  C   UNL     1      33.347 -24.412 -14.441  0.00  0.00    +0.059 C 
ATOM     13  C   UNL     1      32.915 -23.622 -15.510  0.00  0.00    +0.004 C 
ATOM     14  C   UNL     1      32.405 -25.093 -13.663  0.00  0.00    +0.016 C 
ATOM     15  C   UNL     1      31.555 -23.512 -15.799  0.00  0.00    +0.064 C 
ATOM     16  C   UNL     1      33.936 -22.897 -16.335  0.00  0.00    +0.033 C 
ATOM     17  C   UNL     1      31.044 -24.984 -13.952  0.00  0.00    +0.012 C 
ATOM     18  C   UNL     1      30.620 -24.194 -15.020  0.00  0.00    +0.079 C 
BRANCH  18  20
ATOM     19  N   UNL     1      28.075 -24.050 -15.487  0.00  0.00    -0.191 NA
ATOM     20  C   UNL     1      29.213 -24.114 -15.279  0.00  0.00    +0.101 C 
ENDBRANCH  18  20
ENDBRANCH   4  12
BRANCH   6  21
ATOM     21  O   UNL     1      36.924 -27.264 -13.242  0.00  0.00    -0.382 OA
ATOM     22  H   UNL     1      37.411 -28.095 -13.124  0.00  0.00    +0.210 HD
ENDBRANCH   6  21
TORSDOF 3
ENDMDL
MODEL 4
REMARK VINA RESULT:      -8.5      8.609     10.603
REMARK  Name = 9882972
REMARK  3 active torsions:
REMARK  status: ('A' for Active; 'I' for Inactive)
REMARK    1  A    between atoms: N_4  and  C_12
REMARK    2  A    between atoms: C_6  and  O_21
REMARK    3  A    between atoms: C_18  and  C_20
REMARK                            x       y       z     vdW  Elec       q    Type
REMARK                         _______ _______ _______ _____ _____    ______ ____
ROOT
ATOM      1  O   UNL     1      34.888 -23.577 -11.893  0.00  0.00    -0.272 OA
ATOM      2  O   UNL     1      35.662 -26.110 -15.704  0.00  0.00    -0.252 OA
ATOM      3  N   UNL     1      36.845 -25.723 -13.748  0.00  0.00    -0.255 N 
ATOM      4  N   UNL     1      34.784 -24.867 -13.882  0.00  0.00    -0.191 N 
ATOM      5  C   UNL     1      36.710 -24.996 -12.521  0.00  0.00    +0.181 C 
ATOM      6  C   UNL     1      37.963 -24.140 -12.494  0.00  0.00    +0.139 C 
ATOM      7  C   UNL     1      39.007 -25.088 -13.109  0.00  0.00    +0.053 C 
ATOM      8  C   UNL     1      38.223 -25.862 -14.177  0.00  0.00    +0.098 C 
ATOM      9  C   UNL     1      35.350 -24.357 -12.714  0.00  0.00    +0.257 C 
ATOM     10  C   UNL     1      35.719 -25.656 -14.568  0.00  0.00    +0.317 C 
ENDROOT
BRANCH   4  12
ATOM     11 CL   UNL     1      31.778 -22.389 -17.289  0.00  0.00    -0.082 Cl
ATOM     12  C   UNL     1      33.472 -24.563 -14.368  0.00  0.00    +0.059 C 
ATOM     13  C   UNL     1      33.282 -23.720 -15.467  0.00  0.00    +0.004 C 
ATOM     14  C   UNL     1      32.362 -25.122 -13.727  0.00  0.00    +0.016 C 
ATOM     15  C   UNL     1      31.993 -23.438 -15.921  0.00  0.00    +0.064 C 
ATOM     16  C   UNL     1      34.481 -23.128 -16.144  0.00  0.00    +0.033 C 
ATOM     17  C   UNL     1      31.073 -24.840 -14.181  0.00  0.00    +0.012 C 
ATOM     18  C   UNL     1      30.890 -23.998 -15.278  0.00  0.00    +0.079 C 
BRANCH  18  20
ATOM     19  N   UNL     1      28.463 -23.530 -16.057  0.00  0.00    -0.191 NA
ATOM     20  C   UNL     1      29.547 -23.739 -15.708  0.00  0.00    +0.101 C 
ENDBRANCH  18  20
ENDBRANCH   4  12
BRANCH   6  21
ATOM     21  O   UNL     1      37.808 -22.992 -13.319  0.00  0.00    -0.382 OA
ATOM     22  H   UNL     1      38.682 -22.661 -13.581  0.00  0.00    +0.210 HD
ENDBRANCH   6  21
TORSDOF 3
ENDMDL
MODEL 5
REMARK VINA RESULT:      -8.5      8.112     10.543
REMARK  Name = 9882972
REMARK  3 active torsions:
REMARK  status: ('A' for Active; 'I' for Inactive)
REMARK    1  A    between atoms: N_4  and  C_12
REMARK    2  A    between atoms: C_6  and  O_21
REMARK    3  A    between atoms: C_18  and  C_20
REMARK                            x       y       z     vdW  Elec       q    Type
REMARK                         _______ _______ _______ _____ _____    ______ ____
ROOT
ATOM      1  O   UNL     1      35.619 -26.499 -15.957  0.00  0.00    -0.272 OA
ATOM      2  O   UNL     1      36.080 -22.500 -13.646  0.00  0.00    -0.252 OA
ATOM      3  N   UNL     1      37.513 -24.249 -14.158  0.00  0.00    -0.255 N 
ATOM      4  N   UNL     1      35.466 -24.308 -15.056  0.00  0.00    -0.191 N 
ATOM      5  C   UNL     1      37.498 -25.497 -14.862  0.00  0.00    +0.181 C 
ATOM      6  C   UNL     1      37.971 -26.485 -13.811  0.00  0.00    +0.139 C 
ATOM      7  C   UNL     1      39.020 -25.657 -13.049  0.00  0.00    +0.053 C 
ATOM      8  C   UNL     1      38.442 -24.235 -13.047  0.00  0.00    +0.098 C 
ATOM      9  C   UNL     1      36.066 -25.531 -15.354  0.00  0.00    +0.257 C 
ATOM     10  C   UNL     1      36.320 -23.533 -14.258  0.00  0.00    +0.317 C 
ENDROOT
BRANCH   4  12
ATOM     11 CL   UNL     1      30.466 -23.857 -13.799  0.00  0.00    -0.082 Cl
ATOM     12  C   UNL     1      34.137 -23.925 -15.425  0.00  0.00    +0.059 C 
ATOM     13  C   UNL     1      33.067 -24.061 -14.535  0.00  0.00    +0.004 C 
ATOM     14  C   UNL     1      33.909 -23.405 -16.703  0.00  0.00    +0.016 C 
ATOM     15  C   UNL     1      31.781 -23.681 -14.920  0.00  0.00    +0.064 C 
ATOM     16  C   UNL     1      33.326 -24.619 -13.169  0.00  0.00    +0.033 C 
ATOM     17  C   UNL     1      32.623 -23.025 -17.088  0.00  0.00    +0.012 C 
ATOM     18  C   UNL     1      31.559 -23.163 -16.196  0.00  0.00    +0.079 C 
BRANCH  18  20
ATOM     19  N   UNL     1      29.205 -22.431 -16.992  0.00  0.00    -0.191 NA
ATOM     20  C   UNL     1      30.257 -22.758 -16.636  0.00  0.00    +0.101 C 
ENDBRANCH  18  20
ENDBRANCH   4  12
BRANCH   6  21
ATOM     21  O   UNL     1      36.908 -26.838 -12.935  0.00  0.00    -0.382 OA
ATOM     22  H   UNL     1      36.489 -27.656 -13.247  0.00  0.00    +0.210 HD
ENDBRANCH   6  21
TORSDOF 3
ENDMDL
MODEL 6
REMARK VINA RESULT:      -8.0      2.878      6.545
REMARK  Name = 9882972
REMARK  3 active torsions:
REMARK  status: ('A' for Active; 'I' for Inactive)
REMARK    1  A    between atoms: N_4  and  C_12
REMARK    2  A    between atoms: C_6  and  O_21
REMARK    3  A    between atoms: C_18  and  C_20
REMARK                            x       y       z     vdW  Elec       q    Type
REMARK                         _______ _______ _______ _____ _____    ______ ____
ROOT
ATOM      1  O   UNL     1      37.147 -18.877 -21.321  0.00  0.00    -0.272 OA
ATOM      2  O   UNL     1      32.606 -19.826 -21.181  0.00  0.00    -0.252 OA
ATOM      3  N   UNL     1      34.421 -20.393 -19.854  0.00  0.00    -0.255 N 
ATOM      4  N   UNL     1      34.783 -18.939 -21.514  0.00  0.00    -0.191 N 
ATOM      5  C   UNL     1      35.832 -20.155 -19.782  0.00  0.00    +0.181 C 
ATOM      6  C   UNL     1      36.412 -21.558 -19.767  0.00  0.00    +0.139 C 
ATOM      7  C   UNL     1      35.374 -22.320 -18.926  0.00  0.00    +0.053 C 
ATOM      8  C   UNL     1      34.035 -21.684 -19.322  0.00  0.00    +0.098 C 
ATOM      9  C   UNL     1      36.033 -19.256 -20.984  0.00  0.00    +0.257 C 
ATOM     10  C   UNL     1      33.783 -19.686 -20.873  0.00  0.00    +0.317 C 
ENDROOT
BRANCH   4  12
ATOM     11 CL   UNL     1      34.017 -14.121 -23.244  0.00  0.00    -0.082 Cl
ATOM     12  C   UNL     1      34.549 -18.052 -22.613  0.00  0.00    +0.059 C 
ATOM     13  C   UNL     1      34.412 -16.674 -22.419  0.00  0.00    +0.004 C 
ATOM     14  C   UNL     1      34.458 -18.578 -23.905  0.00  0.00    +0.016 C 
ATOM     15  C   UNL     1      34.184 -15.831 -23.506  0.00  0.00    +0.064 C 
ATOM     16  C   UNL     1      34.512 -16.124 -21.028  0.00  0.00    +0.033 C 
ATOM     17  C   UNL     1      34.230 -17.734 -24.993  0.00  0.00    +0.012 C 
ATOM     18  C   UNL     1      34.094 -16.361 -24.793  0.00  0.00    +0.079 C 
BRANCH  18  20
ATOM     19  N   UNL     1      33.675 -14.867 -26.869  0.00  0.00    -0.191 NA
ATOM     20  C   UNL     1      33.863 -15.535 -25.941  0.00  0.00    +0.101 C 
ENDBRANCH  18  20
ENDBRANCH   4  12
BRANCH   6  21
ATOM     21  O   UNL     1      36.458 -22.098 -21.082  0.00  0.00    -0.382 OA
ATOM     22  H   UNL     1      36.380 -21.381 -21.730  0.00  0.00    +0.210 HD
ENDBRANCH   6  21
TORSDOF 3
ENDMDL
MODEL 7
REMARK VINA RESULT:      -7.8      5.234      8.828
REMARK  Name = 9882972
REMARK  3 active torsions:
REMARK  status: ('A' for Active; 'I' for Inactive)
REMARK    1  A    between atoms: N_4  and  C_12
REMARK    2  A    between atoms: C_6  and  O_21
REMARK    3  A    between atoms: C_18  and  C_20
REMARK                            x       y       z     vdW  Elec       q    Type
REMARK                         _______ _______ _______ _____ _____    ______ ____
ROOT
ATOM      1  O   UNL     1      34.291 -14.088 -21.782  0.00  0.00    -0.272 OA
ATOM      2  O   UNL     1      33.153 -13.767 -26.270  0.00  0.00    -0.252 OA
ATOM      3  N   UNL     1      33.355 -15.525 -24.772  0.00  0.00    -0.255 N 
ATOM      4  N   UNL     1      33.579 -13.455 -23.956  0.00  0.00    -0.191 N 
ATOM      5  C   UNL     1      33.672 -15.748 -23.393  0.00  0.00    +0.181 C 
ATOM      6  C   UNL     1      34.819 -16.739 -23.465  0.00  0.00    +0.139 C 
ATOM      7  C   UNL     1      34.406 -17.614 -24.660  0.00  0.00    +0.053 C 
ATOM      8  C   UNL     1      33.736 -16.630 -25.628  0.00  0.00    +0.098 C 
ATOM      9  C   UNL     1      33.915 -14.329 -22.922  0.00  0.00    +0.257 C 
ATOM     10  C   UNL     1      33.298 -14.177 -25.125  0.00  0.00    +0.317 C 
ENDROOT
BRANCH   4  12
ATOM     11 CL   UNL     1      31.608  -9.089 -21.997  0.00  0.00    -0.082 Cl
ATOM     12  C   UNL     1      33.603 -12.026 -23.874  0.00  0.00    +0.059 C 
ATOM     13  C   UNL     1      32.698 -11.329 -23.067  0.00  0.00    +0.004 C 
ATOM     14  C   UNL     1      34.552 -11.317 -24.616  0.00  0.00    +0.016 C 
ATOM     15  C   UNL     1      32.741  -9.936 -23.005  0.00  0.00    +0.064 C 
ATOM     16  C   UNL     1      31.686 -12.102 -22.277  0.00  0.00    +0.033 C 
ATOM     17  C   UNL     1      34.595  -9.924 -24.554  0.00  0.00    +0.012 C 
ATOM     18  C   UNL     1      33.690  -9.234 -23.748  0.00  0.00    +0.079 C 
BRANCH  18  20
ATOM     19  N   UNL     1      33.841  -6.648 -23.690  0.00  0.00    -0.191 NA
ATOM     20  C   UNL     1      33.774  -7.804 -23.716  0.00  0.00    +0.101 C 
ENDBRANCH  18  20
ENDBRANCH   4  12
BRANCH   6  21
ATOM     21  O   UNL     1      36.043 -16.075 -23.754  0.00  0.00    -0.382 OA
ATOM     22  H   UNL     1      36.777 -16.550 -23.332  0.00  0.00    +0.210 HD
ENDBRANCH   6  21
TORSDOF 3
ENDMDL
MODEL 8
REMARK VINA RESULT:      -7.8      8.286     10.150
REMARK  Name = 9882972
REMARK  3 active torsions:
REMARK  status: ('A' for Active; 'I' for Inactive)
REMARK    1  A    between atoms: N_4  and  C_12
REMARK    2  A    between atoms: C_6  and  O_21
REMARK    3  A    between atoms: C_18  and  C_20
REMARK                            x       y       z     vdW  Elec       q    Type
REMARK                         _______ _______ _______ _____ _____    ______ ____
ROOT
ATOM      1  O   UNL     1      33.717 -24.754 -12.426  0.00  0.00    -0.272 OA
ATOM      2  O   UNL     1      34.565 -23.529 -16.822  0.00  0.00    -0.252 OA
ATOM      3  N   UNL     1      32.780 -23.232 -15.373  0.00  0.00    -0.255 N 
ATOM      4  N   UNL     1      34.631 -24.165 -14.536  0.00  0.00    -0.191 N 
ATOM      5  C   UNL     1      32.412 -23.537 -14.022  0.00  0.00    +0.181 C 
ATOM      6  C   UNL     1      31.106 -24.292 -14.188  0.00  0.00    +0.139 C 
ATOM      7  C   UNL     1      30.459 -23.548 -15.369  0.00  0.00    +0.053 C 
ATOM      8  C   UNL     1      31.644 -23.182 -16.272  0.00  0.00    +0.098 C 
ATOM      9  C   UNL     1      33.656 -24.256 -13.542  0.00  0.00    +0.257 C 
ATOM     10  C   UNL     1      34.085 -23.598 -15.697  0.00  0.00    +0.317 C 
ENDROOT
BRANCH   4  12
ATOM     11 CL   UNL     1      39.283 -23.923 -12.281  0.00  0.00    -0.082 Cl
ATOM     12  C   UNL     1      35.971 -24.658 -14.429  0.00  0.00    +0.059 C 
ATOM     13  C   UNL     1      36.875 -24.114 -13.512  0.00  0.00    +0.004 C 
ATOM     14  C   UNL     1      36.379 -25.704 -15.262  0.00  0.00    +0.016 C 
ATOM     15  C   UNL     1      38.175 -24.611 -13.428  0.00  0.00    +0.064 C 
ATOM     16  C   UNL     1      36.424 -22.993 -12.626  0.00  0.00    +0.033 C 
ATOM     17  C   UNL     1      37.680 -26.202 -15.178  0.00  0.00    +0.012 C 
ATOM     18  C   UNL     1      38.577 -25.656 -14.261  0.00  0.00    +0.079 C 
BRANCH  18  20
ATOM     19  N   UNL     1      40.972 -26.641 -14.171  0.00  0.00    -0.191 NA
ATOM     20  C   UNL     1      39.902 -26.201 -14.211  0.00  0.00    +0.101 C 
ENDBRANCH  18  20
ENDBRANCH   4  12
BRANCH   6  21
ATOM     21  O   UNL     1      31.348 -25.647 -14.546  0.00  0.00    -0.382 OA
ATOM     22  H   UNL     1      31.656 -25.689 -15.465  0.00  0.00    +0.210 HD
ENDBRANCH   6  21
TORSDOF 3
ENDMDL
MODEL 9
REMARK VINA RESULT:      -7.6      9.196     12.698
REMARK  Name = 9882972
REMARK  3 active torsions:
REMARK  status: ('A' for Active; 'I' for Inactive)
REMARK    1  A    between atoms: N_4  and  C_12
REMARK    2  A    between atoms: C_6  and  O_21
REMARK    3  A    between atoms: C_18  and  C_20
REMARK                            x       y       z     vdW  Elec       q    Type
REMARK                         _______ _______ _______ _____ _____    ______ ____
ROOT
ATOM      1  O   UNL     1      32.352 -10.290 -23.809  0.00  0.00    -0.272 OA
ATOM      2  O   UNL     1      31.966  -7.158 -20.406  0.00  0.00    -0.252 OA
ATOM      3  N   UNL     1      32.307  -9.450 -20.466  0.00  0.00    -0.255 N 
ATOM      4  N   UNL     1      32.305  -8.365 -22.421  0.00  0.00    -0.191 N 
ATOM      5  C   UNL     1      32.459 -10.502 -21.427  0.00  0.00    +0.181 C 
ATOM      6  C   UNL     1      31.378 -11.488 -21.025  0.00  0.00    +0.139 C 
ATOM      7  C   UNL     1      31.405 -11.378 -19.491  0.00  0.00    +0.053 C 
ATOM      8  C   UNL     1      31.699  -9.895 -19.229  0.00  0.00    +0.098 C 
ATOM      9  C   UNL     1      32.345  -9.726 -22.723  0.00  0.00    +0.257 C 
ATOM     10  C   UNL     1      32.211  -8.180 -21.034  0.00  0.00    +0.317 C 
ENDROOT
BRANCH   4  12
ATOM     11 CL   UNL     1      34.743  -5.561 -26.023  0.00  0.00    -0.082 Cl
ATOM     12  C   UNL     1      32.271  -7.304 -23.382  0.00  0.00    +0.059 C 
ATOM     13  C   UNL     1      33.395  -6.983 -24.150  0.00  0.00    +0.004 C 
ATOM     14  C   UNL     1      31.089  -6.578 -23.553  0.00  0.00    +0.016 C 
ATOM     15  C   UNL     1      33.337  -5.944 -25.079  0.00  0.00    +0.064 C 
ATOM     16  C   UNL     1      34.655  -7.770 -23.956  0.00  0.00    +0.033 C 
ATOM     17  C   UNL     1      31.031  -5.539 -24.483  0.00  0.00    +0.012 C 
ATOM     18  C   UNL     1      32.155  -5.223 -25.245  0.00  0.00    +0.079 C 
BRANCH  18  20
ATOM     19  N   UNL     1      31.959  -3.281 -26.950  0.00  0.00    -0.191 NA
ATOM     20  C   UNL     1      32.046  -4.149 -26.188  0.00  0.00    +0.101 C 
ENDBRANCH  18  20
ENDBRANCH   4  12
BRANCH   6  21
ATOM     21  O   UNL     1      30.109 -11.073 -21.515  0.00  0.00    -0.382 OA
ATOM     22  H   UNL     1      30.032 -11.306 -22.454  0.00  0.00    +0.210 HD
ENDBRANCH   6  21
TORSDOF 3
ENDMDL
