MODEL 1
REMARK VINA RESULT:      -9.0      0.000      0.000
REMARK  Name = 101819
REMARK  2 active torsions:
REMARK  status: ('A' for Active; 'I' for Inactive)
REMARK    1  A    between atoms: C_7  and  O_21
REMARK    2  A    between atoms: C_19  and  O_23
REMARK                            x       y       z     vdW  Elec       q    Type
REMARK                         _______ _______ _______ _____ _____    ______ ____
ROOT
ATOM      1  C   UNL     1      34.169 -23.318 -15.365  0.00  0.00    +0.000 C 
ATOM      2  C   UNL     1      32.726 -23.632 -15.786  0.00  0.00    +0.002 C 
ATOM      3  C   UNL     1      34.702 -24.495 -14.484  0.00  0.00    +0.000 C 
ATOM      4  C   UNL     1      31.773 -23.819 -14.587  0.00  0.00    +0.023 C 
ATOM      5  C   UNL     1      36.200 -24.274 -14.053  0.00  0.00    +0.000 C 
ATOM      6  C   UNL     1      37.037 -24.076 -15.357  0.00  0.00    +0.002 C 
ATOM      7  C   UNL     1      30.410 -23.995 -15.327  0.00  0.00    +0.088 C 
ATOM      8  C   UNL     1      33.740 -24.827 -13.313  0.00  0.00    +0.000 C 
ATOM      9  C   UNL     1      32.279 -25.017 -13.765  0.00  0.00    +0.002 C 
ATOM     10  C   UNL     1      35.071 -23.085 -16.587  0.00  0.00    +0.000 C 
ATOM     11  C   UNL     1      31.993 -22.630 -16.671  0.00  0.00    +0.002 C 
ATOM     12  C   UNL     1      36.537 -22.899 -16.201  0.00  0.00    +0.000 C 
ATOM     13  C   UNL     1      30.501 -22.966 -16.487  0.00  0.00    +0.027 C 
ATOM     14  C   UNL     1      36.753 -25.531 -13.323  0.00  0.00    +0.002 C 
ATOM     15  C   UNL     1      38.544 -23.973 -15.089  0.00  0.00    +0.029 C 
ATOM     16  C   UNL     1      31.696 -22.574 -13.656  0.00  0.00    +0.002 C 
ATOM     17  C   UNL     1      36.323 -23.061 -13.094  0.00  0.00    +0.000 C 
ATOM     18  C   UNL     1      38.261 -25.479 -13.072  0.00  0.00    +0.029 C 
ATOM     19  C   UNL     1      39.055 -25.204 -14.346  0.00  0.00    +0.111 C 
ATOM     20  C   UNL     1      30.135 -25.403 -15.872  0.00  0.00    +0.029 C 
ENDROOT
BRANCH   7  21
ATOM     21  O   UNL     1      29.317 -23.667 -14.473  0.00  0.00    -0.387 OA
ATOM     22  H   UNL     1      29.469 -24.047 -13.593  0.00  0.00    +0.210 HD
ENDBRANCH   7  21
BRANCH  19  23
ATOM     23  O   UNL     1      40.426 -25.003 -14.021  0.00  0.00    -0.384 OA
ATOM     24  H   UNL     1      40.922 -24.786 -14.827  0.00  0.00    +0.210 HD
ENDBRANCH  19  23
TORSDOF 2
ENDMDL
MODEL 2
REMARK VINA RESULT:      -7.9      3.275      6.355
REMARK  Name = 101819
REMARK  2 active torsions:
REMARK  status: ('A' for Active; 'I' for Inactive)
REMARK    1  A    between atoms: C_7  and  O_21
REMARK    2  A    between atoms: C_19  and  O_23
REMARK                            x       y       z     vdW  Elec       q    Type
REMARK                         _______ _______ _______ _____ _____    ______ ____
ROOT
ATOM      1  C   UNL     1      36.202 -22.925 -16.951  0.00  0.00    +0.000 C 
ATOM      2  C   UNL     1      36.440 -23.183 -15.456  0.00  0.00    +0.002 C 
ATOM      3  C   UNL     1      34.720 -22.469 -17.152  0.00  0.00    +0.000 C 
ATOM      4  C   UNL     1      35.509 -24.266 -14.872  0.00  0.00    +0.023 C 
ATOM      5  C   UNL     1      34.407 -22.134 -18.658  0.00  0.00    +0.000 C 
ATOM      6  C   UNL     1      35.434 -21.050 -19.117  0.00  0.00    +0.002 C 
ATOM      7  C   UNL     1      36.069 -24.375 -13.420  0.00  0.00    +0.088 C 
ATOM      8  C   UNL     1      33.715 -23.450 -16.492  0.00  0.00    +0.000 C 
ATOM      9  C   UNL     1      34.060 -23.773 -15.025  0.00  0.00    +0.002 C 
ATOM     10  C   UNL     1      37.185 -21.883 -17.504  0.00  0.00    +0.000 C 
ATOM     11  C   UNL     1      37.829 -23.626 -15.008  0.00  0.00    +0.002 C 
ATOM     12  C   UNL     1      36.886 -21.513 -18.956  0.00  0.00    +0.000 C 
ATOM     13  C   UNL     1      37.605 -24.262 -13.623  0.00  0.00    +0.027 C 
ATOM     14  C   UNL     1      32.983 -21.525 -18.801  0.00  0.00    +0.002 C 
ATOM     15  C   UNL     1      35.165 -20.537 -20.538  0.00  0.00    +0.029 C 
ATOM     16  C   UNL     1      35.643 -25.646 -15.580  0.00  0.00    +0.002 C 
ATOM     17  C   UNL     1      34.481 -23.412 -19.533  0.00  0.00    +0.000 C 
ATOM     18  C   UNL     1      32.692 -20.970 -20.196  0.00  0.00    +0.029 C 
ATOM     19  C   UNL     1      33.751 -19.974 -20.660  0.00  0.00    +0.111 C 
ATOM     20  C   UNL     1      35.573 -23.302 -12.441  0.00  0.00    +0.029 C 
ENDROOT
BRANCH   7  21
ATOM     21  O   UNL     1      35.749 -25.637 -12.840  0.00  0.00    -0.387 OA
ATOM     22  H   UNL     1      35.357 -25.499 -11.962  0.00  0.00    +0.210 HD
ENDBRANCH   7  21
BRANCH  19  23
ATOM     23  O   UNL     1      33.516 -19.624 -22.019  0.00  0.00    -0.384 OA
ATOM     24  H   UNL     1      33.976 -20.252 -22.600  0.00  0.00    +0.210 HD
ENDBRANCH  19  23
TORSDOF 2
ENDMDL
MODEL 3
REMARK VINA RESULT:      -7.5     19.935     22.150
REMARK  Name = 101819
REMARK  2 active torsions:
REMARK  status: ('A' for Active; 'I' for Inactive)
REMARK    1  A    between atoms: C_7  and  O_21
REMARK    2  A    between atoms: C_19  and  O_23
REMARK                            x       y       z     vdW  Elec       q    Type
REMARK                         _______ _______ _______ _____ _____    ______ ____
ROOT
ATOM      1  C   UNL     1      32.179  -4.388 -25.129  0.00  0.00    +0.000 C 
ATOM      2  C   UNL     1      32.878  -3.412 -26.086  0.00  0.00    +0.002 C 
ATOM      3  C   UNL     1      33.232  -5.418 -24.604  0.00  0.00    +0.000 C 
ATOM      4  C   UNL     1      33.526  -4.112 -27.298  0.00  0.00    +0.023 C 
ATOM      5  C   UNL     1      32.604  -6.427 -23.573  0.00  0.00    +0.000 C 
ATOM      6  C   UNL     1      31.968  -5.583 -22.422  0.00  0.00    +0.002 C 
ATOM      7  C   UNL     1      34.026  -2.877 -28.111  0.00  0.00    +0.088 C 
ATOM      8  C   UNL     1      34.015  -6.090 -25.763  0.00  0.00    +0.000 C 
ATOM      9  C   UNL     1      34.600  -5.077 -26.766  0.00  0.00    +0.002 C 
ATOM     10  C   UNL     1      31.500  -3.646 -23.968  0.00  0.00    +0.000 C 
ATOM     11  C   UNL     1      32.051  -2.297 -26.718  0.00  0.00    +0.002 C 
ATOM     12  C   UNL     1      30.908  -4.601 -22.932  0.00  0.00    +0.000 C 
ATOM     13  C   UNL     1      32.872  -1.852 -27.943  0.00  0.00    +0.027 C 
ATOM     14  C   UNL     1      33.706  -7.327 -22.944  0.00  0.00    +0.002 C 
ATOM     15  C   UNL     1      31.424  -6.447 -21.278  0.00  0.00    +0.029 C 
ATOM     16  C   UNL     1      32.515  -4.921 -28.162  0.00  0.00    +0.002 C 
ATOM     17  C   UNL     1      31.561  -7.344 -24.264  0.00  0.00    +0.000 C 
ATOM     18  C   UNL     1      33.207  -8.178 -21.774  0.00  0.00    +0.029 C 
ATOM     19  C   UNL     1      32.517  -7.343 -20.699  0.00  0.00    +0.111 C 
ATOM     20  C   UNL     1      35.357  -2.275 -27.641  0.00  0.00    +0.029 C 
ENDROOT
BRANCH   7  21
ATOM     21  O   UNL     1      34.189  -3.202 -29.489  0.00  0.00    -0.387 OA
ATOM     22  H   UNL     1      34.002  -2.418 -30.030  0.00  0.00    +0.210 HD
ENDBRANCH   7  21
BRANCH  19  23
ATOM     23  O   UNL     1      31.933  -8.204 -19.727  0.00  0.00    -0.384 OA
ATOM     24  H   UNL     1      31.610  -7.675 -18.979  0.00  0.00    +0.210 HD
ENDBRANCH  19  23
TORSDOF 2
ENDMDL
MODEL 4
REMARK VINA RESULT:      -7.4      1.408      6.642
REMARK  Name = 101819
REMARK  2 active torsions:
REMARK  status: ('A' for Active; 'I' for Inactive)
REMARK    1  A    between atoms: C_7  and  O_21
REMARK    2  A    between atoms: C_19  and  O_23
REMARK                            x       y       z     vdW  Elec       q    Type
REMARK                         _______ _______ _______ _____ _____    ______ ____
ROOT
ATOM      1  C   UNL     1      33.920 -23.683 -15.707  0.00  0.00    +0.000 C 
ATOM      2  C   UNL     1      35.292 -23.407 -15.077  0.00  0.00    +0.002 C 
ATOM      3  C   UNL     1      32.835 -23.654 -14.582  0.00  0.00    +0.000 C 
ATOM      4  C   UNL     1      35.680 -24.437 -13.995  0.00  0.00    +0.023 C 
ATOM      5  C   UNL     1      31.387 -23.878 -15.156  0.00  0.00    +0.000 C 
ATOM      6  C   UNL     1      31.144 -22.788 -16.249  0.00  0.00    +0.002 C 
ATOM      7  C   UNL     1      37.127 -23.964 -13.652  0.00  0.00    +0.088 C 
ATOM      8  C   UNL     1      33.204 -24.582 -13.395  0.00  0.00    +0.000 C 
ATOM      9  C   UNL     1      34.635 -24.352 -12.869  0.00  0.00    +0.002 C 
ATOM     10  C   UNL     1      33.598 -22.669 -16.816  0.00  0.00    +0.000 C 
ATOM     11  C   UNL     1      36.516 -23.368 -15.987  0.00  0.00    +0.002 C 
ATOM     12  C   UNL     1      32.186 -22.842 -17.371  0.00  0.00    +0.000 C 
ATOM     13  C   UNL     1      37.712 -23.580 -15.039  0.00  0.00    +0.027 C 
ATOM     14  C   UNL     1      30.318 -23.678 -14.044  0.00  0.00    +0.002 C 
ATOM     15  C   UNL     1      29.716 -22.812 -16.809  0.00  0.00    +0.029 C 
ATOM     16  C   UNL     1      35.727 -25.901 -14.521  0.00  0.00    +0.002 C 
ATOM     17  C   UNL     1      31.235 -25.313 -15.724  0.00  0.00    +0.000 C 
ATOM     18  C   UNL     1      28.882 -23.660 -14.572  0.00  0.00    +0.029 C 
ATOM     19  C   UNL     1      28.686 -22.645 -15.694  0.00  0.00    +0.111 C 
ATOM     20  C   UNL     1      37.220 -22.782 -12.679  0.00  0.00    +0.029 C 
ENDROOT
BRANCH   7  21
ATOM     21  O   UNL     1      37.891 -25.024 -13.082  0.00  0.00    -0.387 OA
ATOM     22  H   UNL     1      38.630 -24.653 -12.574  0.00  0.00    +0.210 HD
ENDBRANCH   7  21
BRANCH  19  23
ATOM     23  O   UNL     1      27.385 -22.792 -16.251  0.00  0.00    -0.384 OA
ATOM     24  H   UNL     1      26.838 -23.333 -15.658  0.00  0.00    +0.210 HD
ENDBRANCH  19  23
TORSDOF 2
ENDMDL
MODEL 5
REMARK VINA RESULT:      -7.1     10.288     12.773
REMARK  Name = 101819
REMARK  2 active torsions:
REMARK  status: ('A' for Active; 'I' for Inactive)
REMARK    1  A    between atoms: C_7  and  O_21
REMARK    2  A    between atoms: C_19  and  O_23
REMARK                            x       y       z     vdW  Elec       q    Type
REMARK                         _______ _______ _______ _____ _____    ______ ____
ROOT
ATOM      1  C   UNL     1      34.118 -16.811 -23.548  0.00  0.00    +0.000 C 
ATOM      2  C   UNL     1      34.934 -17.951 -22.921  0.00  0.00    +0.002 C 
ATOM      3  C   UNL     1      34.495 -15.472 -22.833  0.00  0.00    +0.000 C 
ATOM      4  C   UNL     1      34.682 -18.114 -21.407  0.00  0.00    +0.023 C 
ATOM      5  C   UNL     1      33.736 -14.241 -23.455  0.00  0.00    +0.000 C 
ATOM      6  C   UNL     1      34.062 -14.216 -24.983  0.00  0.00    +0.002 C 
ATOM      7  C   UNL     1      35.534 -19.388 -21.110  0.00  0.00    +0.088 C 
ATOM      8  C   UNL     1      34.378 -15.584 -21.290  0.00  0.00    +0.000 C 
ATOM      9  C   UNL     1      35.114 -16.810 -20.715  0.00  0.00    +0.002 C 
ATOM     10  C   UNL     1      34.355 -16.719 -25.063  0.00  0.00    +0.000 C 
ATOM     11  C   UNL     1      34.749 -19.363 -23.468  0.00  0.00    +0.002 C 
ATOM     12  C   UNL     1      33.657 -15.514 -25.690  0.00  0.00    +0.000 C 
ATOM     13  C   UNL     1      35.278 -20.284 -22.352  0.00  0.00    +0.027 C 
ATOM     14  C   UNL     1      34.254 -12.909 -22.840  0.00  0.00    +0.002 C 
ATOM     15  C   UNL     1      33.484 -12.987 -25.696  0.00  0.00    +0.029 C 
ATOM     16  C   UNL     1      33.193 -18.397 -21.053  0.00  0.00    +0.002 C 
ATOM     17  C   UNL     1      32.212 -14.341 -23.188  0.00  0.00    +0.000 C 
ATOM     18  C   UNL     1      33.726 -11.661 -23.550  0.00  0.00    +0.029 C 
ATOM     19  C   UNL     1      33.982 -11.694 -25.054  0.00  0.00    +0.111 C 
ATOM     20  C   UNL     1      37.037 -19.144 -20.918  0.00  0.00    +0.029 C 
ENDROOT
BRANCH   7  21
ATOM     21  O   UNL     1      35.074 -20.048 -19.933  0.00  0.00    -0.387 OA
ATOM     22  H   UNL     1      35.731 -20.707 -19.655  0.00  0.00    +0.210 HD
ENDBRANCH   7  21
BRANCH  19  23
ATOM     23  O   UNL     1      33.325 -10.595 -25.675  0.00  0.00    -0.384 OA
ATOM     24  H   UNL     1      32.367 -10.672 -25.540  0.00  0.00    +0.210 HD
ENDBRANCH  19  23
TORSDOF 2
ENDMDL
MODEL 6
REMARK VINA RESULT:      -6.4     13.198     15.422
REMARK  Name = 101819
REMARK  2 active torsions:
REMARK  status: ('A' for Active; 'I' for Inactive)
REMARK    1  A    between atoms: C_7  and  O_21
REMARK    2  A    between atoms: C_19  and  O_23
REMARK                            x       y       z     vdW  Elec       q    Type
REMARK                         _______ _______ _______ _____ _____    ______ ____
ROOT
ATOM      1  C   UNL     1      32.376 -11.219 -22.136  0.00  0.00    +0.000 C 
ATOM      2  C   UNL     1      32.755  -9.732 -22.178  0.00  0.00    +0.002 C 
ATOM      3  C   UNL     1      33.547 -12.053 -22.750  0.00  0.00    +0.000 C 
ATOM      4  C   UNL     1      33.028  -9.217 -23.607  0.00  0.00    +0.023 C 
ATOM      5  C   UNL     1      33.258 -13.600 -22.697  0.00  0.00    +0.000 C 
ATOM      6  C   UNL     1      32.978 -13.971 -21.206  0.00  0.00    +0.002 C 
ATOM      7  C   UNL     1      33.255  -7.698 -23.327  0.00  0.00    +0.088 C 
ATOM      8  C   UNL     1      33.964 -11.527 -24.149  0.00  0.00    +0.000 C 
ATOM      9  C   UNL     1      34.220 -10.007 -24.172  0.00  0.00    +0.002 C 
ATOM     10  C   UNL     1      32.058 -11.677 -20.704  0.00  0.00    +0.000 C 
ATOM     11  C   UNL     1      31.768  -8.715 -21.614  0.00  0.00    +0.002 C 
ATOM     12  C   UNL     1      31.805 -13.181 -20.616  0.00  0.00    +0.000 C 
ATOM     13  C   UNL     1      32.190  -7.374 -22.244  0.00  0.00    +0.027 C 
ATOM     14  C   UNL     1      34.505 -14.408 -23.158  0.00  0.00    +0.002 C 
ATOM     15  C   UNL     1      32.801 -15.479 -20.990  0.00  0.00    +0.029 C 
ATOM     16  C   UNL     1      31.816  -9.387 -24.570  0.00  0.00    +0.002 C 
ATOM     17  C   UNL     1      32.069 -13.970 -23.621  0.00  0.00    +0.000 C 
ATOM     18  C   UNL     1      34.379 -15.914 -22.924  0.00  0.00    +0.029 C 
ATOM     19  C   UNL     1      34.024 -16.251 -21.478  0.00  0.00    +0.111 C 
ATOM     20  C   UNL     1      34.659  -7.324 -22.833  0.00  0.00    +0.029 C 
ENDROOT
BRANCH   7  21
ATOM     21  O   UNL     1      33.012  -6.919 -24.495  0.00  0.00    -0.387 OA
ATOM     22  H   UNL     1      33.850  -6.758 -24.956  0.00  0.00    +0.210 HD
ENDBRANCH   7  21
BRANCH  19  23
ATOM     23  O   UNL     1      33.759 -17.645 -21.364  0.00  0.00    -0.384 OA
ATOM     24  H   UNL     1      34.511 -18.084 -20.934  0.00  0.00    +0.210 HD
ENDBRANCH  19  23
TORSDOF 2
ENDMDL
MODEL 7
REMARK VINA RESULT:      -6.4      1.190      6.855
REMARK  Name = 101819
REMARK  2 active torsions:
REMARK  status: ('A' for Active; 'I' for Inactive)
REMARK    1  A    between atoms: C_7  and  O_21
REMARK    2  A    between atoms: C_19  and  O_23
REMARK                            x       y       z     vdW  Elec       q    Type
REMARK                         _______ _______ _______ _____ _____    ______ ____
ROOT
ATOM      1  C   UNL     1      33.773 -24.329 -13.798  0.00  0.00    +0.000 C 
ATOM      2  C   UNL     1      35.179 -24.945 -13.838  0.00  0.00    +0.002 C 
ATOM      3  C   UNL     1      33.347 -23.954 -15.255  0.00  0.00    +0.000 C 
ATOM      4  C   UNL     1      36.240 -23.995 -14.432  0.00  0.00    +0.023 C 
ATOM      5  C   UNL     1      31.890 -23.361 -15.307  0.00  0.00    +0.000 C 
ATOM      6  C   UNL     1      30.935 -24.412 -14.655  0.00  0.00    +0.002 C 
ATOM      7  C   UNL     1      37.534 -24.843 -14.223  0.00  0.00    +0.088 C 
ATOM      8  C   UNL     1      34.418 -23.088 -15.969  0.00  0.00    +0.000 C 
ATOM      9  C   UNL     1      35.836 -23.686 -15.883  0.00  0.00    +0.002 C 
ATOM     10  C   UNL     1      32.760 -25.284 -13.150  0.00  0.00    +0.000 C 
ATOM     11  C   UNL     1      35.807 -25.408 -12.527  0.00  0.00    +0.002 C 
ATOM     12  C   UNL     1      31.331 -24.749 -13.214  0.00  0.00    +0.000 C 
ATOM     13  C   UNL     1      37.316 -25.484 -12.826  0.00  0.00    +0.027 C 
ATOM     14  C   UNL     1      31.433 -23.156 -16.779  0.00  0.00    +0.002 C 
ATOM     15  C   UNL     1      29.457 -24.014 -14.751  0.00  0.00    +0.029 C 
ATOM     16  C   UNL     1      36.374 -22.652 -13.655  0.00  0.00    +0.002 C 
ATOM     17  C   UNL     1      31.827 -21.991 -14.582  0.00  0.00    +0.000 C 
ATOM     18  C   UNL     1      29.952 -22.794 -16.915  0.00  0.00    +0.029 C 
ATOM     19  C   UNL     1      29.041 -23.789 -16.202  0.00  0.00    +0.111 C 
ATOM     20  C   UNL     1      37.790 -25.924 -15.282  0.00  0.00    +0.029 C 
ENDROOT
BRANCH   7  21
ATOM     21  O   UNL     1      38.693 -24.012 -14.200  0.00  0.00    -0.387 OA
ATOM     22  H   UNL     1      38.911 -23.738 -15.105  0.00  0.00    +0.210 HD
ENDBRANCH   7  21
BRANCH  19  23
ATOM     23  O   UNL     1      27.701 -23.309 -16.223  0.00  0.00    -0.384 OA
ATOM     24  H   UNL     1      27.579 -22.656 -15.515  0.00  0.00    +0.210 HD
ENDBRANCH  19  23
TORSDOF 2
ENDMDL
MODEL 8
REMARK VINA RESULT:      -6.2      3.500      5.784
REMARK  Name = 101819
REMARK  2 active torsions:
REMARK  status: ('A' for Active; 'I' for Inactive)
REMARK    1  A    between atoms: C_7  and  O_21
REMARK    2  A    between atoms: C_19  and  O_23
REMARK                            x       y       z     vdW  Elec       q    Type
REMARK                         _______ _______ _______ _____ _____    ______ ____
ROOT
ATOM      1  C   UNL     1      35.086 -22.882 -16.712  0.00  0.00    +0.000 C 
ATOM      2  C   UNL     1      34.694 -23.090 -15.242  0.00  0.00    +0.002 C 
ATOM      3  C   UNL     1      33.904 -22.177 -17.453  0.00  0.00    +0.000 C 
ATOM      4  C   UNL     1      33.424 -23.950 -15.070  0.00  0.00    +0.023 C 
ATOM      5  C   UNL     1      34.248 -21.880 -18.960  0.00  0.00    +0.000 C 
ATOM      6  C   UNL     1      35.559 -21.030 -18.980  0.00  0.00    +0.002 C 
ATOM      7  C   UNL     1      33.367 -24.072 -13.516  0.00  0.00    +0.088 C 
ATOM      8  C   UNL     1      32.558 -22.918 -17.237  0.00  0.00    +0.000 C 
ATOM      9  C   UNL     1      32.260 -23.212 -15.754  0.00  0.00    +0.002 C 
ATOM     10  C   UNL     1      36.385 -22.070 -16.836  0.00  0.00    +0.000 C 
ATOM     11  C   UNL     1      35.701 -23.751 -14.307  0.00  0.00    +0.002 C 
ATOM     12  C   UNL     1      36.728 -21.739 -18.287  0.00  0.00    +0.000 C 
ATOM     13  C   UNL     1      34.859 -24.253 -13.120  0.00  0.00    +0.027 C 
ATOM     14  C   UNL     1      33.126 -21.032 -19.623  0.00  0.00    +0.002 C 
ATOM     15  C   UNL     1      35.945 -20.562 -20.389  0.00  0.00    +0.029 C 
ATOM     16  C   UNL     1      33.548 -25.371 -15.695  0.00  0.00    +0.002 C 
ATOM     17  C   UNL     1      34.400 -23.200 -19.760  0.00  0.00    +0.000 C 
ATOM     18  C   UNL     1      33.490 -20.517 -21.017  0.00  0.00    +0.029 C 
ATOM     19  C   UNL     1      34.815 -19.759 -21.030  0.00  0.00    +0.111 C 
ATOM     20  C   UNL     1      32.754 -22.872 -12.783  0.00  0.00    +0.029 C 
ENDROOT
BRANCH   7  21
ATOM     21  O   UNL     1      32.618 -25.218 -13.119  0.00  0.00    -0.387 OA
ATOM     22  H   UNL     1      31.672 -25.049 -13.254  0.00  0.00    +0.210 HD
ENDBRANCH   7  21
BRANCH  19  23
ATOM     23  O   UNL     1      35.178 -19.453 -22.371  0.00  0.00    -0.384 OA
ATOM     24  H   UNL     1      35.869 -18.771 -22.372  0.00  0.00    +0.210 HD
ENDBRANCH  19  23
TORSDOF 2
ENDMDL
