MODEL 1
REMARK VINA RESULT:      -6.7      0.000      0.000
REMARK  Name = 93072
REMARK  6 active torsions:
REMARK  status: ('A' for Active; 'I' for Inactive)
REMARK    1  A    between atoms: CA_1  and  N_3
REMARK    2  A    between atoms: CA_1  and  C_10
REMARK    3  A    between atoms: CA_1  and  CB_13
REMARK    4  A    between atoms: C_10  and  O_11
REMARK    5  A    between atoms: CB_13  and  CG_15
REMARK    6  A    between atoms: CG_15  and  OD1_16
REMARK                            x       y       z     vdW  Elec       q    Type
REMARK                         _______ _______ _______ _____ _____    ______ ____
ROOT
ATOM      1  CA  UNL     1      38.791 -25.415 -14.427  0.00  0.00    +0.184 C 
ENDROOT
BRANCH   1   3
ATOM      2  O   UNL     1      37.551 -22.806 -14.174  0.00  0.00    -0.253 OA
ATOM      3  N   UNL     1      38.302 -24.570 -15.490  0.00  0.00    -0.281 N 
ATOM      4  N   UNL     1      37.336 -22.723 -16.457  0.00  0.00    -0.313 N 
ATOM      5  C   ACE A   0      37.720 -23.328 -15.275  0.00  0.00    +0.298 C 
ATOM      6  H   UNL     1      38.387 -24.892 -16.417  0.00  0.00    +0.151 HD
ATOM      7  H   UNL     1      36.910 -21.836 -16.442  0.00  0.00    +0.146 HD
ATOM      8  H   UNL     1      37.491 -23.180 -17.316  0.00  0.00    +0.146 HD
ENDBRANCH   1   3
BRANCH   1  10
ATOM      9  OXT UNL     1      40.925 -26.456 -13.933  0.00  0.00    -0.248 OA
ATOM     10  C   UNL     1      40.155 -25.995 -14.766  0.00  0.00    +0.332 C 
BRANCH  10  11
ATOM     11  O   UNL     1      40.444 -25.951 -16.089  0.00  0.00    -0.479 OA
ATOM     12  H   UNL     1      39.801 -25.649 -16.699  0.00  0.00    +0.295 HD
ENDBRANCH  10  11
ENDBRANCH   1  10
BRANCH   1  13
ATOM     13  CB  UNL     1      37.801 -26.541 -14.118  0.00  0.00    +0.140 C 
BRANCH  13  15
ATOM     14  OD2 UNL     1      36.866 -27.339 -16.224  0.00  0.00    -0.250 OA
ATOM     15  CG  UNL     1      36.742 -26.702 -15.187  0.00  0.00    +0.316 C 
BRANCH  15  16
ATOM     16  OD1 UNL     1      35.602 -26.037 -14.859  0.00  0.00    -0.480 OA
ATOM     17  HD1 UNL     1      34.831 -26.516 -14.630  0.00  0.00    +0.295 HD
ENDBRANCH  15  16
ENDBRANCH  13  15
ENDBRANCH   1  13
TORSDOF 6
ENDMDL
MODEL 2
REMARK VINA RESULT:      -6.5      2.106      2.457
REMARK  Name = 93072
REMARK  6 active torsions:
REMARK  status: ('A' for Active; 'I' for Inactive)
REMARK    1  A    between atoms: CA_1  and  N_3
REMARK    2  A    between atoms: CA_1  and  C_10
REMARK    3  A    between atoms: CA_1  and  CB_13
REMARK    4  A    between atoms: C_10  and  O_11
REMARK    5  A    between atoms: CB_13  and  CG_15
REMARK    6  A    between atoms: CG_15  and  OD1_16
REMARK                            x       y       z     vdW  Elec       q    Type
REMARK                         _______ _______ _______ _____ _____    ______ ____
ROOT
ATOM      1  CA  UNL     1      38.776 -25.571 -14.153  0.00  0.00    +0.184 C 
ENDROOT
BRANCH   1   3
ATOM      2  O   UNL     1      37.122 -25.926 -11.798  0.00  0.00    -0.253 OA
ATOM      3  N   UNL     1      38.500 -24.600 -13.121  0.00  0.00    -0.281 N 
ATOM      4  N   UNL     1      37.589 -23.765 -11.184  0.00  0.00    -0.313 N 
ATOM      5  C   ACE A   0      37.691 -24.860 -12.022  0.00  0.00    +0.298 C 
ATOM      6  H   UNL     1      38.907 -23.708 -13.201  0.00  0.00    +0.151 HD
ATOM      7  H   UNL     1      37.043 -23.819 -10.367  0.00  0.00    +0.146 HD
ATOM      8  H   UNL     1      38.063 -22.930 -11.404  0.00  0.00    +0.146 HD
ENDBRANCH   1   3
BRANCH   1  10
ATOM      9  OXT UNL     1      41.028 -24.679 -14.246  0.00  0.00    -0.248 OA
ATOM     10  C   UNL     1      40.146 -25.345 -14.771  0.00  0.00    +0.332 C 
BRANCH  10  11
ATOM     11  O   UNL     1      40.300 -25.953 -15.973  0.00  0.00    -0.479 OA
ATOM     12  H   UNL     1      41.054 -26.484 -16.136  0.00  0.00    +0.295 HD
ENDBRANCH  10  11
ENDBRANCH   1  10
BRANCH   1  13
ATOM     13  CB  UNL     1      37.696 -25.542 -15.239  0.00  0.00    +0.140 C 
BRANCH  13  15
ATOM     14  OD2 UNL     1      36.607 -27.420 -16.350  0.00  0.00    -0.250 OA
ATOM     15  CG  UNL     1      36.911 -26.834 -15.320  0.00  0.00    +0.316 C 
BRANCH  15  16
ATOM     16  OD1 UNL     1      36.567 -27.284 -14.084  0.00  0.00    -0.480 OA
ATOM     17  HD1 UNL     1      36.805 -28.149 -13.818  0.00  0.00    +0.295 HD
ENDBRANCH  15  16
ENDBRANCH  13  15
ENDBRANCH   1  13
TORSDOF 6
ENDMDL
MODEL 3
REMARK VINA RESULT:      -6.4      2.296      3.528
REMARK  Name = 93072
REMARK  6 active torsions:
REMARK  status: ('A' for Active; 'I' for Inactive)
REMARK    1  A    between atoms: CA_1  and  N_3
REMARK    2  A    between atoms: CA_1  and  C_10
REMARK    3  A    between atoms: CA_1  and  CB_13
REMARK    4  A    between atoms: C_10  and  O_11
REMARK    5  A    between atoms: CB_13  and  CG_15
REMARK    6  A    between atoms: CG_15  and  OD1_16
REMARK                            x       y       z     vdW  Elec       q    Type
REMARK                         _______ _______ _______ _____ _____    ______ ____
ROOT
ATOM      1  CA  UNL     1      38.300 -24.645 -13.519  0.00  0.00    +0.184 C 
ENDROOT
BRANCH   1   3
ATOM      2  O   UNL     1      40.961 -24.707 -14.670  0.00  0.00    -0.253 OA
ATOM      3  N   UNL     1      39.174 -25.787 -13.644  0.00  0.00    -0.281 N 
ATOM      4  N   UNL     1      41.070 -26.954 -14.213  0.00  0.00    -0.313 N 
ATOM      5  C   ACE A   0      40.440 -25.723 -14.213  0.00  0.00    +0.298 C 
ATOM      6  H   UNL     1      38.856 -26.656 -13.310  0.00  0.00    +0.151 HD
ATOM      7  H   UNL     1      41.976 -27.043 -14.589  0.00  0.00    +0.146 HD
ATOM      8  H   UNL     1      40.614 -27.741 -13.836  0.00  0.00    +0.146 HD
ENDBRANCH   1   3
BRANCH   1  10
ATOM      9  OXT UNL     1      37.414 -24.912 -11.278  0.00  0.00    -0.248 OA
ATOM     10  C   UNL     1      38.096 -24.265 -12.062  0.00  0.00    +0.332 C 
BRANCH  10  11
ATOM     11  O   UNL     1      38.742 -23.127 -11.707  0.00  0.00    -0.479 OA
ATOM     12  H   UNL     1      38.259 -22.334 -11.583  0.00  0.00    +0.295 HD
ENDBRANCH  10  11
ENDBRANCH   1  10
BRANCH   1  13
ATOM     13  CB  UNL     1      36.950 -24.908 -14.190  0.00  0.00    +0.140 C 
BRANCH  13  15
ATOM     14  OD2 UNL     1      36.614 -26.817 -15.670  0.00  0.00    -0.250 OA
ATOM     15  CG  UNL     1      36.742 -26.366 -14.540  0.00  0.00    +0.316 C 
BRANCH  15  16
ATOM     16  OD1 UNL     1      36.710 -27.144 -13.426  0.00  0.00    -0.480 OA
ATOM     17  HD1 UNL     1      36.964 -26.787 -12.598  0.00  0.00    +0.295 HD
ENDBRANCH  15  16
ENDBRANCH  13  15
ENDBRANCH   1  13
TORSDOF 6
ENDMDL
MODEL 4
REMARK VINA RESULT:      -6.4      1.570      3.272
REMARK  Name = 93072
REMARK  6 active torsions:
REMARK  status: ('A' for Active; 'I' for Inactive)
REMARK    1  A    between atoms: CA_1  and  N_3
REMARK    2  A    between atoms: CA_1  and  C_10
REMARK    3  A    between atoms: CA_1  and  CB_13
REMARK    4  A    between atoms: C_10  and  O_11
REMARK    5  A    between atoms: CB_13  and  CG_15
REMARK    6  A    between atoms: CG_15  and  OD1_16
REMARK                            x       y       z     vdW  Elec       q    Type
REMARK                         _______ _______ _______ _____ _____    ______ ____
ROOT
ATOM      1  CA  UNL     1      37.937 -25.240 -14.808  0.00  0.00    +0.184 C 
ENDROOT
BRANCH   1   3
ATOM      2  O   UNL     1      35.571 -24.209 -16.130  0.00  0.00    -0.253 OA
ATOM      3  N   UNL     1      37.015 -24.249 -14.307  0.00  0.00    -0.281 N 
ATOM      4  N   UNL     1      35.184 -22.861 -14.314  0.00  0.00    -0.313 N 
ATOM      5  C   ACE A   0      35.901 -23.813 -15.014  0.00  0.00    +0.298 C 
ATOM      6  H   UNL     1      37.185 -23.862 -13.418  0.00  0.00    +0.151 HD
ATOM      7  H   UNL     1      34.370 -22.471 -14.706  0.00  0.00    +0.146 HD
ATOM      8  H   UNL     1      35.487 -22.574 -13.422  0.00  0.00    +0.146 HD
ENDBRANCH   1   3
BRANCH   1  10
ATOM      9  OXT UNL     1      37.205 -27.315 -13.791  0.00  0.00    -0.248 OA
ATOM     10  C   UNL     1      37.316 -26.627 -14.797  0.00  0.00    +0.332 C 
BRANCH  10  11
ATOM     11  O   UNL     1      36.897 -27.038 -16.019  0.00  0.00    -0.479 OA
ATOM     12  H   UNL     1      37.478 -27.513 -16.578  0.00  0.00    +0.295 HD
ENDBRANCH  10  11
ENDBRANCH   1  10
BRANCH   1  13
ATOM     13  CB  UNL     1      39.239 -25.238 -14.003  0.00  0.00    +0.140 C 
BRANCH  13  15
ATOM     14  OD2 UNL     1      41.193 -26.691 -14.148  0.00  0.00    -0.250 OA
ATOM     15  CG  UNL     1      40.360 -25.983 -14.697  0.00  0.00    +0.316 C 
BRANCH  15  16
ATOM     16  OD1 UNL     1      40.340 -25.768 -16.039  0.00  0.00    -0.480 OA
ATOM     17  HD1 UNL     1      39.731 -25.160 -16.407  0.00  0.00    +0.295 HD
ENDBRANCH  15  16
ENDBRANCH  13  15
ENDBRANCH   1  13
TORSDOF 6
ENDMDL
MODEL 5
REMARK VINA RESULT:      -6.3      2.306      3.926
REMARK  Name = 93072
REMARK  6 active torsions:
REMARK  status: ('A' for Active; 'I' for Inactive)
REMARK    1  A    between atoms: CA_1  and  N_3
REMARK    2  A    between atoms: CA_1  and  C_10
REMARK    3  A    between atoms: CA_1  and  CB_13
REMARK    4  A    between atoms: C_10  and  O_11
REMARK    5  A    between atoms: CB_13  and  CG_15
REMARK    6  A    between atoms: CG_15  and  OD1_16
REMARK                            x       y       z     vdW  Elec       q    Type
REMARK                         _______ _______ _______ _____ _____    ______ ____
ROOT
ATOM      1  CA  UNL     1      37.879 -24.781 -14.035  0.00  0.00    +0.184 C 
ENDROOT
BRANCH   1   3
ATOM      2  O   UNL     1      38.502 -22.830 -11.982  0.00  0.00    -0.253 OA
ATOM      3  N   UNL     1      37.223 -24.610 -12.760  0.00  0.00    -0.281 N 
ATOM      4  N   UNL     1      36.806 -23.689 -10.697  0.00  0.00    -0.313 N 
ATOM      5  C   ACE A   0      37.590 -23.642 -11.834  0.00  0.00    +0.298 C 
ATOM      6  H   UNL     1      36.475 -25.210 -12.537  0.00  0.00    +0.151 HD
ATOM      7  H   UNL     1      36.965 -23.054  -9.962  0.00  0.00    +0.146 HD
ATOM      8  H   UNL     1      36.087 -24.358 -10.622  0.00  0.00    +0.146 HD
ENDBRANCH   1   3
BRANCH   1  10
ATOM      9  OXT UNL     1      35.877 -24.631 -15.396  0.00  0.00    -0.248 OA
ATOM     10  C   UNL     1      36.899 -25.239 -15.102  0.00  0.00    +0.332 C 
BRANCH  10  11
ATOM     11  O   UNL     1      37.262 -26.399 -15.704  0.00  0.00    -0.479 OA
ATOM     12  H   UNL     1      36.696 -26.797 -16.334  0.00  0.00    +0.295 HD
ENDBRANCH  10  11
ENDBRANCH   1  10
BRANCH   1  13
ATOM     13  CB  UNL     1      39.042 -25.771 -13.927  0.00  0.00    +0.140 C 
BRANCH  13  15
ATOM     14  OD2 UNL     1      41.084 -24.492 -14.302  0.00  0.00    -0.250 OA
ATOM     15  CG  UNL     1      40.270 -25.319 -14.688  0.00  0.00    +0.316 C 
BRANCH  15  16
ATOM     16  OD1 UNL     1      40.370 -25.953 -15.887  0.00  0.00    -0.480 OA
ATOM     17  HD1 UNL     1      40.983 -26.652 -15.997  0.00  0.00    +0.295 HD
ENDBRANCH  15  16
ENDBRANCH  13  15
ENDBRANCH   1  13
TORSDOF 6
ENDMDL
MODEL 6
REMARK VINA RESULT:      -6.0      2.116      3.018
REMARK  Name = 93072
REMARK  6 active torsions:
REMARK  status: ('A' for Active; 'I' for Inactive)
REMARK    1  A    between atoms: CA_1  and  N_3
REMARK    2  A    between atoms: CA_1  and  C_10
REMARK    3  A    between atoms: CA_1  and  CB_13
REMARK    4  A    between atoms: C_10  and  O_11
REMARK    5  A    between atoms: CB_13  and  CG_15
REMARK    6  A    between atoms: CG_15  and  OD1_16
REMARK                            x       y       z     vdW  Elec       q    Type
REMARK                         _______ _______ _______ _____ _____    ______ ____
ROOT
ATOM      1  CA  UNL     1      37.015 -24.553 -12.982  0.00  0.00    +0.184 C 
ENDROOT
BRANCH   1   3
ATOM      2  O   UNL     1      35.912 -22.787 -15.001  0.00  0.00    -0.253 OA
ATOM      3  N   UNL     1      37.667 -24.073 -14.178  0.00  0.00    -0.281 N 
ATOM      4  N   UNL     1      37.895 -22.915 -16.150  0.00  0.00    -0.313 N 
ATOM      5  C   ACE A   0      37.058 -23.224 -15.094  0.00  0.00    +0.298 C 
ATOM      6  H   UNL     1      38.591 -24.363 -14.353  0.00  0.00    +0.151 HD
ATOM      7  H   UNL     1      37.581 -22.320 -16.869  0.00  0.00    +0.146 HD
ATOM      8  H   UNL     1      38.805 -23.290 -16.182  0.00  0.00    +0.146 HD
ENDBRANCH   1   3
BRANCH   1  10
ATOM      9  OXT UNL     1      38.597 -23.204 -11.733  0.00  0.00    -0.248 OA
ATOM     10  C   UNL     1      37.574 -23.876 -11.741  0.00  0.00    +0.332 C 
BRANCH  10  11
ATOM     11  O   UNL     1      36.827 -24.092 -10.630  0.00  0.00    -0.479 OA
ATOM     12  H   UNL     1      36.075 -23.561 -10.461  0.00  0.00    +0.295 HD
ENDBRANCH  10  11
ENDBRANCH   1  10
BRANCH   1  13
ATOM     13  CB  UNL     1      37.143 -26.073 -12.857  0.00  0.00    +0.140 C 
BRANCH  13  15
ATOM     14  OD2 UNL     1      38.355 -27.186 -14.658  0.00  0.00    -0.250 OA
ATOM     15  CG  UNL     1      37.305 -26.761 -14.196  0.00  0.00    +0.316 C 
BRANCH  15  16
ATOM     16  OD1 UNL     1      36.117 -26.856 -14.850  0.00  0.00    -0.480 OA
ATOM     17  HD1 UNL     1      35.355 -27.155 -14.396  0.00  0.00    +0.295 HD
ENDBRANCH  15  16
ENDBRANCH  13  15
ENDBRANCH   1  13
TORSDOF 6
ENDMDL
MODEL 7
REMARK VINA RESULT:      -6.0      2.102      2.902
REMARK  Name = 93072
REMARK  6 active torsions:
REMARK  status: ('A' for Active; 'I' for Inactive)
REMARK    1  A    between atoms: CA_1  and  N_3
REMARK    2  A    between atoms: CA_1  and  C_10
REMARK    3  A    between atoms: CA_1  and  CB_13
REMARK    4  A    between atoms: C_10  and  O_11
REMARK    5  A    between atoms: CB_13  and  CG_15
REMARK    6  A    between atoms: CG_15  and  OD1_16
REMARK                            x       y       z     vdW  Elec       q    Type
REMARK                         _______ _______ _______ _____ _____    ______ ____
ROOT
ATOM      1  CA  UNL     1      38.729 -25.927 -14.099  0.00  0.00    +0.184 C 
ENDROOT
BRANCH   1   3
ATOM      2  O   UNL     1      36.922 -25.802 -11.835  0.00  0.00    -0.253 OA
ATOM      3  N   UNL     1      38.641 -24.884 -13.104  0.00  0.00    -0.281 N 
ATOM      4  N   UNL     1      37.857 -23.793 -11.240  0.00  0.00    -0.313 N 
ATOM      5  C   ACE A   0      37.739 -24.909 -12.048  0.00  0.00    +0.298 C 
ATOM      6  H   UNL     1      39.251 -24.116 -13.179  0.00  0.00    +0.151 HD
ATOM      7  H   UNL     1      37.274 -23.689 -10.454  0.00  0.00    +0.146 HD
ATOM      8  H   UNL     1      38.526 -23.102 -11.450  0.00  0.00    +0.146 HD
ENDBRANCH   1   3
BRANCH   1  10
ATOM      9  OXT UNL     1      41.084 -26.477 -13.920  0.00  0.00    -0.248 OA
ATOM     10  C   UNL     1      40.152 -26.083 -14.609  0.00  0.00    +0.332 C 
BRANCH  10  11
ATOM     11  O   UNL     1      40.297 -25.737 -15.912  0.00  0.00    -0.479 OA
ATOM     12  H   UNL     1      40.728 -24.938 -16.139  0.00  0.00    +0.295 HD
ENDBRANCH  10  11
ENDBRANCH   1  10
BRANCH   1  13
ATOM     13  CB  UNL     1      37.776 -25.658 -15.266  0.00  0.00    +0.140 C 
BRANCH  13  15
ATOM     14  OD2 UNL     1      36.222 -23.795 -15.021  0.00  0.00    -0.250 OA
ATOM     15  CG  UNL     1      37.327 -24.214 -15.337  0.00  0.00    +0.316 C 
BRANCH  15  16
ATOM     16  OD1 UNL     1      38.317 -23.409 -15.806  0.00  0.00    -0.480 OA
ATOM     17  HD1 UNL     1      38.942 -23.744 -16.417  0.00  0.00    +0.295 HD
ENDBRANCH  15  16
ENDBRANCH  13  15
ENDBRANCH   1  13
TORSDOF 6
ENDMDL
MODEL 8
REMARK VINA RESULT:      -5.6     11.297     12.918
REMARK  Name = 93072
REMARK  6 active torsions:
REMARK  status: ('A' for Active; 'I' for Inactive)
REMARK    1  A    between atoms: CA_1  and  N_3
REMARK    2  A    between atoms: CA_1  and  C_10
REMARK    3  A    between atoms: CA_1  and  CB_13
REMARK    4  A    between atoms: C_10  and  O_11
REMARK    5  A    between atoms: CB_13  and  CG_15
REMARK    6  A    between atoms: CG_15  and  OD1_16
REMARK                            x       y       z     vdW  Elec       q    Type
REMARK                         _______ _______ _______ _____ _____    ______ ____
ROOT
ATOM      1  CA  UNL     1      34.484 -16.446 -22.562  0.00  0.00    +0.184 C 
ENDROOT
BRANCH   1   3
ATOM      2  O   UNL     1      32.546 -14.294 -22.697  0.00  0.00    -0.253 OA
ATOM      3  N   UNL     1      34.686 -15.117 -23.087  0.00  0.00    -0.281 N 
ATOM      4  N   UNL     1      34.143 -12.960 -23.664  0.00  0.00    -0.313 N 
ATOM      5  C   ACE A   0      33.694 -14.144 -23.110  0.00  0.00    +0.298 C 
ATOM      6  H   UNL     1      35.573 -14.888 -23.446  0.00  0.00    +0.151 HD
ATOM      7  H   UNL     1      33.535 -12.189 -23.738  0.00  0.00    +0.146 HD
ATOM      8  H   UNL     1      35.072 -12.886 -23.982  0.00  0.00    +0.146 HD
ENDBRANCH   1   3
BRANCH   1  10
ATOM      9  OXT UNL     1      34.866 -15.607 -20.320  0.00  0.00    -0.248 OA
ATOM     10  C   UNL     1      34.925 -16.540 -21.111  0.00  0.00    +0.332 C 
BRANCH  10  11
ATOM     11  O   UNL     1      35.398 -17.763 -20.770  0.00  0.00    -0.479 OA
ATOM     12  H   UNL     1      35.669 -17.932 -19.890  0.00  0.00    +0.295 HD
ENDBRANCH  10  11
ENDBRANCH   1  10
BRANCH   1  13
ATOM     13  CB  UNL     1      35.222 -17.489 -23.406  0.00  0.00    +0.140 C 
BRANCH  13  15
ATOM     14  OD2 UNL     1      34.843 -16.720 -25.689  0.00  0.00    -0.250 OA
ATOM     15  CG  UNL     1      34.701 -17.574 -24.824  0.00  0.00    +0.316 C 
BRANCH  15  16
ATOM     16  OD1 UNL     1      34.033 -18.739 -25.038  0.00  0.00    -0.480 OA
ATOM     17  HD1 UNL     1      34.504 -19.511 -25.278  0.00  0.00    +0.295 HD
ENDBRANCH  15  16
ENDBRANCH  13  15
ENDBRANCH   1  13
TORSDOF 6
ENDMDL
MODEL 9
REMARK VINA RESULT:      -5.6      1.854      2.367
REMARK  Name = 93072
REMARK  6 active torsions:
REMARK  status: ('A' for Active; 'I' for Inactive)
REMARK    1  A    between atoms: CA_1  and  N_3
REMARK    2  A    between atoms: CA_1  and  C_10
REMARK    3  A    between atoms: CA_1  and  CB_13
REMARK    4  A    between atoms: C_10  and  O_11
REMARK    5  A    between atoms: CB_13  and  CG_15
REMARK    6  A    between atoms: CG_15  and  OD1_16
REMARK                            x       y       z     vdW  Elec       q    Type
REMARK                         _______ _______ _______ _____ _____    ______ ____
ROOT
ATOM      1  CA  UNL     1      38.032 -24.668 -14.509  0.00  0.00    +0.184 C 
ENDROOT
BRANCH   1   3
ATOM      2  O   UNL     1      37.762 -22.120 -15.867  0.00  0.00    -0.253 OA
ATOM      3  N   UNL     1      36.867 -24.159 -15.194  0.00  0.00    -0.281 N 
ATOM      4  N   UNL     1      35.598 -22.671 -16.400  0.00  0.00    -0.313 N 
ATOM      5  C   ACE A   0      36.829 -22.919 -15.820  0.00  0.00    +0.298 C 
ATOM      6  H   UNL     1      36.059 -24.719 -15.217  0.00  0.00    +0.151 HD
ATOM      7  H   UNL     1      35.441 -21.824 -16.877  0.00  0.00    +0.146 HD
ATOM      8  H   UNL     1      34.879 -23.340 -16.336  0.00  0.00    +0.146 HD
ENDBRANCH   1   3
BRANCH   1  10
ATOM      9  OXT UNL     1      39.304 -26.732 -14.530  0.00  0.00    -0.248 OA
ATOM     10  C   UNL     1      38.325 -26.103 -14.911  0.00  0.00    +0.332 C 
BRANCH  10  11
ATOM     11  O   UNL     1      37.394 -26.629 -15.745  0.00  0.00    -0.479 OA
ATOM     12  H   UNL     1      37.626 -27.322 -16.329  0.00  0.00    +0.295 HD
ENDBRANCH  10  11
ENDBRANCH   1  10
BRANCH   1  13
ATOM     13  CB  UNL     1      37.865 -24.570 -12.990  0.00  0.00    +0.140 C 
BRANCH  13  15
ATOM     14  OD2 UNL     1      36.970 -26.463 -11.740  0.00  0.00    -0.250 OA
ATOM     15  CG  UNL     1      36.786 -25.489 -12.457  0.00  0.00    +0.316 C 
BRANCH  15  16
ATOM     16  OD1 UNL     1      35.553 -25.102 -12.878  0.00  0.00    -0.480 OA
ATOM     17  HD1 UNL     1      34.929 -24.775 -12.261  0.00  0.00    +0.295 HD
ENDBRANCH  15  16
ENDBRANCH  13  15
ENDBRANCH   1  13
TORSDOF 6
ENDMDL
