MODEL 1
REMARK VINA RESULT:     -10.9      0.000      0.000
REMARK  Name = 6540267
REMARK  6 active torsions:
REMARK  status: ('A' for Active; 'I' for Inactive)
REMARK    1  A    between atoms: N_1  and  C_24
REMARK    2  A    between atoms: C_2  and  C_12
REMARK    3  A    between atoms: N_11  and  C_15
REMARK    4  A    between atoms: N_14  and  C_21
REMARK    5  A    between atoms: C_24  and  C_25
REMARK    6  A    between atoms: C_28  and  O_31
REMARK                            x       y       z     vdW  Elec       q    Type
REMARK                         _______ _______ _______ _____ _____    ______ ____
ROOT
ATOM      1  N   UNL     1      32.709 -13.513 -23.233  0.00  0.00    -0.279 N 
ATOM      2  C   UNL     1      33.349 -14.525 -22.613  0.00  0.00    +0.106 C 
ATOM      3  C   UNL     1      32.170 -12.680 -22.280  0.00  0.00    +0.052 C 
ATOM      4  C   UNL     1      33.254 -14.396 -21.270  0.00  0.00    +0.021 C 
ATOM      5  C   UNL     1      32.497 -13.215 -21.032  0.00  0.00    +0.015 C 
ATOM      6  C   UNL     1      31.422 -11.505 -22.424  0.00  0.00    +0.015 C 
ATOM      7  C   UNL     1      32.060 -12.547 -19.871  0.00  0.00    +0.001 C 
ATOM      8  C   UNL     1      30.999 -10.859 -21.259  0.00  0.00    +0.001 C 
ATOM      9  C   UNL     1      31.312 -11.371 -20.001  0.00  0.00    +0.000 C 
ENDROOT
BRANCH   2  12
ATOM     10  O   UNL     1      34.057 -15.666 -24.565  0.00  0.00    -0.269 OA
ATOM     11  N   UNL     1      34.656 -16.566 -22.538  0.00  0.00    -0.302 N 
ATOM     12  C   UNL     1      34.041 -15.601 -23.334  0.00  0.00    +0.260 C 
ATOM     13  H   UNL     1      34.615 -16.470 -21.558  0.00  0.00    +0.150 HD
BRANCH  11  15
ATOM     14  N   UNL     1      35.232 -19.949 -21.210  0.00  0.00    +0.388 N 
ATOM     15  C   UNL     1      35.349 -17.702 -23.102  0.00  0.00    +0.068 C 
ATOM     16  C   UNL     1      36.539 -18.111 -22.232  0.00  0.00    -0.003 C 
ATOM     17  C   UNL     1      34.402 -18.889 -23.288  0.00  0.00    -0.003 C 
ATOM     18  C   UNL     1      36.097 -18.794 -20.933  0.00  0.00    -0.076 C 
ATOM     19  C   UNL     1      34.031 -19.546 -21.955  0.00  0.00    -0.076 C 
ATOM     20  H   UNL     1      35.757 -20.602 -21.791  0.00  0.00    -0.080 HD
BRANCH  14  21
ATOM     21  C   UNL     1      34.861 -20.620 -19.965  0.00  0.00    -0.058 C 
ATOM     22  C   UNL     1      33.364 -20.917 -19.975  0.00  0.00    -0.023 C 
ATOM     23  C   UNL     1      35.672 -21.901 -19.792  0.00  0.00    -0.023 C 
ENDBRANCH  14  21
ENDBRANCH  11  15
ENDBRANCH   2  12
BRANCH   1  24
ATOM     24  C   UNL     1      32.600 -13.317 -24.663  0.00  0.00    +0.122 C 
BRANCH  24  25
ATOM     25  C   UNL     1      33.584 -12.298 -25.143  0.00  0.00    +0.001 C 
ATOM     26  C   UNL     1      34.000 -11.281 -24.288  0.00  0.00    +0.034 C 
ATOM     27  C   UNL     1      34.079 -12.372 -26.443  0.00  0.00    -0.002 C 
ATOM     28  C   UNL     1      34.919 -10.330 -24.736  0.00  0.00    +0.138 C 
ATOM     29  C   UNL     1      34.996 -11.421 -26.890  0.00  0.00    +0.003 C 
ATOM     30  C   UNL     1      35.416 -10.400 -26.036  0.00  0.00    +0.037 C 
BRANCH  28  31
ATOM     31  O   UNL     1      35.327  -9.334 -23.904  0.00  0.00    -0.471 OA
ATOM     32  C   UNL     1      34.501  -8.173 -23.825  0.00  0.00    +0.252 C 
ENDBRANCH  28  31
ENDBRANCH  24  25
ENDBRANCH   1  24
TORSDOF 6
ENDMDL
MODEL 2
REMARK VINA RESULT:     -10.4      9.611     13.246
REMARK  Name = 6540267
REMARK  6 active torsions:
REMARK  status: ('A' for Active; 'I' for Inactive)
REMARK    1  A    between atoms: N_1  and  C_24
REMARK    2  A    between atoms: C_2  and  C_12
REMARK    3  A    between atoms: N_11  and  C_15
REMARK    4  A    between atoms: N_14  and  C_21
REMARK    5  A    between atoms: C_24  and  C_25
REMARK    6  A    between atoms: C_28  and  O_31
REMARK                            x       y       z     vdW  Elec       q    Type
REMARK                         _______ _______ _______ _____ _____    ______ ____
ROOT
ATOM      1  N   UNL     1      34.808 -22.803 -16.331  0.00  0.00    -0.279 N 
ATOM      2  C   UNL     1      33.560 -23.154 -16.699  0.00  0.00    +0.106 C 
ATOM      3  C   UNL     1      35.463 -22.283 -17.423  0.00  0.00    +0.052 C 
ATOM      4  C   UNL     1      33.357 -22.884 -18.008  0.00  0.00    +0.021 C 
ATOM      5  C   UNL     1      34.570 -22.323 -18.496  0.00  0.00    +0.015 C 
ATOM      6  C   UNL     1      36.766 -21.785 -17.544  0.00  0.00    +0.015 C 
ATOM      7  C   UNL     1      34.995 -21.844 -19.751  0.00  0.00    +0.001 C 
ATOM      8  C   UNL     1      37.165 -21.314 -18.798  0.00  0.00    +0.001 C 
ATOM      9  C   UNL     1      36.295 -21.342 -19.887  0.00  0.00    +0.000 C 
ENDROOT
BRANCH   2  12
ATOM     10  O   UNL     1      32.907 -24.193 -14.672  0.00  0.00    -0.269 OA
ATOM     11  N   UNL     1      31.269 -23.799 -16.234  0.00  0.00    -0.302 N 
ATOM     12  C   UNL     1      32.584 -23.745 -15.774  0.00  0.00    +0.260 C 
ATOM     13  H   UNL     1      31.060 -23.427 -17.121  0.00  0.00    +0.150 HD
BRANCH  11  15
ATOM     14  N   UNL     1      27.727 -22.860 -15.900  0.00  0.00    +0.388 N 
ATOM     15  C   UNL     1      30.202 -24.380 -15.450  0.00  0.00    +0.068 C 
ATOM     16  C   UNL     1      29.654 -23.377 -14.433  0.00  0.00    -0.003 C 
ATOM     17  C   UNL     1      29.073 -24.889 -16.348  0.00  0.00    -0.003 C 
ATOM     18  C   UNL     1      28.814 -22.281 -15.098  0.00  0.00    -0.076 C 
ATOM     19  C   UNL     1      28.253 -23.744 -16.950  0.00  0.00    -0.076 C 
ATOM     20  H   UNL     1      27.145 -23.422 -15.279  0.00  0.00    -0.080 HD
BRANCH  14  21
ATOM     21  C   UNL     1      26.905 -21.802 -16.486  0.00  0.00    -0.058 C 
ATOM     22  C   UNL     1      26.695 -22.086 -17.970  0.00  0.00    -0.023 C 
ATOM     23  C   UNL     1      25.570 -21.702 -15.753  0.00  0.00    -0.023 C 
ENDBRANCH  14  21
ENDBRANCH  11  15
ENDBRANCH   2  12
BRANCH   1  24
ATOM     24  C   UNL     1      35.382 -22.942 -15.009  0.00  0.00    +0.122 C 
BRANCH  24  25
ATOM     25  C   UNL     1      36.310 -24.114 -14.947  0.00  0.00    +0.001 C 
ATOM     26  C   UNL     1      37.673 -23.910 -14.751  0.00  0.00    +0.034 C 
ATOM     27  C   UNL     1      35.804 -25.405 -15.084  0.00  0.00    -0.002 C 
ATOM     28  C   UNL     1      38.538 -25.004 -14.693  0.00  0.00    +0.138 C 
ATOM     29  C   UNL     1      36.669 -26.498 -15.027  0.00  0.00    +0.003 C 
ATOM     30  C   UNL     1      38.036 -26.297 -14.831  0.00  0.00    +0.037 C 
BRANCH  28  31
ATOM     31  O   UNL     1      39.871 -24.808 -14.503  0.00  0.00    -0.471 OA
ATOM     32  C   UNL     1      40.676 -25.968 -14.303  0.00  0.00    +0.252 C 
ENDBRANCH  28  31
ENDBRANCH  24  25
ENDBRANCH   1  24
TORSDOF 6
ENDMDL
MODEL 3
REMARK VINA RESULT:      -9.7      4.528     11.343
REMARK  Name = 6540267
REMARK  6 active torsions:
REMARK  status: ('A' for Active; 'I' for Inactive)
REMARK    1  A    between atoms: N_1  and  C_24
REMARK    2  A    between atoms: C_2  and  C_12
REMARK    3  A    between atoms: N_11  and  C_15
REMARK    4  A    between atoms: N_14  and  C_21
REMARK    5  A    between atoms: C_24  and  C_25
REMARK    6  A    between atoms: C_28  and  O_31
REMARK                            x       y       z     vdW  Elec       q    Type
REMARK                         _______ _______ _______ _____ _____    ______ ____
ROOT
ATOM      1  N   UNL     1      34.431 -23.015 -17.523  0.00  0.00    -0.279 N 
ATOM      2  C   UNL     1      34.763 -22.048 -18.400  0.00  0.00    +0.106 C 
ATOM      3  C   UNL     1      35.426 -23.118 -16.578  0.00  0.00    +0.052 C 
ATOM      4  C   UNL     1      35.955 -21.498 -18.073  0.00  0.00    +0.021 C 
ATOM      5  C   UNL     1      36.401 -22.172 -16.903  0.00  0.00    +0.015 C 
ATOM      6  C   UNL     1      35.539 -23.969 -15.472  0.00  0.00    +0.015 C 
ATOM      7  C   UNL     1      37.544 -22.068 -16.085  0.00  0.00    +0.001 C 
ATOM      8  C   UNL     1      36.681 -23.847 -14.675  0.00  0.00    +0.001 C 
ATOM      9  C   UNL     1      37.670 -22.912 -14.975  0.00  0.00    +0.000 C 
ENDROOT
BRANCH   2  12
ATOM     10  O   UNL     1      32.931 -22.329 -19.876  0.00  0.00    -0.269 OA
ATOM     11  N   UNL     1      34.327 -20.543 -20.251  0.00  0.00    -0.302 N 
ATOM     12  C   UNL     1      33.920 -21.673 -19.543  0.00  0.00    +0.260 C 
ATOM     13  H   UNL     1      35.124 -20.052 -19.946  0.00  0.00    +0.150 HD
BRANCH  11  15
ATOM     14  N   UNL     1      34.278 -17.241 -21.873  0.00  0.00    +0.388 N 
ATOM     15  C   UNL     1      33.616 -20.068 -21.417  0.00  0.00    +0.068 C 
ATOM     16  C   UNL     1      32.661 -18.929 -21.057  0.00  0.00    -0.003 C 
ATOM     17  C   UNL     1      34.589 -19.614 -22.508  0.00  0.00    -0.003 C 
ATOM     18  C   UNL     1      33.406 -17.625 -20.754  0.00  0.00    -0.076 C 
ATOM     19  C   UNL     1      35.270 -18.287 -22.157  0.00  0.00    -0.076 C 
ATOM     20  H   UNL     1      33.694 -17.129 -22.701  0.00  0.00    -0.080 HD
BRANCH  14  21
ATOM     21  C   UNL     1      34.942 -15.969 -21.590  0.00  0.00    -0.058 C 
ATOM     22  C   UNL     1      34.629 -14.975 -22.705  0.00  0.00    -0.023 C 
ATOM     23  C   UNL     1      34.497 -15.429 -20.234  0.00  0.00    -0.023 C 
ENDBRANCH  14  21
ENDBRANCH  11  15
ENDBRANCH   2  12
BRANCH   1  24
ATOM     24  C   UNL     1      33.229 -23.822 -17.552  0.00  0.00    +0.122 C 
BRANCH  24  25
ATOM     25  C   UNL     1      32.239 -23.347 -16.537  0.00  0.00    +0.001 C 
ATOM     26  C   UNL     1      30.983 -22.907 -16.946  0.00  0.00    +0.034 C 
ATOM     27  C   UNL     1      32.578 -23.347 -15.185  0.00  0.00    -0.002 C 
ATOM     28  C   UNL     1      30.059 -22.463 -15.999  0.00  0.00    +0.138 C 
ATOM     29  C   UNL     1      31.654 -22.903 -14.239  0.00  0.00    +0.003 C 
ATOM     30  C   UNL     1      30.395 -22.461 -14.646  0.00  0.00    +0.037 C 
BRANCH  28  31
ATOM     31  O   UNL     1      28.831 -22.032 -16.396  0.00  0.00    -0.471 OA
ATOM     32  C   UNL     1      28.006 -22.968 -17.089  0.00  0.00    +0.252 C 
ENDBRANCH  28  31
ENDBRANCH  24  25
ENDBRANCH   1  24
TORSDOF 6
ENDMDL
MODEL 4
REMARK VINA RESULT:      -9.3      9.686     13.361
REMARK  Name = 6540267
REMARK  6 active torsions:
REMARK  status: ('A' for Active; 'I' for Inactive)
REMARK    1  A    between atoms: N_1  and  C_24
REMARK    2  A    between atoms: C_2  and  C_12
REMARK    3  A    between atoms: N_11  and  C_15
REMARK    4  A    between atoms: N_14  and  C_21
REMARK    5  A    between atoms: C_24  and  C_25
REMARK    6  A    between atoms: C_28  and  O_31
REMARK                            x       y       z     vdW  Elec       q    Type
REMARK                         _______ _______ _______ _____ _____    ______ ____
ROOT
ATOM      1  N   UNL     1      34.948 -22.581 -16.368  0.00  0.00    -0.279 N 
ATOM      2  C   UNL     1      33.792 -23.184 -16.712  0.00  0.00    +0.106 C 
ATOM      3  C   UNL     1      35.579 -22.148 -17.512  0.00  0.00    +0.052 C 
ATOM      4  C   UNL     1      33.629 -23.169 -18.054  0.00  0.00    +0.021 C 
ATOM      5  C   UNL     1      34.769 -22.508 -18.591  0.00  0.00    +0.015 C 
ATOM      6  C   UNL     1      36.795 -21.473 -17.673  0.00  0.00    +0.015 C 
ATOM      7  C   UNL     1      35.190 -22.179 -19.894  0.00  0.00    +0.001 C 
ATOM      8  C   UNL     1      37.192 -21.156 -18.975  0.00  0.00    +0.001 C 
ATOM      9  C   UNL     1      36.403 -21.503 -20.071  0.00  0.00    +0.000 C 
ENDROOT
BRANCH   2  12
ATOM     10  O   UNL     1      33.256 -24.366 -14.730  0.00  0.00    -0.269 OA
ATOM     11  N   UNL     1      31.509 -23.623 -16.023  0.00  0.00    -0.302 N 
ATOM     12  C   UNL     1      32.865 -23.765 -15.732  0.00  0.00    +0.260 C 
ATOM     13  H   UNL     1      31.246 -23.134 -16.836  0.00  0.00    +0.150 HD
BRANCH  11  15
ATOM     14  N   UNL     1      27.923 -22.841 -15.764  0.00  0.00    +0.388 N 
ATOM     15  C   UNL     1      30.477 -24.168 -15.169  0.00  0.00    +0.068 C 
ATOM     16  C   UNL     1      29.879 -23.089 -14.266  0.00  0.00    -0.003 C 
ATOM     17  C   UNL     1      29.374 -24.834 -15.996  0.00  0.00    -0.003 C 
ATOM     18  C   UNL     1      28.980 -22.120 -15.041  0.00  0.00    -0.076 C 
ATOM     19  C   UNL     1      28.492 -23.807 -16.714  0.00  0.00    -0.076 C 
ATOM     20  H   UNL     1      27.374 -23.360 -15.079  0.00  0.00    -0.080 HD
BRANCH  14  21
ATOM     21  C   UNL     1      27.044 -21.900 -16.457  0.00  0.00    -0.058 C 
ATOM     22  C   UNL     1      26.873 -22.340 -17.908  0.00  0.00    -0.023 C 
ATOM     23  C   UNL     1      25.695 -21.815 -15.747  0.00  0.00    -0.023 C 
ENDBRANCH  14  21
ENDBRANCH  11  15
ENDBRANCH   2  12
BRANCH   1  24
ATOM     24  C   UNL     1      35.456 -22.406 -15.024  0.00  0.00    +0.122 C 
BRANCH  24  25
ATOM     25  C   UNL     1      36.065 -23.673 -14.511  0.00  0.00    +0.001 C 
ATOM     26  C   UNL     1      35.916 -24.021 -13.172  0.00  0.00    +0.034 C 
ATOM     27  C   UNL     1      36.780 -24.497 -15.377  0.00  0.00    -0.002 C 
ATOM     28  C   UNL     1      36.484 -25.203 -12.694  0.00  0.00    +0.138 C 
ATOM     29  C   UNL     1      37.349 -25.677 -14.899  0.00  0.00    +0.003 C 
ATOM     30  C   UNL     1      37.201 -26.030 -13.557  0.00  0.00    +0.037 C 
BRANCH  28  31
ATOM     31  O   UNL     1      36.341 -25.546 -11.386  0.00  0.00    -0.471 OA
ATOM     32  C   UNL     1      35.712 -24.594 -10.529  0.00  0.00    +0.252 C 
ENDBRANCH  28  31
ENDBRANCH  24  25
ENDBRANCH   1  24
TORSDOF 6
ENDMDL
MODEL 5
REMARK VINA RESULT:      -9.2      2.755      7.880
REMARK  Name = 6540267
REMARK  6 active torsions:
REMARK  status: ('A' for Active; 'I' for Inactive)
REMARK    1  A    between atoms: N_1  and  C_24
REMARK    2  A    between atoms: C_2  and  C_12
REMARK    3  A    between atoms: N_11  and  C_15
REMARK    4  A    between atoms: N_14  and  C_21
REMARK    5  A    between atoms: C_24  and  C_25
REMARK    6  A    between atoms: C_28  and  O_31
REMARK                            x       y       z     vdW  Elec       q    Type
REMARK                         _______ _______ _______ _____ _____    ______ ____
ROOT
ATOM      1  N   UNL     1      33.223 -13.102 -22.410  0.00  0.00    -0.279 N 
ATOM      2  C   UNL     1      32.185 -12.844 -21.589  0.00  0.00    +0.106 C 
ATOM      3  C   UNL     1      33.688 -14.371 -22.153  0.00  0.00    +0.052 C 
ATOM      4  C   UNL     1      31.939 -13.905 -20.786  0.00  0.00    +0.021 C 
ATOM      5  C   UNL     1      32.896 -14.900 -21.131  0.00  0.00    +0.015 C 
ATOM      6  C   UNL     1      34.739 -15.085 -22.739  0.00  0.00    +0.015 C 
ATOM      7  C   UNL     1      33.164 -16.205 -20.671  0.00  0.00    +0.001 C 
ATOM      8  C   UNL     1      34.987 -16.377 -22.267  0.00  0.00    +0.001 C 
ATOM      9  C   UNL     1      34.212 -16.930 -21.249  0.00  0.00    +0.000 C 
ENDROOT
BRANCH   2  12
ATOM     10  O   UNL     1      30.226 -11.521 -21.744  0.00  0.00    -0.269 OA
ATOM     11  N   UNL     1      32.223 -10.423 -21.455  0.00  0.00    -0.302 N 
ATOM     12  C   UNL     1      31.448 -11.573 -21.596  0.00  0.00    +0.260 C 
ATOM     13  H   UNL     1      33.196 -10.517 -21.339  0.00  0.00    +0.150 HD
BRANCH  11  15
ATOM     14  N   UNL     1      33.262  -7.357 -23.202  0.00  0.00    +0.388 N 
ATOM     15  C   UNL     1      31.645  -9.098 -21.473  0.00  0.00    +0.068 C 
ATOM     16  C   UNL     1      32.622  -8.061 -20.916  0.00  0.00    -0.003 C 
ATOM     17  C   UNL     1      31.210  -8.706 -22.887  0.00  0.00    -0.003 C 
ATOM     18  C   UNL     1      33.772  -7.772 -21.887  0.00  0.00    -0.076 C 
ATOM     19  C   UNL     1      32.407  -8.395 -23.792  0.00  0.00    -0.076 C 
ATOM     20  H   UNL     1      32.695  -6.521 -23.068  0.00  0.00    -0.080 HD
BRANCH  14  21
ATOM     21  C   UNL     1      34.370  -7.035 -24.100  0.00  0.00    -0.058 C 
ATOM     22  C   UNL     1      34.989  -8.327 -24.626  0.00  0.00    -0.023 C 
ATOM     23  C   UNL     1      33.883  -6.154 -25.248  0.00  0.00    -0.023 C 
ENDBRANCH  14  21
ENDBRANCH  11  15
ENDBRANCH   2  12
BRANCH   1  24
ATOM     24  C   UNL     1      33.770 -12.204 -23.405  0.00  0.00    +0.122 C 
BRANCH  24  25
ATOM     25  C   UNL     1      33.589 -12.755 -24.783  0.00  0.00    +0.001 C 
ATOM     26  C   UNL     1      33.285 -14.103 -24.956  0.00  0.00    +0.034 C 
ATOM     27  C   UNL     1      33.725 -11.917 -25.888  0.00  0.00    -0.002 C 
ATOM     28  C   UNL     1      33.116 -14.617 -26.243  0.00  0.00    +0.138 C 
ATOM     29  C   UNL     1      33.557 -12.432 -27.173  0.00  0.00    +0.003 C 
ATOM     30  C   UNL     1      33.252 -13.782 -27.351  0.00  0.00    +0.037 C 
BRANCH  28  31
ATOM     31  O   UNL     1      32.820 -15.934 -26.416  0.00  0.00    -0.471 OA
ATOM     32  C   UNL     1      33.668 -16.881 -25.768  0.00  0.00    +0.252 C 
ENDBRANCH  28  31
ENDBRANCH  24  25
ENDBRANCH   1  24
TORSDOF 6
ENDMDL
MODEL 6
REMARK VINA RESULT:      -9.1      8.745     13.242
REMARK  Name = 6540267
REMARK  6 active torsions:
REMARK  status: ('A' for Active; 'I' for Inactive)
REMARK    1  A    between atoms: N_1  and  C_24
REMARK    2  A    between atoms: C_2  and  C_12
REMARK    3  A    between atoms: N_11  and  C_15
REMARK    4  A    between atoms: N_14  and  C_21
REMARK    5  A    between atoms: C_24  and  C_25
REMARK    6  A    between atoms: C_28  and  O_31
REMARK                            x       y       z     vdW  Elec       q    Type
REMARK                         _______ _______ _______ _____ _____    ______ ____
ROOT
ATOM      1  N   UNL     1      36.641 -23.746 -14.181  0.00  0.00    -0.279 N 
ATOM      2  C   UNL     1      35.985 -24.570 -13.339  0.00  0.00    +0.106 C 
ATOM      3  C   UNL     1      37.803 -24.360 -14.587  0.00  0.00    +0.052 C 
ATOM      4  C   UNL     1      36.675 -25.720 -13.166  0.00  0.00    +0.021 C 
ATOM      5  C   UNL     1      37.850 -25.608 -13.960  0.00  0.00    +0.015 C 
ATOM      6  C   UNL     1      38.809 -23.912 -15.451  0.00  0.00    +0.015 C 
ATOM      7  C   UNL     1      38.952 -26.450 -14.206  0.00  0.00    +0.001 C 
ATOM      8  C   UNL     1      39.892 -24.765 -15.682  0.00  0.00    +0.001 C 
ATOM      9  C   UNL     1      39.965 -26.015 -15.069  0.00  0.00    +0.000 C 
ENDROOT
BRANCH   2  12
ATOM     10  O   UNL     1      34.628 -23.706 -11.600  0.00  0.00    -0.269 OA
ATOM     11  N   UNL     1      33.562 -24.556 -13.449  0.00  0.00    -0.302 N 
ATOM     12  C   UNL     1      34.700 -24.227 -12.715  0.00  0.00    +0.260 C 
ATOM     13  H   UNL     1      33.672 -24.971 -14.335  0.00  0.00    +0.150 HD
BRANCH  11  15
ATOM     14  N   UNL     1      30.439 -23.744 -15.216  0.00  0.00    +0.388 N 
ATOM     15  C   UNL     1      32.227 -24.309 -12.953  0.00  0.00    +0.068 C 
ATOM     16  C   UNL     1      31.761 -22.895 -13.303  0.00  0.00    -0.003 C 
ATOM     17  C   UNL     1      31.237 -25.340 -13.499  0.00  0.00    -0.003 C 
ATOM     18  C   UNL     1      31.432 -22.747 -14.792  0.00  0.00    -0.076 C 
ATOM     19  C   UNL     1      30.925 -25.111 -14.982  0.00  0.00    -0.076 C 
ATOM     20  H   UNL     1      29.599 -23.608 -14.655  0.00  0.00    -0.080 HD
BRANCH  14  21
ATOM     21  C   UNL     1      30.098 -23.557 -16.626  0.00  0.00    -0.058 C 
ATOM     22  C   UNL     1      28.594 -23.332 -16.758  0.00  0.00    -0.023 C 
ATOM     23  C   UNL     1      30.881 -22.384 -17.210  0.00  0.00    -0.023 C 
ENDBRANCH  14  21
ENDBRANCH  11  15
ENDBRANCH   2  12
BRANCH   1  24
ATOM     24  C   UNL     1      36.208 -22.431 -14.603  0.00  0.00    +0.122 C 
BRANCH  24  25
ATOM     25  C   UNL     1      35.726 -22.451 -16.018  0.00  0.00    +0.001 C 
ATOM     26  C   UNL     1      36.458 -21.804 -17.009  0.00  0.00    +0.034 C 
ATOM     27  C   UNL     1      34.546 -23.120 -16.339  0.00  0.00    -0.002 C 
ATOM     28  C   UNL     1      36.008 -21.823 -18.330  0.00  0.00    +0.138 C 
ATOM     29  C   UNL     1      34.096 -23.138 -17.659  0.00  0.00    +0.003 C 
ATOM     30  C   UNL     1      34.828 -22.490 -18.655  0.00  0.00    +0.037 C 
BRANCH  28  31
ATOM     31  O   UNL     1      36.721 -21.190 -19.301  0.00  0.00    -0.471 OA
ATOM     32  C   UNL     1      35.980 -20.563 -20.347  0.00  0.00    +0.252 C 
ENDBRANCH  28  31
ENDBRANCH  24  25
ENDBRANCH   1  24
TORSDOF 6
ENDMDL
MODEL 7
REMARK VINA RESULT:      -9.1     10.371     13.765
REMARK  Name = 6540267
REMARK  6 active torsions:
REMARK  status: ('A' for Active; 'I' for Inactive)
REMARK    1  A    between atoms: N_1  and  C_24
REMARK    2  A    between atoms: C_2  and  C_12
REMARK    3  A    between atoms: N_11  and  C_15
REMARK    4  A    between atoms: N_14  and  C_21
REMARK    5  A    between atoms: C_24  and  C_25
REMARK    6  A    between atoms: C_28  and  O_31
REMARK                            x       y       z     vdW  Elec       q    Type
REMARK                         _______ _______ _______ _____ _____    ______ ____
ROOT
ATOM      1  N   UNL     1      34.903 -22.977 -15.255  0.00  0.00    -0.279 N 
ATOM      2  C   UNL     1      33.780 -23.435 -15.844  0.00  0.00    +0.106 C 
ATOM      3  C   UNL     1      35.712 -22.418 -16.218  0.00  0.00    +0.052 C 
ATOM      4  C   UNL     1      33.812 -23.200 -17.175  0.00  0.00    +0.021 C 
ATOM      5  C   UNL     1      35.048 -22.546 -17.439  0.00  0.00    +0.015 C 
ATOM      6  C   UNL     1      36.970 -21.815 -16.103  0.00  0.00    +0.015 C 
ATOM      7  C   UNL     1      35.666 -22.049 -18.604  0.00  0.00    +0.001 C 
ATOM      8  C   UNL     1      37.565 -21.329 -17.271  0.00  0.00    +0.001 C 
ATOM      9  C   UNL     1      36.924 -21.444 -18.504  0.00  0.00    +0.000 C 
ENDROOT
BRANCH   2  12
ATOM     10  O   UNL     1      32.900 -24.763 -14.091  0.00  0.00    -0.269 OA
ATOM     11  N   UNL     1      31.417 -23.941 -15.641  0.00  0.00    -0.302 N 
ATOM     12  C   UNL     1      32.695 -24.094 -15.105  0.00  0.00    +0.260 C 
ATOM     13  H   UNL     1      31.305 -23.396 -16.453  0.00  0.00    +0.150 HD
BRANCH  11  15
ATOM     14  N   UNL     1      27.853 -23.046 -15.819  0.00  0.00    +0.388 N 
ATOM     15  C   UNL     1      30.253 -24.555 -15.044  0.00  0.00    +0.068 C 
ATOM     16  C   UNL     1      29.544 -23.589 -14.094  0.00  0.00    -0.003 C 
ATOM     17  C   UNL     1      29.279 -25.048 -16.116  0.00  0.00    -0.003 C 
ATOM     18  C   UNL     1      28.799 -22.481 -14.847  0.00  0.00    -0.076 C 
ATOM     19  C   UNL     1      28.543 -23.893 -16.802  0.00  0.00    -0.076 C 
ATOM     20  H   UNL     1      27.192 -23.631 -15.309  0.00  0.00    -0.080 HD
BRANCH  14  21
ATOM     21  C   UNL     1      27.114 -21.978 -16.492  0.00  0.00    -0.058 C 
ATOM     22  C   UNL     1      26.963 -22.321 -17.972  0.00  0.00    -0.023 C 
ATOM     23  C   UNL     1      25.751 -21.782 -15.834  0.00  0.00    -0.023 C 
ENDBRANCH  14  21
ENDBRANCH  11  15
ENDBRANCH   2  12
BRANCH   1  24
ATOM     24  C   UNL     1      35.222 -23.051 -13.845  0.00  0.00    +0.122 C 
BRANCH  24  25
ATOM     25  C   UNL     1      36.411 -23.927 -13.608  0.00  0.00    +0.001 C 
ATOM     26  C   UNL     1      36.577 -25.088 -14.359  0.00  0.00    +0.034 C 
ATOM     27  C   UNL     1      37.347 -23.577 -12.638  0.00  0.00    -0.002 C 
ATOM     28  C   UNL     1      37.687 -25.906 -14.138  0.00  0.00    +0.138 C 
ATOM     29  C   UNL     1      38.456 -24.394 -12.417  0.00  0.00    +0.003 C 
ATOM     30  C   UNL     1      38.625 -25.558 -13.167  0.00  0.00    +0.037 C 
BRANCH  28  31
ATOM     31  O   UNL     1      37.852 -27.041 -14.869  0.00  0.00    -0.471 OA
ATOM     32  C   UNL     1      36.820 -27.371 -15.798  0.00  0.00    +0.252 C 
ENDBRANCH  28  31
ENDBRANCH  24  25
ENDBRANCH   1  24
TORSDOF 6
ENDMDL
MODEL 8
REMARK VINA RESULT:      -8.8      2.442      7.318
REMARK  Name = 6540267
REMARK  6 active torsions:
REMARK  status: ('A' for Active; 'I' for Inactive)
REMARK    1  A    between atoms: N_1  and  C_24
REMARK    2  A    between atoms: C_2  and  C_12
REMARK    3  A    between atoms: N_11  and  C_15
REMARK    4  A    between atoms: N_14  and  C_21
REMARK    5  A    between atoms: C_24  and  C_25
REMARK    6  A    between atoms: C_28  and  O_31
REMARK                            x       y       z     vdW  Elec       q    Type
REMARK                         _______ _______ _______ _____ _____    ______ ____
ROOT
ATOM      1  N   UNL     1      32.928 -14.393 -22.635  0.00  0.00    -0.279 N 
ATOM      2  C   UNL     1      33.054 -13.920 -21.379  0.00  0.00    +0.106 C 
ATOM      3  C   UNL     1      33.767 -15.473 -22.789  0.00  0.00    +0.052 C 
ATOM      4  C   UNL     1      33.955 -14.651 -20.684  0.00  0.00    +0.021 C 
ATOM      5  C   UNL     1      34.428 -15.657 -21.572  0.00  0.00    +0.015 C 
ATOM      6  C   UNL     1      33.990 -16.294 -23.900  0.00  0.00    +0.015 C 
ATOM      7  C   UNL     1      35.357 -16.710 -21.457  0.00  0.00    +0.001 C 
ATOM      8  C   UNL     1      34.916 -17.332 -23.764  0.00  0.00    +0.001 C 
ATOM      9  C   UNL     1      35.591 -17.539 -22.561  0.00  0.00    +0.000 C 
ENDROOT
BRANCH   2  12
ATOM     10  O   UNL     1      31.859 -12.719 -19.723  0.00  0.00    -0.269 OA
ATOM     11  N   UNL     1      32.085 -11.735 -21.787  0.00  0.00    -0.302 N 
ATOM     12  C   UNL     1      32.300 -12.766 -20.873  0.00  0.00    +0.260 C 
ATOM     13  H   UNL     1      32.458 -11.819 -22.694  0.00  0.00    +0.150 HD
BRANCH  11  15
ATOM     14  N   UNL     1      32.429  -8.250 -22.916  0.00  0.00    +0.388 N 
ATOM     15  C   UNL     1      31.334 -10.548 -21.446  0.00  0.00    +0.068 C 
ATOM     16  C   UNL     1      32.229  -9.498 -20.786  0.00  0.00    -0.003 C 
ATOM     17  C   UNL     1      30.649  -9.955 -22.680  0.00  0.00    -0.003 C 
ATOM     18  C   UNL     1      33.175  -8.832 -21.792  0.00  0.00    -0.076 C 
ATOM     19  C   UNL     1      31.647  -9.275 -23.622  0.00  0.00    -0.076 C 
ATOM     20  H   UNL     1      31.777  -7.564 -22.537  0.00  0.00    -0.080 HD
BRANCH  14  21
ATOM     21  C   UNL     1      33.340  -7.575 -23.839  0.00  0.00    -0.058 C 
ATOM     22  C   UNL     1      32.837  -6.158 -24.102  0.00  0.00    -0.023 C 
ATOM     23  C   UNL     1      34.755  -7.557 -23.269  0.00  0.00    -0.023 C 
ENDBRANCH  14  21
ENDBRANCH  11  15
ENDBRANCH   2  12
BRANCH   1  24
ATOM     24  C   UNL     1      32.057 -13.867 -23.665  0.00  0.00    +0.122 C 
BRANCH  24  25
ATOM     25  C   UNL     1      32.850 -13.275 -24.787  0.00  0.00    +0.001 C 
ATOM     26  C   UNL     1      33.600 -12.122 -24.573  0.00  0.00    +0.034 C 
ATOM     27  C   UNL     1      32.833 -13.881 -26.041  0.00  0.00    -0.002 C 
ATOM     28  C   UNL     1      34.339 -11.569 -25.620  0.00  0.00    +0.138 C 
ATOM     29  C   UNL     1      33.571 -13.328 -27.088  0.00  0.00    +0.003 C 
ATOM     30  C   UNL     1      34.325 -12.173 -26.877  0.00  0.00    +0.037 C 
BRANCH  28  31
ATOM     31  O   UNL     1      35.073 -10.442 -25.415  0.00  0.00    -0.471 OA
ATOM     32  C   UNL     1      36.021 -10.092 -26.422  0.00  0.00    +0.252 C 
ENDBRANCH  28  31
ENDBRANCH  24  25
ENDBRANCH   1  24
TORSDOF 6
ENDMDL
MODEL 9
REMARK VINA RESULT:      -8.8      8.716     12.557
REMARK  Name = 6540267
REMARK  6 active torsions:
REMARK  status: ('A' for Active; 'I' for Inactive)
REMARK    1  A    between atoms: N_1  and  C_24
REMARK    2  A    between atoms: C_2  and  C_12
REMARK    3  A    between atoms: N_11  and  C_15
REMARK    4  A    between atoms: N_14  and  C_21
REMARK    5  A    between atoms: C_24  and  C_25
REMARK    6  A    between atoms: C_28  and  O_31
REMARK                            x       y       z     vdW  Elec       q    Type
REMARK                         _______ _______ _______ _____ _____    ______ ____
ROOT
ATOM      1  N   UNL     1      34.365 -23.209 -17.138  0.00  0.00    -0.279 N 
ATOM      2  C   UNL     1      35.414 -22.960 -16.329  0.00  0.00    +0.106 C 
ATOM      3  C   UNL     1      34.476 -22.425 -18.263  0.00  0.00    +0.052 C 
ATOM      4  C   UNL     1      36.227 -22.029 -16.878  0.00  0.00    +0.021 C 
ATOM      5  C   UNL     1      35.642 -21.669 -18.124  0.00  0.00    +0.015 C 
ATOM      6  C   UNL     1      33.641 -22.326 -19.382  0.00  0.00    +0.015 C 
ATOM      7  C   UNL     1      35.994 -20.770 -19.150  0.00  0.00    +0.001 C 
ATOM      8  C   UNL     1      34.010 -21.428 -20.388  0.00  0.00    +0.001 C 
ATOM      9  C   UNL     1      35.169 -20.661 -20.276  0.00  0.00    +0.000 C 
ENDROOT
BRANCH   2  12
ATOM     10  O   UNL     1      35.477 -23.038 -13.962  0.00  0.00    -0.269 OA
ATOM     11  N   UNL     1      35.988 -24.969 -15.098  0.00  0.00    -0.302 N 
ATOM     12  C   UNL     1      35.610 -23.629 -15.036  0.00  0.00    +0.260 C 
ATOM     13  H   UNL     1      36.081 -25.397 -15.980  0.00  0.00    +0.150 HD
BRANCH  11  15
ATOM     14  N   UNL     1      39.151 -26.023 -13.541  0.00  0.00    +0.388 N 
ATOM     15  C   UNL     1      36.247 -25.751 -13.910  0.00  0.00    +0.068 C 
ATOM     16  C   UNL     1      37.005 -27.036 -14.249  0.00  0.00    -0.003 C 
ATOM     17  C   UNL     1      37.028 -24.938 -12.874  0.00  0.00    -0.003 C 
ATOM     18  C   UNL     1      38.469 -26.764 -14.611  0.00  0.00    -0.076 C 
ATOM     19  C   UNL     1      38.490 -24.736 -13.282  0.00  0.00    -0.076 C 
ATOM     20  H   UNL     1      39.096 -26.580 -12.690  0.00  0.00    -0.080 HD
BRANCH  14  21
ATOM     21  C   UNL     1      40.559 -25.816 -13.879  0.00  0.00    -0.058 C 
ATOM     22  C   UNL     1      41.283 -27.160 -13.878  0.00  0.00    -0.023 C 
ATOM     23  C   UNL     1      40.682 -25.129 -15.237  0.00  0.00    -0.023 C 
ENDBRANCH  14  21
ENDBRANCH  11  15
ENDBRANCH   2  12
BRANCH   1  24
ATOM     24  C   UNL     1      33.290 -24.146 -16.883  0.00  0.00    +0.122 C 
BRANCH  24  25
ATOM     25  C   UNL     1      32.147 -23.476 -16.189  0.00  0.00    +0.001 C 
ATOM     26  C   UNL     1      31.033 -23.073 -16.919  0.00  0.00    +0.034 C 
ATOM     27  C   UNL     1      32.204 -23.260 -14.814  0.00  0.00    -0.002 C 
ATOM     28  C   UNL     1      29.967 -22.448 -16.271  0.00  0.00    +0.138 C 
ATOM     29  C   UNL     1      31.138 -22.635 -14.166  0.00  0.00    +0.003 C 
ATOM     30  C   UNL     1      30.020 -22.229 -14.895  0.00  0.00    +0.037 C 
BRANCH  28  31
ATOM     31  O   UNL     1      28.877 -22.051 -16.981  0.00  0.00    -0.471 OA
ATOM     32  C   UNL     1      27.597 -22.419 -16.468  0.00  0.00    +0.252 C 
ENDBRANCH  28  31
ENDBRANCH  24  25
ENDBRANCH   1  24
TORSDOF 6
ENDMDL
