MODEL 1
REMARK VINA RESULT:      -8.3      0.000      0.000
REMARK  Name = 5284594
REMARK  4 active torsions:
REMARK  status: ('A' for Active; 'I' for Inactive)
REMARK    1  A    between atoms: N_2  and  C_25
REMARK    2  A    between atoms: C_4  and  O_21
REMARK    3  A    between atoms: C_17  and  O_23
REMARK    4  A    between atoms: C_25  and  C_26
REMARK                            x       y       z     vdW  Elec       q    Type
REMARK                         _______ _______ _______ _____ _____    ______ ____
ROOT
ATOM      1  O   UNL     1      31.827 -11.029 -22.621  0.00  0.00    -0.472 OA
ATOM      2  N   UNL     1      31.632  -5.862 -23.647  0.00  0.00    +0.390 N 
ATOM      3  C   UNL     1      31.657  -8.594 -22.665  0.00  0.00    +0.081 C 
ATOM      4  C   UNL     1      32.081  -7.412 -21.778  0.00  0.00    +0.079 C 
ATOM      5  C   UNL     1      32.706  -6.342 -22.742  0.00  0.00    -0.028 C 
ATOM      6  C   UNL     1      31.194  -9.885 -21.951  0.00  0.00    +0.190 C 
ATOM      7  C   UNL     1      30.627  -8.139 -23.727  0.00  0.00    -0.013 C 
ATOM      8  C   UNL     1      32.878  -9.124 -23.329  0.00  0.00    +0.016 C 
ATOM      9  C   UNL     1      33.028  -7.815 -20.616  0.00  0.00    +0.030 C 
ATOM     10  C   UNL     1      33.975  -6.890 -23.496  0.00  0.00    +0.008 C 
ATOM     11  C   UNL     1      31.086  -6.905 -24.519  0.00  0.00    -0.077 C 
ATOM     12  C   UNL     1      33.946  -8.371 -23.784  0.00  0.00    -0.025 C 
ATOM     13  C   UNL     1      32.856  -9.256 -20.100  0.00  0.00    +0.028 C 
ATOM     14  C   UNL     1      31.541  -9.881 -20.476  0.00  0.00    -0.005 C 
ATOM     15  C   UNL     1      32.877 -10.500 -23.327  0.00  0.00    +0.168 C 
ATOM     16  C   UNL     1      34.998  -9.065 -24.385  0.00  0.00    -0.001 C 
ATOM     17  C   UNL     1      33.903 -11.205 -23.917  0.00  0.00    +0.167 C 
ATOM     18  C   UNL     1      30.692 -10.354 -19.552  0.00  0.00    -0.006 C 
ATOM     19  C   UNL     1      34.964 -10.472 -24.468  0.00  0.00    +0.039 C 
ATOM     20  H   UNL     1      30.879  -5.589 -23.016  0.00  0.00    -0.080 HD
ENDROOT
BRANCH   4  21
ATOM     21  O   UNL     1      30.904  -6.864 -21.160  0.00  0.00    -0.388 OA
ATOM     22  H   UNL     1      30.170  -7.491 -21.248  0.00  0.00    +0.210 HD
ENDBRANCH   4  21
BRANCH  17  23
ATOM     23  O   UNL     1      33.911 -12.561 -23.938  0.00  0.00    -0.503 OA
ATOM     24  H   UNL     1      33.544 -13.021 -24.668  0.00  0.00    +0.292 HD
ENDBRANCH  17  23
BRANCH   2  25
ATOM     25  C   UNL     1      31.997  -4.668 -24.403  0.00  0.00    -0.077 C 
BRANCH  25  26
ATOM     26  C   UNL     1      32.135  -5.004 -25.876  0.00  0.00    -0.021 C 
ATOM     27  C   UNL     1      32.477  -3.906 -26.815  0.00  0.00    -0.002 C 
ATOM     28  C   UNL     1      33.491  -4.960 -26.479  0.00  0.00    -0.002 C 
ENDBRANCH  25  26
ENDBRANCH   2  25
TORSDOF 4
ENDMDL
MODEL 2
REMARK VINA RESULT:      -5.5     16.264     18.773
REMARK  Name = 5284594
REMARK  4 active torsions:
REMARK  status: ('A' for Active; 'I' for Inactive)
REMARK    1  A    between atoms: N_2  and  C_25
REMARK    2  A    between atoms: C_4  and  O_21
REMARK    3  A    between atoms: C_17  and  O_23
REMARK    4  A    between atoms: C_25  and  C_26
REMARK                            x       y       z     vdW  Elec       q    Type
REMARK                         _______ _______ _______ _____ _____    ______ ____
ROOT
ATOM      1  O   UNL     1      37.873 -26.256 -12.724  0.00  0.00    -0.472 OA
ATOM      2  N   UNL     1      35.081 -23.387 -16.154  0.00  0.00    +0.390 N 
ATOM      3  C   UNL     1      36.428 -24.721 -13.955  0.00  0.00    +0.081 C 
ATOM      4  C   UNL     1      36.013 -23.243 -13.872  0.00  0.00    +0.079 C 
ATOM      5  C   UNL     1      36.098 -22.680 -15.336  0.00  0.00    -0.028 C 
ATOM      6  C   UNL     1      36.634 -25.474 -12.621  0.00  0.00    +0.190 C 
ATOM      7  C   UNL     1      35.484 -25.501 -14.900  0.00  0.00    -0.013 C 
ATOM      8  C   UNL     1      37.823 -24.774 -14.466  0.00  0.00    +0.016 C 
ATOM      9  C   UNL     1      36.847 -22.419 -12.853  0.00  0.00    +0.030 C 
ATOM     10  C   UNL     1      37.556 -22.766 -15.923  0.00  0.00    +0.008 C 
ATOM     11  C   UNL     1      35.317 -24.829 -16.272  0.00  0.00    -0.077 C 
ATOM     12  C   UNL     1      38.372 -23.931 -15.418  0.00  0.00    -0.025 C 
ATOM     13  C   UNL     1      37.404 -23.222 -11.662  0.00  0.00    +0.028 C 
ATOM     14  C   UNL     1      36.704 -24.533 -11.435  0.00  0.00    -0.005 C 
ATOM     15  C   UNL     1      38.563 -25.705 -13.773  0.00  0.00    +0.168 C 
ATOM     16  C   UNL     1      39.706 -24.152 -15.764  0.00  0.00    -0.001 C 
ATOM     17  C   UNL     1      39.880 -25.940 -14.099  0.00  0.00    +0.167 C 
ATOM     18  C   UNL     1      36.118 -24.830 -10.265  0.00  0.00    -0.006 C 
ATOM     19  C   UNL     1      40.447 -25.165 -15.121  0.00  0.00    +0.039 C 
ATOM     20  H   UNL     1      34.217 -23.278 -15.623  0.00  0.00    -0.080 HD
ENDROOT
BRANCH   4  21
ATOM     21  O   UNL     1      34.652 -23.178 -13.416  0.00  0.00    -0.388 OA
ATOM     22  H   UNL     1      34.597 -23.518 -12.510  0.00  0.00    +0.210 HD
ENDBRANCH   4  21
BRANCH  17  23
ATOM     23  O   UNL     1      40.620 -26.865 -13.438  0.00  0.00    -0.503 OA
ATOM     24  H   UNL     1      40.610 -27.760 -13.716  0.00  0.00    +0.292 HD
ENDBRANCH  17  23
BRANCH   2  25
ATOM     25  C   UNL     1      34.851 -22.773 -17.458  0.00  0.00    -0.077 C 
BRANCH  25  26
ATOM     26  C   UNL     1      33.488 -23.173 -17.990  0.00  0.00    -0.021 C 
ATOM     27  C   UNL     1      32.298 -22.891 -17.148  0.00  0.00    -0.002 C 
ATOM     28  C   UNL     1      32.551 -22.094 -18.394  0.00  0.00    -0.002 C 
ENDBRANCH  25  26
ENDBRANCH   2  25
TORSDOF 4
ENDMDL
