MODEL 1
REMARK VINA RESULT:      -2.7      0.000      0.000
REMARK  Name = 118985556
REMARK  2 active torsions:
REMARK  status: ('A' for Active; 'I' for Inactive)
REMARK    1  A    between atoms: N_1  and  C_5
REMARK    2  A    between atoms: C_5  and  C_7
REMARK                            x       y       z     vdW  Elec       q    Type
REMARK                         _______ _______ _______ _____ _____    ______ ____
ROOT
ATOM      1  N   UNL     1      40.637 -13.159 -13.791  0.00  0.00    +0.381 N 
ATOM      2  H   UNL     1      40.976 -13.509 -12.895  0.00  0.00    -0.089 HD
ATOM      3  H   UNL     1      39.633 -12.990 -13.733  0.00  0.00    -0.089 HD
ATOM      4  H   UNL     1      41.116 -12.287 -14.018  0.00  0.00    -0.089 HD
ENDROOT
BRANCH   1   5
ATOM      5  C   UNL     1      40.910 -14.164 -14.851  0.00  0.00    -0.073 C 
BRANCH   5   7
ATOM      6  S   UNL     1      41.393 -14.290 -17.541  0.00  0.00    -0.084 S 
ATOM      7  C   UNL     1      41.787 -13.525 -15.924  0.00  0.00    +0.045 C 
ENDBRANCH   5   7
ENDBRANCH   1   5
TORSDOF 2
ENDMDL
MODEL 2
REMARK VINA RESULT:      -2.5     12.805     13.018
REMARK  Name = 118985556
REMARK  2 active torsions:
REMARK  status: ('A' for Active; 'I' for Inactive)
REMARK    1  A    between atoms: N_1  and  C_5
REMARK    2  A    between atoms: C_5  and  C_7
REMARK                            x       y       z     vdW  Elec       q    Type
REMARK                         _______ _______ _______ _____ _____    ______ ____
ROOT
ATOM      1  N   UNL     1      36.145 -26.823 -15.163  0.00  0.00    +0.381 N 
ATOM      2  H   UNL     1      35.820 -27.789 -15.208  0.00  0.00    -0.089 HD
ATOM      3  H   UNL     1      36.305 -26.474 -16.109  0.00  0.00    -0.089 HD
ATOM      4  H   UNL     1      35.439 -26.247 -14.704  0.00  0.00    -0.089 HD
ENDROOT
BRANCH   1   5
ATOM      5  C   UNL     1      37.413 -26.762 -14.392  0.00  0.00    -0.073 C 
BRANCH   5   7
ATOM      6  S   UNL     1      39.920 -25.672 -14.511  0.00  0.00    -0.084 S 
ATOM      7  C   UNL     1      38.112 -25.440 -14.693  0.00  0.00    +0.045 C 
ENDBRANCH   5   7
ENDBRANCH   1   5
TORSDOF 2
ENDMDL
MODEL 3
REMARK VINA RESULT:      -2.5     11.238     11.285
REMARK  Name = 118985556
REMARK  2 active torsions:
REMARK  status: ('A' for Active; 'I' for Inactive)
REMARK    1  A    between atoms: N_1  and  C_5
REMARK    2  A    between atoms: C_5  and  C_7
REMARK                            x       y       z     vdW  Elec       q    Type
REMARK                         _______ _______ _______ _____ _____    ______ ____
ROOT
ATOM      1  N   UNL     1      33.025  -7.637 -19.722  0.00  0.00    +0.381 N 
ATOM      2  H   UNL     1      32.478  -7.350 -18.911  0.00  0.00    -0.089 HD
ATOM      3  H   UNL     1      33.193  -6.830 -20.323  0.00  0.00    -0.089 HD
ATOM      4  H   UNL     1      33.919  -8.020 -19.411  0.00  0.00    -0.089 HD
ENDROOT
BRANCH   1   5
ATOM      5  C   UNL     1      32.280  -8.674 -20.481  0.00  0.00    -0.073 C 
BRANCH   5   7
ATOM      6  S   UNL     1      31.104 -11.145 -20.489  0.00  0.00    -0.084 S 
ATOM      7  C   UNL     1      31.879  -9.794 -19.525  0.00  0.00    +0.045 C 
ENDBRANCH   5   7
ENDBRANCH   1   5
TORSDOF 2
ENDMDL
MODEL 4
REMARK VINA RESULT:      -2.5     13.315     13.360
REMARK  Name = 118985556
REMARK  2 active torsions:
REMARK  status: ('A' for Active; 'I' for Inactive)
REMARK    1  A    between atoms: N_1  and  C_5
REMARK    2  A    between atoms: C_5  and  C_7
REMARK                            x       y       z     vdW  Elec       q    Type
REMARK                         _______ _______ _______ _____ _____    ______ ____
ROOT
ATOM      1  N   UNL     1      36.166 -26.911 -15.139  0.00  0.00    +0.381 N 
ATOM      2  H   UNL     1      35.871 -26.077 -15.645  0.00  0.00    -0.089 HD
ATOM      3  H   UNL     1      35.465 -27.150 -14.438  0.00  0.00    -0.089 HD
ATOM      4  H   UNL     1      36.270 -27.687 -15.793  0.00  0.00    -0.089 HD
ENDROOT
BRANCH   1   5
ATOM      5  C   UNL     1      37.467 -26.650 -14.470  0.00  0.00    -0.073 C 
BRANCH   5   7
ATOM      6  S   UNL     1      38.195 -24.755 -12.636  0.00  0.00    -0.084 S 
ATOM      7  C   UNL     1      37.206 -26.248 -13.022  0.00  0.00    +0.045 C 
ENDBRANCH   5   7
ENDBRANCH   1   5
TORSDOF 2
ENDMDL
MODEL 5
REMARK VINA RESULT:      -2.5     10.740     10.838
REMARK  Name = 118985556
REMARK  2 active torsions:
REMARK  status: ('A' for Active; 'I' for Inactive)
REMARK    1  A    between atoms: N_1  and  C_5
REMARK    2  A    between atoms: C_5  and  C_7
REMARK                            x       y       z     vdW  Elec       q    Type
REMARK                         _______ _______ _______ _____ _____    ______ ____
ROOT
ATOM      1  N   UNL     1      32.694 -20.913 -19.508  0.00  0.00    +0.381 N 
ATOM      2  H   UNL     1      32.456 -20.277 -18.748  0.00  0.00    -0.089 HD
ATOM      3  H   UNL     1      33.405 -21.572 -19.190  0.00  0.00    -0.089 HD
ATOM      4  H   UNL     1      31.860 -21.426 -19.795  0.00  0.00    -0.089 HD
ENDROOT
BRANCH   1   5
ATOM      5  C   UNL     1      33.218 -20.135 -20.660  0.00  0.00    -0.073 C 
BRANCH   5   7
ATOM      6  S   UNL     1      35.381 -18.622 -21.379  0.00  0.00    -0.084 S 
ATOM      7  C   UNL     1      34.743 -20.164 -20.622  0.00  0.00    +0.045 C 
ENDBRANCH   5   7
ENDBRANCH   1   5
TORSDOF 2
ENDMDL
MODEL 6
REMARK VINA RESULT:      -2.4      4.217      4.338
REMARK  Name = 118985556
REMARK  2 active torsions:
REMARK  status: ('A' for Active; 'I' for Inactive)
REMARK    1  A    between atoms: N_1  and  C_5
REMARK    2  A    between atoms: C_5  and  C_7
REMARK                            x       y       z     vdW  Elec       q    Type
REMARK                         _______ _______ _______ _____ _____    ______ ____
ROOT
ATOM      1  N   UNL     1      43.074 -16.633 -19.360  0.00  0.00    +0.381 N 
ATOM      2  H   UNL     1      42.757 -15.928 -20.024  0.00  0.00    -0.089 HD
ATOM      3  H   UNL     1      42.899 -17.563 -19.741  0.00  0.00    -0.089 HD
ATOM      4  H   UNL     1      44.074 -16.518 -19.193  0.00  0.00    -0.089 HD
ENDROOT
BRANCH   1   5
ATOM      5  C   UNL     1      42.337 -16.476 -18.079  0.00  0.00    -0.073 C 
BRANCH   5   7
ATOM      6  S   UNL     1      41.233 -14.734 -16.282  0.00  0.00    -0.084 S 
ATOM      7  C   UNL     1      41.782 -15.057 -18.000  0.00  0.00    +0.045 C 
ENDBRANCH   5   7
ENDBRANCH   1   5
TORSDOF 2
ENDMDL
MODEL 7
REMARK VINA RESULT:      -2.4      2.337      2.477
REMARK  Name = 118985556
REMARK  2 active torsions:
REMARK  status: ('A' for Active; 'I' for Inactive)
REMARK    1  A    between atoms: N_1  and  C_5
REMARK    2  A    between atoms: C_5  and  C_7
REMARK                            x       y       z     vdW  Elec       q    Type
REMARK                         _______ _______ _______ _____ _____    ______ ____
ROOT
ATOM      1  N   UNL     1      42.245 -12.665 -16.050  0.00  0.00    +0.381 N 
ATOM      2  H   UNL     1      42.574 -11.708 -15.924  0.00  0.00    -0.089 HD
ATOM      3  H   UNL     1      42.912 -13.312 -15.630  0.00  0.00    -0.089 HD
ATOM      4  H   UNL     1      41.336 -12.774 -15.599  0.00  0.00    -0.089 HD
ENDROOT
BRANCH   1   5
ATOM      5  C   UNL     1      42.117 -12.958 -17.501  0.00  0.00    -0.073 C 
BRANCH   5   7
ATOM      6  S   UNL     1      41.284 -15.150 -16.090  0.00  0.00    -0.084 S 
ATOM      7  C   UNL     1      41.298 -14.233 -17.677  0.00  0.00    +0.045 C 
ENDBRANCH   5   7
ENDBRANCH   1   5
TORSDOF 2
ENDMDL
MODEL 8
REMARK VINA RESULT:      -2.3     11.698     11.712
REMARK  Name = 118985556
REMARK  2 active torsions:
REMARK  status: ('A' for Active; 'I' for Inactive)
REMARK    1  A    between atoms: N_1  and  C_5
REMARK    2  A    between atoms: C_5  and  C_7
REMARK                            x       y       z     vdW  Elec       q    Type
REMARK                         _______ _______ _______ _____ _____    ______ ____
ROOT
ATOM      1  N   UNL     1      33.011  -7.724 -19.815  0.00  0.00    +0.381 N 
ATOM      2  H   UNL     1      33.137  -6.952 -20.469  0.00  0.00    -0.089 HD
ATOM      3  H   UNL     1      33.923  -8.083 -19.532  0.00  0.00    -0.089 HD
ATOM      4  H   UNL     1      32.506  -7.394 -18.992  0.00  0.00    -0.089 HD
ENDROOT
BRANCH   1   5
ATOM      5  C   UNL     1      32.234  -8.807 -20.471  0.00  0.00    -0.073 C 
BRANCH   5   7
ATOM      6  S   UNL     1      32.642  -9.582 -23.063  0.00  0.00    -0.084 S 
ATOM      7  C   UNL     1      31.898  -8.380 -21.897  0.00  0.00    +0.045 C 
ENDBRANCH   5   7
ENDBRANCH   1   5
TORSDOF 2
ENDMDL
MODEL 9
REMARK VINA RESULT:      -2.3     11.642     11.695
REMARK  Name = 118985556
REMARK  2 active torsions:
REMARK  status: ('A' for Active; 'I' for Inactive)
REMARK    1  A    between atoms: N_1  and  C_5
REMARK    2  A    between atoms: C_5  and  C_7
REMARK                            x       y       z     vdW  Elec       q    Type
REMARK                         _______ _______ _______ _____ _____    ______ ____
ROOT
ATOM      1  N   UNL     1      35.547 -16.579 -23.788  0.00  0.00    +0.381 N 
ATOM      2  H   UNL     1      36.137 -17.342 -23.454  0.00  0.00    -0.089 HD
ATOM      3  H   UNL     1      34.914 -16.287 -23.044  0.00  0.00    -0.089 HD
ATOM      4  H   UNL     1      36.135 -15.791 -24.063  0.00  0.00    -0.089 HD
ENDROOT
BRANCH   1   5
ATOM      5  C   UNL     1      34.757 -17.040 -24.959  0.00  0.00    -0.073 C 
BRANCH   5   7
ATOM      6  S   UNL     1      33.626 -14.737 -24.007  0.00  0.00    -0.084 S 
ATOM      7  C   UNL     1      33.820 -15.918 -25.395  0.00  0.00    +0.045 C 
ENDBRANCH   5   7
ENDBRANCH   1   5
TORSDOF 2
ENDMDL
