MODEL 1
REMARK VINA RESULT:     -11.8      0.000      0.000
REMARK  Name = 60854
REMARK  3 active torsions:
REMARK  status: ('A' for Active; 'I' for Inactive)
REMARK    1  A    between atoms: N_2  and  C_17
REMARK    2  A    between atoms: C_17  and  C_18
REMARK    3  A    between atoms: C_18  and  C_22
REMARK                            x       y       z     vdW  Elec       q    Type
REMARK                         _______ _______ _______ _____ _____    ______ ____
ROOT
ATOM      1  S   UNL     1      34.277 -17.552 -25.380  0.00  0.00    +0.014 S 
ATOM      2  N   UNL     1      32.766 -11.341 -23.752  0.00  0.00    +0.389 N 
ATOM      3  N   UNL     1      33.601 -14.054 -24.066  0.00  0.00    -0.297 N 
ATOM      4  N   UNL     1      33.813 -15.967 -25.508  0.00  0.00    -0.194 NA
ATOM      5  C   UNL     1      32.707 -12.272 -22.618  0.00  0.00    -0.055 C 
ATOM      6  C   UNL     1      33.910 -11.671 -24.609  0.00  0.00    -0.055 C 
ATOM      7  C   UNL     1      32.549 -13.717 -23.101  0.00  0.00    +0.069 C 
ATOM      8  C   UNL     1      33.791 -13.094 -25.160  0.00  0.00    +0.069 C 
ATOM      9  C   UNL     1      33.917 -15.396 -24.306  0.00  0.00    +0.140 A 
ATOM     10  C   UNL     1      34.380 -16.225 -23.226  0.00  0.00    +0.040 A 
ATOM     11  C   UNL     1      34.632 -17.515 -23.697  0.00  0.00    +0.050 A 
ATOM     12  C   UNL     1      34.602 -15.953 -21.858  0.00  0.00    +0.003 C 
ATOM     13  C   UNL     1      35.096 -18.540 -22.859  0.00  0.00    +0.008 C 
ATOM     14  C   UNL     1      35.064 -16.968 -21.014  0.00  0.00    +0.000 C 
ATOM     15  C   UNL     1      35.307 -18.244 -21.510  0.00  0.00    +0.001 C 
ATOM     16  H   UNL     1      31.909 -11.430 -24.296  0.00  0.00    -0.080 HD
ENDROOT
BRANCH   2  17
ATOM     17  C   UNL     1      32.863  -9.961 -23.276  0.00  0.00    -0.072 C 
BRANCH  17  18
ATOM     18  C   UNL     1      31.485  -9.412 -22.905  0.00  0.00    +0.004 C 
BRANCH  18  22
ATOM     19 CL   UNL     1      32.226  -8.242 -20.158  0.00  0.00    -0.083 Cl
ATOM     20  O   UNL     1      30.978  -2.304 -24.447  0.00  0.00    -0.274 OA
ATOM     21  N   UNL     1      31.477  -3.800 -22.703  0.00  0.00    -0.284 N 
ATOM     22  C   UNL     1      31.504  -7.910 -22.773  0.00  0.00    -0.014 C 
ATOM     23  C   UNL     1      31.203  -5.784 -23.782  0.00  0.00    +0.000 C 
ATOM     24  C   UNL     1      31.185  -7.160 -23.903  0.00  0.00    -0.006 C 
ATOM     25  C   UNL     1      31.530  -5.183 -22.569  0.00  0.00    +0.048 C 
ATOM     26  C   UNL     1      31.832  -7.302 -21.553  0.00  0.00    +0.055 C 
ATOM     27  C   UNL     1      30.911  -4.729 -24.799  0.00  0.00    +0.113 C 
ATOM     28  C   UNL     1      31.848  -5.910 -21.440  0.00  0.00    +0.025 C 
ATOM     29  C   UNL     1      31.114  -3.434 -24.004  0.00  0.00    +0.231 C 
ATOM     30  H   UNL     1      31.668  -3.162 -21.979  0.00  0.00    +0.155 HD
ENDBRANCH  18  22
ENDBRANCH  17  18
ENDBRANCH   2  17
TORSDOF 3
ENDMDL
MODEL 2
REMARK VINA RESULT:     -11.8      5.536     11.096
REMARK  Name = 60854
REMARK  3 active torsions:
REMARK  status: ('A' for Active; 'I' for Inactive)
REMARK    1  A    between atoms: N_2  and  C_17
REMARK    2  A    between atoms: C_17  and  C_18
REMARK    3  A    between atoms: C_18  and  C_22
REMARK                            x       y       z     vdW  Elec       q    Type
REMARK                         _______ _______ _______ _____ _____    ______ ____
ROOT
ATOM      1  S   UNL     1      31.554  -9.829 -22.083  0.00  0.00    +0.014 S 
ATOM      2  N   UNL     1      33.574 -15.918 -23.620  0.00  0.00    +0.389 N 
ATOM      3  N   UNL     1      33.071 -13.149 -23.130  0.00  0.00    -0.297 N 
ATOM      4  N   UNL     1      31.662 -11.481 -22.122  0.00  0.00    -0.194 NA
ATOM      5  C   UNL     1      33.974 -14.904 -24.604  0.00  0.00    -0.055 C 
ATOM      6  C   UNL     1      33.694 -15.371 -22.264  0.00  0.00    -0.055 C 
ATOM      7  C   UNL     1      33.086 -13.660 -24.504  0.00  0.00    +0.069 C 
ATOM      8  C   UNL     1      32.796 -14.144 -22.086  0.00  0.00    +0.069 C 
ATOM      9  C   UNL     1      32.700 -11.821 -22.888  0.00  0.00    +0.140 A 
ATOM     10  C   UNL     1      33.457 -10.751 -23.478  0.00  0.00    +0.040 A 
ATOM     11  C   UNL     1      32.908  -9.523 -23.100  0.00  0.00    +0.050 A 
ATOM     12  C   UNL     1      34.589 -10.750 -24.322  0.00  0.00    +0.003 C 
ATOM     13  C   UNL     1      33.444  -8.300 -23.530  0.00  0.00    +0.008 C 
ATOM     14  C   UNL     1      35.131  -9.536 -24.757  0.00  0.00    +0.000 C 
ATOM     15  C   UNL     1      34.564  -8.328 -24.364  0.00  0.00    +0.001 C 
ATOM     16  H   UNL     1      32.601 -16.174 -23.788  0.00  0.00    -0.080 HD
ENDROOT
BRANCH   2  17
ATOM     17  C   UNL     1      34.394 -17.121 -23.762  0.00  0.00    -0.072 C 
BRANCH  17  18
ATOM     18  C   UNL     1      35.501 -17.155 -22.709  0.00  0.00    +0.004 C 
BRANCH  18  22
ATOM     19 CL   UNL     1      38.107 -18.617 -21.973  0.00  0.00    -0.083 Cl
ATOM     20  O   UNL     1      32.759 -22.501 -18.579  0.00  0.00    -0.274 OA
ATOM     21  N   UNL     1      34.782 -21.650 -19.420  0.00  0.00    -0.284 N 
ATOM     22  C   UNL     1      35.389 -18.374 -21.827  0.00  0.00    -0.014 C 
ATOM     23  C   UNL     1      34.011 -19.866 -20.602  0.00  0.00    +0.000 C 
ATOM     24  C   UNL     1      34.114 -18.751 -21.409  0.00  0.00    -0.006 C 
ATOM     25  C   UNL     1      35.147 -20.578 -20.227  0.00  0.00    +0.048 C 
ATOM     26  C   UNL     1      36.531 -19.093 -21.449  0.00  0.00    +0.055 C 
ATOM     27  C   UNL     1      32.800 -20.507 -20.003  0.00  0.00    +0.113 C 
ATOM     28  C   UNL     1      36.417 -20.219 -20.631  0.00  0.00    +0.025 C 
ATOM     29  C   UNL     1      33.397 -21.689 -19.231  0.00  0.00    +0.231 C 
ATOM     30  H   UNL     1      35.415 -22.297 -19.034  0.00  0.00    +0.155 HD
ENDBRANCH  18  22
ENDBRANCH  17  18
ENDBRANCH   2  17
TORSDOF 3
ENDMDL
MODEL 3
REMARK VINA RESULT:     -11.1      7.206     11.157
REMARK  Name = 60854
REMARK  3 active torsions:
REMARK  status: ('A' for Active; 'I' for Inactive)
REMARK    1  A    between atoms: N_2  and  C_17
REMARK    2  A    between atoms: C_17  and  C_18
REMARK    3  A    between atoms: C_18  and  C_22
REMARK                            x       y       z     vdW  Elec       q    Type
REMARK                         _______ _______ _______ _____ _____    ______ ____
ROOT
ATOM      1  S   UNL     1      35.340 -24.960 -14.463  0.00  0.00    +0.014 S 
ATOM      2  N   UNL     1      35.908 -21.105 -19.786  0.00  0.00    +0.389 N 
ATOM      3  N   UNL     1      35.284 -22.577 -17.419  0.00  0.00    -0.297 N 
ATOM      4  N   UNL     1      35.997 -24.162 -15.757  0.00  0.00    -0.194 NA
ATOM      5  C   UNL     1      34.528 -21.529 -19.516  0.00  0.00    -0.055 C 
ATOM      6  C   UNL     1      36.593 -20.805 -18.523  0.00  0.00    -0.055 C 
ATOM      7  C   UNL     1      34.500 -22.785 -18.640  0.00  0.00    +0.069 C 
ATOM      8  C   UNL     1      36.635 -22.036 -17.615  0.00  0.00    +0.069 C 
ATOM      9  C   UNL     1      35.056 -23.389 -16.301  0.00  0.00    +0.140 A 
ATOM     10  C   UNL     1      33.755 -23.411 -15.689  0.00  0.00    +0.040 A 
ATOM     11  C   UNL     1      33.763 -24.285 -14.600  0.00  0.00    +0.050 A 
ATOM     12  C   UNL     1      32.556 -22.734 -15.999  0.00  0.00    +0.003 C 
ATOM     13  C   UNL     1      32.625 -24.507 -13.810  0.00  0.00    +0.008 C 
ATOM     14  C   UNL     1      31.416 -22.948 -15.218  0.00  0.00    +0.000 C 
ATOM     15  C   UNL     1      31.452 -23.824 -14.138  0.00  0.00    +0.001 C 
ATOM     16  H   UNL     1      36.400 -21.865 -20.255  0.00  0.00    -0.080 HD
ENDROOT
BRANCH   2  17
ATOM     17  C   UNL     1      35.922 -19.938 -20.667  0.00  0.00    -0.072 C 
BRANCH  17  18
ATOM     18  C   UNL     1      34.595 -19.800 -21.413  0.00  0.00    +0.004 C 
BRANCH  18  22
ATOM     19 CL   UNL     1      35.052 -19.980 -24.451  0.00  0.00    -0.083 Cl
ATOM     20  O   UNL     1      33.898 -12.755 -23.156  0.00  0.00    -0.274 OA
ATOM     21  N   UNL     1      34.314 -14.871 -24.091  0.00  0.00    -0.284 N 
ATOM     22  C   UNL     1      34.535 -18.515 -22.202  0.00  0.00    -0.014 C 
ATOM     23  C   UNL     1      34.222 -16.164 -22.222  0.00  0.00    +0.000 C 
ATOM     24  C   UNL     1      34.277 -17.340 -21.500  0.00  0.00    -0.006 C 
ATOM     25  C   UNL     1      34.418 -16.168 -23.600  0.00  0.00    +0.048 C 
ATOM     26  C   UNL     1      34.733 -18.516 -23.590  0.00  0.00    +0.055 C 
ATOM     27  C   UNL     1      33.968 -14.766 -21.757  0.00  0.00    +0.113 C 
ATOM     28  C   UNL     1      34.674 -17.323 -24.312  0.00  0.00    +0.025 C 
ATOM     29  C   UNL     1      34.046 -13.963 -23.061  0.00  0.00    +0.231 C 
ATOM     30  H   UNL     1      34.416 -14.625 -25.038  0.00  0.00    +0.155 HD
ENDBRANCH  18  22
ENDBRANCH  17  18
ENDBRANCH   2  17
TORSDOF 3
ENDMDL
MODEL 4
REMARK VINA RESULT:     -11.0      5.640     10.941
REMARK  Name = 60854
REMARK  3 active torsions:
REMARK  status: ('A' for Active; 'I' for Inactive)
REMARK    1  A    between atoms: N_2  and  C_17
REMARK    2  A    between atoms: C_17  and  C_18
REMARK    3  A    between atoms: C_18  and  C_22
REMARK                            x       y       z     vdW  Elec       q    Type
REMARK                         _______ _______ _______ _____ _____    ______ ____
ROOT
ATOM      1  S   UNL     1      32.928  -9.462 -23.573  0.00  0.00    +0.014 S 
ATOM      2  N   UNL     1      34.377 -15.883 -23.986  0.00  0.00    +0.389 N 
ATOM      3  N   UNL     1      33.499 -13.214 -23.474  0.00  0.00    -0.297 N 
ATOM      4  N   UNL     1      33.474 -10.910 -24.162  0.00  0.00    -0.194 NA
ATOM      5  C   UNL     1      34.188 -15.416 -22.608  0.00  0.00    -0.055 C 
ATOM      6  C   UNL     1      33.397 -15.242 -24.870  0.00  0.00    -0.055 C 
ATOM      7  C   UNL     1      34.370 -13.898 -22.512  0.00  0.00    +0.069 C 
ATOM      8  C   UNL     1      33.554 -13.720 -24.851  0.00  0.00    +0.069 C 
ATOM      9  C   UNL     1      33.176 -11.866 -23.280  0.00  0.00    +0.140 A 
ATOM     10  C   UNL     1      32.488 -11.463 -22.084  0.00  0.00    +0.040 A 
ATOM     11  C   UNL     1      32.272 -10.083 -22.109  0.00  0.00    +0.050 A 
ATOM     12  C   UNL     1      32.031 -12.195 -20.967  0.00  0.00    +0.003 C 
ATOM     13  C   UNL     1      31.618  -9.409 -21.065  0.00  0.00    +0.008 C 
ATOM     14  C   UNL     1      31.379 -11.533 -19.922  0.00  0.00    +0.000 C 
ATOM     15  C   UNL     1      31.176 -10.158 -19.972  0.00  0.00    +0.001 C 
ATOM     16  H   UNL     1      35.315 -15.629 -24.294  0.00  0.00    -0.080 HD
ENDROOT
BRANCH   2  17
ATOM     17  C   UNL     1      34.254 -17.340 -24.054  0.00  0.00    -0.072 C 
BRANCH  17  18
ATOM     18  C   UNL     1      35.567 -18.019 -23.665  0.00  0.00    +0.004 C 
BRANCH  18  22
ATOM     19 CL   UNL     1      38.089 -18.685 -22.033  0.00  0.00    -0.083 Cl
ATOM     20  O   UNL     1      32.583 -22.188 -18.481  0.00  0.00    -0.274 OA
ATOM     21  N   UNL     1      34.637 -21.300 -19.203  0.00  0.00    -0.284 N 
ATOM     22  C   UNL     1      35.396 -18.896 -22.449  0.00  0.00    -0.014 C 
ATOM     23  C   UNL     1      33.954 -20.147 -21.041  0.00  0.00    +0.000 C 
ATOM     24  C   UNL     1      34.110 -19.343 -22.153  0.00  0.00    -0.006 C 
ATOM     25  C   UNL     1      35.051 -20.490 -20.254  0.00  0.00    +0.048 C 
ATOM     26  C   UNL     1      36.498 -19.244 -21.656  0.00  0.00    +0.055 C 
ATOM     27  C   UNL     1      32.719 -20.771 -20.476  0.00  0.00    +0.113 C 
ATOM     28  C   UNL     1      36.331 -20.057 -20.533  0.00  0.00    +0.025 C 
ATOM     29  C   UNL     1      33.256 -21.523 -19.253  0.00  0.00    +0.231 C 
ATOM     30  H   UNL     1      35.236 -21.668 -18.514  0.00  0.00    +0.155 HD
ENDBRANCH  18  22
ENDBRANCH  17  18
ENDBRANCH   2  17
TORSDOF 3
ENDMDL
MODEL 5
REMARK VINA RESULT:     -11.0      1.782      2.183
REMARK  Name = 60854
REMARK  3 active torsions:
REMARK  status: ('A' for Active; 'I' for Inactive)
REMARK    1  A    between atoms: N_2  and  C_17
REMARK    2  A    between atoms: C_17  and  C_18
REMARK    3  A    between atoms: C_18  and  C_22
REMARK                            x       y       z     vdW  Elec       q    Type
REMARK                         _______ _______ _______ _____ _____    ______ ____
ROOT
ATOM      1  S   UNL     1      34.003 -15.973 -25.049  0.00  0.00    +0.014 S 
ATOM      2  N   UNL     1      32.676  -9.773 -23.229  0.00  0.00    +0.389 N 
ATOM      3  N   UNL     1      33.408 -12.507 -23.618  0.00  0.00    -0.297 N 
ATOM      4  N   UNL     1      33.616 -14.365 -25.131  0.00  0.00    -0.194 NA
ATOM      5  C   UNL     1      32.513 -10.748 -22.143  0.00  0.00    -0.055 C 
ATOM      6  C   UNL     1      33.851 -10.119 -24.037  0.00  0.00    -0.055 C 
ATOM      7  C   UNL     1      32.319 -12.162 -22.698  0.00  0.00    +0.069 C 
ATOM      8  C   UNL     1      33.701 -11.511 -24.656  0.00  0.00    +0.069 C 
ATOM      9  C   UNL     1      33.678 -13.851 -23.901  0.00  0.00    +0.140 A 
ATOM     10  C   UNL     1      34.043 -14.744 -22.835  0.00  0.00    +0.040 A 
ATOM     11  C   UNL     1      34.264 -16.023 -23.349  0.00  0.00    +0.050 A 
ATOM     12  C   UNL     1      34.199 -14.541 -21.447  0.00  0.00    +0.003 C 
ATOM     13  C   UNL     1      34.636 -17.104 -22.534  0.00  0.00    +0.008 C 
ATOM     14  C   UNL     1      34.569 -15.611 -20.626  0.00  0.00    +0.000 C 
ATOM     15  C   UNL     1      34.784 -16.875 -21.164  0.00  0.00    +0.001 C 
ATOM     16  H   UNL     1      31.847  -9.800 -23.822  0.00  0.00    -0.080 HD
ENDROOT
BRANCH   2  17
ATOM     17  C   UNL     1      32.806  -8.420 -22.687  0.00  0.00    -0.072 C 
BRANCH  17  18
ATOM     18  C   UNL     1      31.471  -7.677 -22.747  0.00  0.00    +0.004 C 
BRANCH  18  22
ATOM     19 CL   UNL     1      30.239  -5.214 -21.376  0.00  0.00    -0.083 Cl
ATOM     20  O   UNL     1      33.220  -2.568 -27.646  0.00  0.00    -0.274 OA
ATOM     21  N   UNL     1      32.134  -2.875 -25.584  0.00  0.00    -0.284 N 
ATOM     22  C   UNL     1      31.609  -6.349 -23.450  0.00  0.00    -0.014 C 
ATOM     23  C   UNL     1      32.410  -5.117 -25.312  0.00  0.00    +0.000 C 
ATOM     24  C   UNL     1      32.284  -6.332 -24.669  0.00  0.00    -0.006 C 
ATOM     25  C   UNL     1      31.878  -3.959 -24.751  0.00  0.00    +0.048 C 
ATOM     26  C   UNL     1      31.074  -5.182 -22.888  0.00  0.00    +0.055 C 
ATOM     27  C   UNL     1      33.069  -4.784 -26.612  0.00  0.00    +0.113 C 
ATOM     28  C   UNL     1      31.207  -3.957 -23.545  0.00  0.00    +0.025 C 
ATOM     29  C   UNL     1      32.842  -3.273 -26.723  0.00  0.00    +0.231 C 
ATOM     30  H   UNL     1      31.853  -1.951 -25.397  0.00  0.00    +0.155 HD
ENDBRANCH  18  22
ENDBRANCH  17  18
ENDBRANCH   2  17
TORSDOF 3
ENDMDL
MODEL 6
REMARK VINA RESULT:     -10.9      1.839      2.614
REMARK  Name = 60854
REMARK  3 active torsions:
REMARK  status: ('A' for Active; 'I' for Inactive)
REMARK    1  A    between atoms: N_2  and  C_17
REMARK    2  A    between atoms: C_17  and  C_18
REMARK    3  A    between atoms: C_18  and  C_22
REMARK                            x       y       z     vdW  Elec       q    Type
REMARK                         _______ _______ _______ _____ _____    ______ ____
ROOT
ATOM      1  S   UNL     1      35.502 -18.403 -20.976  0.00  0.00    +0.014 S 
ATOM      2  N   UNL     1      33.003 -12.508 -22.559  0.00  0.00    +0.389 N 
ATOM      3  N   UNL     1      33.934 -15.191 -22.257  0.00  0.00    -0.297 N 
ATOM      4  N   UNL     1      34.954 -16.846 -20.842  0.00  0.00    -0.194 NA
ATOM      5  C   UNL     1      33.542 -13.242 -23.711  0.00  0.00    -0.055 C 
ATOM      6  C   UNL     1      32.312 -13.436 -21.655  0.00  0.00    -0.055 C 
ATOM      7  C   UNL     1      34.540 -14.313 -23.263  0.00  0.00    +0.069 C 
ATOM      8  C   UNL     1      33.270 -14.511 -21.138  0.00  0.00    +0.069 C 
ATOM      9  C   UNL     1      34.477 -16.460 -22.027  0.00  0.00    +0.140 A 
ATOM     10  C   UNL     1      34.536 -17.416 -23.099  0.00  0.00    +0.040 A 
ATOM     11  C   UNL     1      35.112 -18.603 -22.640  0.00  0.00    +0.050 A 
ATOM     12  C   UNL     1      34.131 -17.343 -24.450  0.00  0.00    +0.003 C 
ATOM     13  C   UNL     1      35.297 -19.716 -23.474  0.00  0.00    +0.008 C 
ATOM     14  C   UNL     1      34.312 -18.447 -25.289  0.00  0.00    +0.000 C 
ATOM     15  C   UNL     1      34.887 -19.617 -24.806  0.00  0.00    +0.001 C 
ATOM     16  H   UNL     1      33.775 -12.071 -22.057  0.00  0.00    -0.080 HD
ENDROOT
BRANCH   2  17
ATOM     17  C   UNL     1      32.092 -11.453 -23.005  0.00  0.00    -0.072 C 
BRANCH  17  18
ATOM     18  C   UNL     1      31.315 -10.867 -21.826  0.00  0.00    +0.004 C 
BRANCH  18  22
ATOM     19 CL   UNL     1      32.295  -9.766 -19.125  0.00  0.00    -0.083 Cl
ATOM     20  O   UNL     1      31.594  -3.765 -23.449  0.00  0.00    -0.274 OA
ATOM     21  N   UNL     1      31.979  -5.292 -21.703  0.00  0.00    -0.284 N 
ATOM     22  C   UNL     1      31.518  -9.376 -21.715  0.00  0.00    -0.014 C 
ATOM     23  C   UNL     1      31.431  -7.240 -22.743  0.00  0.00    +0.000 C 
ATOM     24  C   UNL     1      31.246  -8.605 -22.843  0.00  0.00    -0.006 C 
ATOM     25  C   UNL     1      31.873  -6.670 -21.551  0.00  0.00    +0.048 C 
ATOM     26  C   UNL     1      31.962  -8.800 -20.518  0.00  0.00    +0.055 C 
ATOM     27  C   UNL     1      31.227  -6.167 -23.764  0.00  0.00    +0.113 C 
ATOM     28  C   UNL     1      32.146  -7.419 -20.425  0.00  0.00    +0.025 C 
ATOM     29  C   UNL     1      31.612  -4.899 -22.995  0.00  0.00    +0.231 C 
ATOM     30  H   UNL     1      32.272  -4.674 -20.995  0.00  0.00    +0.155 HD
ENDBRANCH  18  22
ENDBRANCH  17  18
ENDBRANCH   2  17
TORSDOF 3
ENDMDL
MODEL 7
REMARK VINA RESULT:     -10.8      6.058     11.909
REMARK  Name = 60854
REMARK  3 active torsions:
REMARK  status: ('A' for Active; 'I' for Inactive)
REMARK    1  A    between atoms: N_2  and  C_17
REMARK    2  A    between atoms: C_17  and  C_18
REMARK    3  A    between atoms: C_18  and  C_22
REMARK                            x       y       z     vdW  Elec       q    Type
REMARK                         _______ _______ _______ _____ _____    ______ ____
ROOT
ATOM      1  S   UNL     1      30.995 -11.214 -21.155  0.00  0.00    +0.014 S 
ATOM      2  N   UNL     1      34.435 -16.810 -21.755  0.00  0.00    +0.389 N 
ATOM      3  N   UNL     1      33.237 -14.218 -21.765  0.00  0.00    -0.297 N 
ATOM      4  N   UNL     1      31.562 -12.743 -20.868  0.00  0.00    -0.194 NA
ATOM      5  C   UNL     1      34.392 -16.016 -22.989  0.00  0.00    -0.055 C 
ATOM      6  C   UNL     1      34.577 -15.922 -20.595  0.00  0.00    -0.055 C 
ATOM      7  C   UNL     1      33.210 -15.043 -22.977  0.00  0.00    +0.069 C 
ATOM      8  C   UNL     1      33.401 -14.948 -20.502  0.00  0.00    +0.069 C 
ATOM      9  C   UNL     1      32.540 -13.004 -21.737  0.00  0.00    +0.140 A 
ATOM     10  C   UNL     1      32.873 -11.969 -22.678  0.00  0.00    +0.040 A 
ATOM     11  C   UNL     1      32.055 -10.857 -22.463  0.00  0.00    +0.050 A 
ATOM     12  C   UNL     1      33.833 -11.908 -23.712  0.00  0.00    +0.003 C 
ATOM     13  C   UNL     1      32.158  -9.692 -23.238  0.00  0.00    +0.008 C 
ATOM     14  C   UNL     1      33.943 -10.751 -24.490  0.00  0.00    +0.000 C 
ATOM     15  C   UNL     1      33.115  -9.658 -24.255  0.00  0.00    +0.001 C 
ATOM     16  H   UNL     1      33.562 -17.330 -21.668  0.00  0.00    -0.080 HD
ENDROOT
BRANCH   2  17
ATOM     17  C   UNL     1      35.536 -17.773 -21.803  0.00  0.00    -0.072 C 
BRANCH  17  18
ATOM     18  C   UNL     1      35.030 -19.163 -22.187  0.00  0.00    +0.004 C 
BRANCH  18  22
ATOM     19 CL   UNL     1      32.173 -20.033 -21.450  0.00  0.00    -0.083 Cl
ATOM     20  O   UNL     1      36.478 -23.184 -16.279  0.00  0.00    -0.274 OA
ATOM     21  N   UNL     1      34.709 -22.437 -17.635  0.00  0.00    -0.284 N 
ATOM     22  C   UNL     1      34.863 -20.046 -20.974  0.00  0.00    -0.014 C 
ATOM     23  C   UNL     1      35.861 -21.211 -19.165  0.00  0.00    +0.000 C 
ATOM     24  C   UNL     1      36.014 -20.403 -20.275  0.00  0.00    -0.006 C 
ATOM     25  C   UNL     1      34.598 -21.644 -18.772  0.00  0.00    +0.048 C 
ATOM     26  C   UNL     1      33.593 -20.483 -20.576  0.00  0.00    +0.055 C 
ATOM     27  C   UNL     1      36.890 -21.753 -18.225  0.00  0.00    +0.113 C 
ATOM     28  C   UNL     1      33.448 -21.299 -19.452  0.00  0.00    +0.025 C 
ATOM     29  C   UNL     1      36.044 -22.559 -17.234  0.00  0.00    +0.231 C 
ATOM     30  H   UNL     1      33.948 -22.858 -17.173  0.00  0.00    +0.155 HD
ENDBRANCH  18  22
ENDBRANCH  17  18
ENDBRANCH   2  17
TORSDOF 3
ENDMDL
MODEL 8
REMARK VINA RESULT:     -10.8      1.464      1.733
REMARK  Name = 60854
REMARK  3 active torsions:
REMARK  status: ('A' for Active; 'I' for Inactive)
REMARK    1  A    between atoms: N_2  and  C_17
REMARK    2  A    between atoms: C_17  and  C_18
REMARK    3  A    between atoms: C_18  and  C_22
REMARK                            x       y       z     vdW  Elec       q    Type
REMARK                         _______ _______ _______ _____ _____    ______ ____
ROOT
ATOM      1  S   UNL     1      34.586 -17.230 -25.295  0.00  0.00    +0.014 S 
ATOM      2  N   UNL     1      32.065 -11.671 -22.795  0.00  0.00    +0.389 N 
ATOM      3  N   UNL     1      33.337 -14.132 -23.489  0.00  0.00    -0.297 N 
ATOM      4  N   UNL     1      33.867 -15.742 -25.196  0.00  0.00    -0.194 NA
ATOM      5  C   UNL     1      32.157 -12.762 -21.817  0.00  0.00    -0.055 C 
ATOM      6  C   UNL     1      33.251 -11.675 -23.660  0.00  0.00    -0.055 C 
ATOM      7  C   UNL     1      32.241 -14.122 -22.516  0.00  0.00    +0.069 C 
ATOM      8  C   UNL     1      33.370 -12.998 -24.421  0.00  0.00    +0.069 C 
ATOM      9  C   UNL     1      33.872 -15.352 -23.920  0.00  0.00    +0.140 A 
ATOM     10  C   UNL     1      34.461 -16.250 -22.963  0.00  0.00    +0.040 A 
ATOM     11  C   UNL     1      34.924 -17.394 -23.616  0.00  0.00    +0.050 A 
ATOM     12  C   UNL     1      34.630 -16.158 -21.565  0.00  0.00    +0.003 C 
ATOM     13  C   UNL     1      35.549 -18.447 -22.929  0.00  0.00    +0.008 C 
ATOM     14  C   UNL     1      35.251 -17.202 -20.870  0.00  0.00    +0.000 C 
ATOM     15  C   UNL     1      35.704 -18.330 -21.545  0.00  0.00    +0.001 C 
ATOM     16  H   UNL     1      31.236 -11.815 -23.371  0.00  0.00    -0.080 HD
ENDROOT
BRANCH   2  17
ATOM     17  C   UNL     1      31.931 -10.383 -22.115  0.00  0.00    -0.072 C 
BRANCH  17  18
ATOM     18  C   UNL     1      33.177  -9.523 -22.322  0.00  0.00    +0.004 C 
BRANCH  18  22
ATOM     19 CL   UNL     1      34.699  -8.271 -24.685  0.00  0.00    -0.083 Cl
ATOM     20  O   UNL     1      29.995  -2.964 -22.466  0.00  0.00    -0.274 OA
ATOM     21  N   UNL     1      31.632  -4.264 -23.544  0.00  0.00    -0.284 N 
ATOM     22  C   UNL     1      32.817  -8.110 -22.710  0.00  0.00    -0.014 C 
ATOM     23  C   UNL     1      31.492  -6.180 -22.327  0.00  0.00    +0.000 C 
ATOM     24  C   UNL     1      31.822  -7.474 -21.972  0.00  0.00    -0.006 C 
ATOM     25  C   UNL     1      32.138  -5.549 -23.387  0.00  0.00    +0.048 C 
ATOM     26  C   UNL     1      33.466  -7.472 -23.776  0.00  0.00    +0.055 C 
ATOM     27  C   UNL     1      30.482  -5.252 -21.733  0.00  0.00    +0.113 C 
ATOM     28  C   UNL     1      33.125  -6.165 -24.129  0.00  0.00    +0.025 C 
ATOM     29  C   UNL     1      30.636  -3.996 -22.598  0.00  0.00    +0.231 C 
ATOM     30  H   UNL     1      31.935  -3.626 -24.229  0.00  0.00    +0.155 HD
ENDBRANCH  18  22
ENDBRANCH  17  18
ENDBRANCH   2  17
TORSDOF 3
ENDMDL
MODEL 9
REMARK VINA RESULT:     -10.7      1.505      2.205
REMARK  Name = 60854
REMARK  3 active torsions:
REMARK  status: ('A' for Active; 'I' for Inactive)
REMARK    1  A    between atoms: N_2  and  C_17
REMARK    2  A    between atoms: C_17  and  C_18
REMARK    3  A    between atoms: C_18  and  C_22
REMARK                            x       y       z     vdW  Elec       q    Type
REMARK                         _______ _______ _______ _____ _____    ______ ____
ROOT
ATOM      1  S   UNL     1      34.912 -17.254 -21.114  0.00  0.00    +0.014 S 
ATOM      2  N   UNL     1      32.530 -11.244 -22.424  0.00  0.00    +0.389 N 
ATOM      3  N   UNL     1      33.450 -13.943 -22.262  0.00  0.00    -0.297 N 
ATOM      4  N   UNL     1      34.340 -15.715 -20.901  0.00  0.00    -0.194 NA
ATOM      5  C   UNL     1      33.186 -11.876 -23.576  0.00  0.00    -0.055 C 
ATOM      6  C   UNL     1      31.761 -12.247 -21.676  0.00  0.00    -0.055 C 
ATOM      7  C   UNL     1      34.144 -12.981 -23.124  0.00  0.00    +0.069 C 
ATOM      8  C   UNL     1      32.673 -13.363 -21.160  0.00  0.00    +0.069 C 
ATOM      9  C   UNL     1      33.978 -15.228 -22.089  0.00  0.00    +0.140 A 
ATOM     10  C   UNL     1      34.152 -16.087 -23.229  0.00  0.00    +0.040 A 
ATOM     11  C   UNL     1      34.689 -17.309 -22.819  0.00  0.00    +0.050 A 
ATOM     12  C   UNL     1      33.882 -15.898 -24.602  0.00  0.00    +0.003 C 
ATOM     13  C   UNL     1      34.966 -18.346 -23.723  0.00  0.00    +0.008 C 
ATOM     14  C   UNL     1      34.154 -16.925 -25.511  0.00  0.00    +0.000 C 
ATOM     15  C   UNL     1      34.689 -18.132 -25.076  0.00  0.00    +0.001 C 
ATOM     16  H   UNL     1      33.245 -10.852 -21.812  0.00  0.00    -0.080 HD
ENDROOT
BRANCH   2  17
ATOM     17  C   UNL     1      31.658 -10.155 -22.865  0.00  0.00    -0.072 C 
BRANCH  17  18
ATOM     18  C   UNL     1      32.452  -9.094 -23.627  0.00  0.00    +0.004 C 
BRANCH  18  22
ATOM     19 CL   UNL     1      32.433  -8.410 -20.627  0.00  0.00    -0.083 Cl
ATOM     20  O   UNL     1      30.199  -2.169 -23.984  0.00  0.00    -0.274 OA
ATOM     21  N   UNL     1      30.841  -3.842 -22.462  0.00  0.00    -0.284 N 
ATOM     22  C   UNL     1      32.030  -7.699 -23.235  0.00  0.00    -0.014 C 
ATOM     23  C   UNL     1      31.293  -5.545 -23.900  0.00  0.00    +0.000 C 
ATOM     24  C   UNL     1      31.680  -6.821 -24.258  0.00  0.00    -0.006 C 
ATOM     25  C   UNL     1      31.260  -5.163 -22.561  0.00  0.00    +0.048 C 
ATOM     26  C   UNL     1      31.996  -7.313 -21.888  0.00  0.00    +0.055 C 
ATOM     27  C   UNL     1      30.866  -4.397 -24.757  0.00  0.00    +0.113 C 
ATOM     28  C   UNL     1      31.604  -6.020 -21.535  0.00  0.00    +0.025 C 
ATOM     29  C   UNL     1      30.581  -3.300 -23.725  0.00  0.00    +0.231 C 
ATOM     30  H   UNL     1      30.739  -3.351 -21.614  0.00  0.00    +0.155 HD
ENDBRANCH  18  22
ENDBRANCH  17  18
ENDBRANCH   2  17
TORSDOF 3
ENDMDL
