MODEL 1
REMARK VINA RESULT:      -6.2      0.000      0.000
REMARK  Name = 439650
REMARK  4 active torsions:
REMARK  status: ('A' for Active; 'I' for Inactive)
REMARK    1  A    between atoms: C_2  and  O_8
REMARK    2  A    between atoms: C_3  and  O_10
REMARK    3  A    between atoms: C_4  and  O_12
REMARK    4  A    between atoms: C_6  and  O_14
REMARK                            x       y       z     vdW  Elec       q    Type
REMARK                         _______ _______ _______ _____ _____    ______ ____
ROOT
ATOM      1  O   UNL     1      39.023 -24.302 -12.795  0.00  0.00    -0.329 OA
ATOM      2  C   UNL     1      36.776 -24.504 -14.564  0.00  0.00    +0.171 C 
ATOM      3  C   UNL     1      38.179 -24.951 -14.976  0.00  0.00    +0.167 C 
ATOM      4  C   UNL     1      36.838 -23.449 -13.459  0.00  0.00    +0.196 C 
ATOM      5  C   UNL     1      38.971 -25.380 -13.737  0.00  0.00    +0.147 C 
ATOM      6  C   UNL     1      37.736 -23.918 -12.312  0.00  0.00    +0.262 C 
ATOM      7  C   UNL     1      40.409 -25.760 -14.072  0.00  0.00    +0.035 C 
ENDROOT
BRANCH   2   8
ATOM      8  O   UNL     1      36.082 -23.967 -15.686  0.00  0.00    -0.379 OA
ATOM      9  H   UNL     1      36.261 -23.016 -15.753  0.00  0.00    +0.211 HD
ENDBRANCH   2   8
BRANCH   3  10
ATOM     10  O   UNL     1      38.858 -23.867 -15.613  0.00  0.00    -0.379 OA
ATOM     11  H   UNL     1      38.702 -23.904 -16.569  0.00  0.00    +0.211 HD
ENDBRANCH   3  10
BRANCH   4  12
ATOM     12  O   UNL     1      35.524 -23.229 -12.946  0.00  0.00    -0.378 OA
ATOM     13  H   UNL     1      35.556 -23.194 -11.977  0.00  0.00    +0.211 HD
ENDBRANCH   4  12
BRANCH   6  14
ATOM     14  O   UNL     1      37.868 -22.837 -11.390  0.00  0.00    -0.358 OA
ATOM     15  H   UNL     1      37.343 -22.082 -11.700  0.00  0.00    +0.213 HD
ENDBRANCH   6  14
TORSDOF 4
ENDMDL
MODEL 2
REMARK VINA RESULT:      -6.1      1.928      4.196
REMARK  Name = 439650
REMARK  4 active torsions:
REMARK  status: ('A' for Active; 'I' for Inactive)
REMARK    1  A    between atoms: C_2  and  O_8
REMARK    2  A    between atoms: C_3  and  O_10
REMARK    3  A    between atoms: C_4  and  O_12
REMARK    4  A    between atoms: C_6  and  O_14
REMARK                            x       y       z     vdW  Elec       q    Type
REMARK                         _______ _______ _______ _____ _____    ______ ____
ROOT
ATOM      1  O   UNL     1      35.810 -25.187 -15.590  0.00  0.00    -0.329 OA
ATOM      2  C   UNL     1      38.042 -24.918 -13.810  0.00  0.00    +0.171 C 
ATOM      3  C   UNL     1      37.115 -23.746 -14.135  0.00  0.00    +0.167 C 
ATOM      4  C   UNL     1      38.027 -25.958 -14.932  0.00  0.00    +0.196 C 
ATOM      5  C   UNL     1      35.720 -24.272 -14.491  0.00  0.00    +0.147 C 
ATOM      6  C   UNL     1      36.591 -26.344 -15.293  0.00  0.00    +0.262 C 
ATOM      7  C   UNL     1      34.768 -23.156 -14.905  0.00  0.00    +0.035 C 
ENDROOT
BRANCH   2   8
ATOM      8  O   UNL     1      39.374 -24.452 -13.621  0.00  0.00    -0.379 OA
ATOM      9  H   UNL     1      39.663 -24.655 -12.717  0.00  0.00    +0.211 HD
ENDBRANCH   2   8
BRANCH   3  10
ATOM     10  O   UNL     1      37.636 -23.018 -15.248  0.00  0.00    -0.379 OA
ATOM     11  H   UNL     1      38.238 -23.586 -15.753  0.00  0.00    +0.211 HD
ENDBRANCH   3  10
BRANCH   4  12
ATOM     12  O   UNL     1      38.715 -27.129 -14.495  0.00  0.00    -0.378 OA
ATOM     13  H   UNL     1      38.283 -27.481 -13.700  0.00  0.00    +0.211 HD
ENDBRANCH   4  12
BRANCH   6  14
ATOM     14  O   UNL     1      36.642 -27.198 -16.436  0.00  0.00    -0.358 OA
ATOM     15  H   UNL     1      36.292 -26.725 -17.208  0.00  0.00    +0.213 HD
ENDBRANCH   6  14
TORSDOF 4
ENDMDL
MODEL 3
REMARK VINA RESULT:      -6.0      2.141      2.871
REMARK  Name = 439650
REMARK  4 active torsions:
REMARK  status: ('A' for Active; 'I' for Inactive)
REMARK    1  A    between atoms: C_2  and  O_8
REMARK    2  A    between atoms: C_3  and  O_10
REMARK    3  A    between atoms: C_4  and  O_12
REMARK    4  A    between atoms: C_6  and  O_14
REMARK                            x       y       z     vdW  Elec       q    Type
REMARK                         _______ _______ _______ _____ _____    ______ ____
ROOT
ATOM      1  O   UNL     1      37.372 -22.977 -13.263  0.00  0.00    -0.329 OA
ATOM      2  C   UNL     1      35.059 -24.665 -13.111  0.00  0.00    +0.171 C 
ATOM      3  C   UNL     1      35.454 -23.939 -14.398  0.00  0.00    +0.167 C 
ATOM      4  C   UNL     1      35.610 -23.942 -11.881  0.00  0.00    +0.196 C 
ATOM      5  C   UNL     1      36.969 -23.716 -14.423  0.00  0.00    +0.147 C 
ATOM      6  C   UNL     1      37.107 -23.666 -12.041  0.00  0.00    +0.262 C 
ATOM      7  C   UNL     1      37.418 -22.922 -15.645  0.00  0.00    +0.035 C 
ENDROOT
BRANCH   2   8
ATOM      8  O   UNL     1      33.641 -24.749 -13.010  0.00  0.00    -0.379 OA
ATOM      9  H   UNL     1      33.283 -25.163 -13.810  0.00  0.00    +0.211 HD
ENDBRANCH   2   8
BRANCH   3  10
ATOM     10  O   UNL     1      34.794 -22.673 -14.455  0.00  0.00    -0.379 OA
ATOM     11  H   UNL     1      35.245 -22.101 -15.094  0.00  0.00    +0.211 HD
ENDBRANCH   3  10
BRANCH   4  12
ATOM     12  O   UNL     1      35.421 -24.764 -10.730  0.00  0.00    -0.378 OA
ATOM     13  H   UNL     1      34.706 -24.399 -10.185  0.00  0.00    +0.211 HD
ENDBRANCH   4  12
BRANCH   6  14
ATOM     14  O   UNL     1      37.524 -22.865 -10.935  0.00  0.00    -0.358 OA
ATOM     15  H   UNL     1      37.598 -23.422 -10.144  0.00  0.00    +0.213 HD
ENDBRANCH   6  14
TORSDOF 4
ENDMDL
MODEL 4
REMARK VINA RESULT:      -6.0      1.875      3.614
REMARK  Name = 439650
REMARK  4 active torsions:
REMARK  status: ('A' for Active; 'I' for Inactive)
REMARK    1  A    between atoms: C_2  and  O_8
REMARK    2  A    between atoms: C_3  and  O_10
REMARK    3  A    between atoms: C_4  and  O_12
REMARK    4  A    between atoms: C_6  and  O_14
REMARK                            x       y       z     vdW  Elec       q    Type
REMARK                         _______ _______ _______ _____ _____    ______ ____
ROOT
ATOM      1  O   UNL     1      38.073 -23.506 -13.668  0.00  0.00    -0.329 OA
ATOM      2  C   UNL     1      36.765 -26.058 -13.648  0.00  0.00    +0.171 C 
ATOM      3  C   UNL     1      36.870 -25.187 -12.395  0.00  0.00    +0.167 C 
ATOM      4  C   UNL     1      37.887 -25.736 -14.636  0.00  0.00    +0.196 C 
ATOM      5  C   UNL     1      36.955 -23.711 -12.796  0.00  0.00    +0.147 C 
ATOM      6  C   UNL     1      37.966 -24.230 -14.894  0.00  0.00    +0.262 C 
ATOM      7  C   UNL     1      37.144 -22.794 -11.592  0.00  0.00    +0.035 C 
ENDROOT
BRANCH   2   8
ATOM      8  O   UNL     1      36.832 -27.436 -13.296  0.00  0.00    -0.379 OA
ATOM      9  H   UNL     1      36.887 -27.521 -12.331  0.00  0.00    +0.211 HD
ENDBRANCH   2   8
BRANCH   3  10
ATOM     10  O   UNL     1      38.045 -25.541 -11.664  0.00  0.00    -0.379 OA
ATOM     11  H   UNL     1      38.831 -25.335 -12.194  0.00  0.00    +0.211 HD
ENDBRANCH   3  10
BRANCH   4  12
ATOM     12  O   UNL     1      37.624 -26.395 -15.875  0.00  0.00    -0.378 OA
ATOM     13  H   UNL     1      37.932 -25.840 -16.609  0.00  0.00    +0.211 HD
ENDBRANCH   4  12
BRANCH   6  14
ATOM     14  O   UNL     1      39.117 -23.984 -15.702  0.00  0.00    -0.358 OA
ATOM     15  H   UNL     1      38.983 -23.172 -16.216  0.00  0.00    +0.213 HD
ENDBRANCH   6  14
TORSDOF 4
ENDMDL
MODEL 5
REMARK VINA RESULT:      -5.9      1.956      3.374
REMARK  Name = 439650
REMARK  4 active torsions:
REMARK  status: ('A' for Active; 'I' for Inactive)
REMARK    1  A    between atoms: C_2  and  O_8
REMARK    2  A    between atoms: C_3  and  O_10
REMARK    3  A    between atoms: C_4  and  O_12
REMARK    4  A    between atoms: C_6  and  O_14
REMARK                            x       y       z     vdW  Elec       q    Type
REMARK                         _______ _______ _______ _____ _____    ______ ____
ROOT
ATOM      1  O   UNL     1      36.790 -24.700 -14.303  0.00  0.00    -0.329 OA
ATOM      2  C   UNL     1      35.903 -24.397 -11.593  0.00  0.00    +0.171 C 
ATOM      3  C   UNL     1      37.183 -25.154 -11.951  0.00  0.00    +0.167 C 
ATOM      4  C   UNL     1      34.923 -24.390 -12.767  0.00  0.00    +0.196 C 
ATOM      5  C   UNL     1      37.764 -24.602 -13.256  0.00  0.00    +0.147 C 
ATOM      6  C   UNL     1      35.617 -23.928 -14.050  0.00  0.00    +0.262 C 
ATOM      7  C   UNL     1      38.999 -25.371 -13.712  0.00  0.00    +0.035 C 
ENDROOT
BRANCH   2   8
ATOM      8  O   UNL     1      35.277 -24.997 -10.463  0.00  0.00    -0.379 OA
ATOM      9  H   UNL     1      35.807 -24.822  -9.669  0.00  0.00    +0.211 HD
ENDBRANCH   2   8
BRANCH   3  10
ATOM     10  O   UNL     1      36.886 -26.541 -12.122  0.00  0.00    -0.379 OA
ATOM     11  H   UNL     1      37.039 -26.794 -13.045  0.00  0.00    +0.211 HD
ENDBRANCH   3  10
BRANCH   4  12
ATOM     12  O   UNL     1      33.853 -23.490 -12.480  0.00  0.00    -0.378 OA
ATOM     13  H   UNL     1      34.130 -22.582 -12.682  0.00  0.00    +0.211 HD
ENDBRANCH   4  12
BRANCH   6  14
ATOM     14  O   UNL     1      34.694 -24.084 -15.127  0.00  0.00    -0.358 OA
ATOM     15  H   UNL     1      35.028 -24.755 -15.744  0.00  0.00    +0.213 HD
ENDBRANCH   6  14
TORSDOF 4
ENDMDL
MODEL 6
REMARK VINA RESULT:      -5.9     10.355     11.423
REMARK  Name = 439650
REMARK  4 active torsions:
REMARK  status: ('A' for Active; 'I' for Inactive)
REMARK    1  A    between atoms: C_2  and  O_8
REMARK    2  A    between atoms: C_3  and  O_10
REMARK    3  A    between atoms: C_4  and  O_12
REMARK    4  A    between atoms: C_6  and  O_14
REMARK                            x       y       z     vdW  Elec       q    Type
REMARK                         _______ _______ _______ _____ _____    ______ ____
ROOT
ATOM      1  O   UNL     1      35.144 -17.481 -20.664  0.00  0.00    -0.329 OA
ATOM      2  C   UNL     1      34.714 -17.085 -23.471  0.00  0.00    +0.171 C 
ATOM      3  C   UNL     1      35.312 -18.377 -22.914  0.00  0.00    +0.167 C 
ATOM      4  C   UNL     1      34.959 -15.912 -22.520  0.00  0.00    +0.196 C 
ATOM      5  C   UNL     1      34.809 -18.607 -21.485  0.00  0.00    +0.147 C 
ATOM      6  C   UNL     1      34.526 -16.269 -21.097  0.00  0.00    +0.262 C 
ATOM      7  C   UNL     1      35.433 -19.840 -20.842  0.00  0.00    +0.035 C 
ENDROOT
BRANCH   2   8
ATOM      8  O   UNL     1      35.287 -16.786 -24.741  0.00  0.00    -0.379 OA
ATOM      9  H   UNL     1      34.748 -17.187 -25.441  0.00  0.00    +0.211 HD
ENDBRANCH   2   8
BRANCH   3  10
ATOM     10  O   UNL     1      36.737 -18.277 -22.897  0.00  0.00    -0.379 OA
ATOM     11  H   UNL     1      37.123 -19.165 -22.850  0.00  0.00    +0.211 HD
ENDBRANCH   3  10
BRANCH   4  12
ATOM     12  O   UNL     1      34.197 -14.787 -22.957  0.00  0.00    -0.378 OA
ATOM     13  H   UNL     1      34.777 -14.014 -23.037  0.00  0.00    +0.211 HD
ENDBRANCH   4  12
BRANCH   6  14
ATOM     14  O   UNL     1      34.914 -15.197 -20.239  0.00  0.00    -0.358 OA
ATOM     15  H   UNL     1      34.128 -14.694 -19.974  0.00  0.00    +0.213 HD
ENDBRANCH   6  14
TORSDOF 4
ENDMDL
MODEL 7
REMARK VINA RESULT:      -5.9      2.217      3.631
REMARK  Name = 439650
REMARK  4 active torsions:
REMARK  status: ('A' for Active; 'I' for Inactive)
REMARK    1  A    between atoms: C_2  and  O_8
REMARK    2  A    between atoms: C_3  and  O_10
REMARK    3  A    between atoms: C_4  and  O_12
REMARK    4  A    between atoms: C_6  and  O_14
REMARK                            x       y       z     vdW  Elec       q    Type
REMARK                         _______ _______ _______ _____ _____    ______ ____
ROOT
ATOM      1  O   UNL     1      35.060 -24.578 -13.219  0.00  0.00    -0.329 OA
ATOM      2  C   UNL     1      37.590 -25.673 -14.006  0.00  0.00    +0.171 C 
ATOM      3  C   UNL     1      36.488 -25.362 -15.019  0.00  0.00    +0.167 C 
ATOM      4  C   UNL     1      37.005 -25.918 -12.615  0.00  0.00    +0.196 C 
ATOM      5  C   UNL     1      35.608 -24.223 -14.494  0.00  0.00    +0.147 C 
ATOM      6  C   UNL     1      36.056 -24.784 -12.219  0.00  0.00    +0.262 C 
ATOM      7  C   UNL     1      34.438 -23.918 -15.423  0.00  0.00    +0.035 C 
ENDROOT
BRANCH   2   8
ATOM      8  O   UNL     1      38.323 -26.823 -14.415  0.00  0.00    -0.379 OA
ATOM      9  H   UNL     1      38.533 -27.367 -13.640  0.00  0.00    +0.211 HD
ENDBRANCH   2   8
BRANCH   3  10
ATOM     10  O   UNL     1      35.679 -26.523 -15.218  0.00  0.00    -0.379 OA
ATOM     11  H   UNL     1      36.109 -27.290 -14.810  0.00  0.00    +0.211 HD
ENDBRANCH   3  10
BRANCH   4  12
ATOM     12  O   UNL     1      38.066 -25.976 -11.662  0.00  0.00    -0.378 OA
ATOM     13  H   UNL     1      38.242 -26.901 -11.429  0.00  0.00    +0.211 HD
ENDBRANCH   4  12
BRANCH   6  14
ATOM     14  O   UNL     1      35.435 -25.144 -10.985  0.00  0.00    -0.358 OA
ATOM     15  H   UNL     1      34.524 -24.811 -10.973  0.00  0.00    +0.213 HD
ENDBRANCH   6  14
TORSDOF 4
ENDMDL
MODEL 8
REMARK VINA RESULT:      -5.8      1.746      3.646
REMARK  Name = 439650
REMARK  4 active torsions:
REMARK  status: ('A' for Active; 'I' for Inactive)
REMARK    1  A    between atoms: C_2  and  O_8
REMARK    2  A    between atoms: C_3  and  O_10
REMARK    3  A    between atoms: C_4  and  O_12
REMARK    4  A    between atoms: C_6  and  O_14
REMARK                            x       y       z     vdW  Elec       q    Type
REMARK                         _______ _______ _______ _____ _____    ______ ____
ROOT
ATOM      1  O   UNL     1      36.069 -24.074 -13.762  0.00  0.00    -0.329 OA
ATOM      2  C   UNL     1      37.693 -26.419 -14.058  0.00  0.00    +0.171 C 
ATOM      3  C   UNL     1      37.984 -25.356 -12.997  0.00  0.00    +0.167 C 
ATOM      4  C   UNL     1      36.916 -25.824 -15.233  0.00  0.00    +0.196 C 
ATOM      5  C   UNL     1      36.683 -24.650 -12.602  0.00  0.00    +0.147 C 
ATOM      6  C   UNL     1      35.695 -25.047 -14.737  0.00  0.00    +0.262 C 
ATOM      7  C   UNL     1      36.917 -23.520 -11.605  0.00  0.00    +0.035 C 
ENDROOT
BRANCH   2   8
ATOM      8  O   UNL     1      38.911 -26.981 -14.537  0.00  0.00    -0.379 OA
ATOM      9  H   UNL     1      39.507 -26.269 -14.820  0.00  0.00    +0.211 HD
ENDBRANCH   2   8
BRANCH   3  10
ATOM     10  O   UNL     1      38.898 -24.393 -13.524  0.00  0.00    -0.379 OA
ATOM     11  H   UNL     1      38.405 -23.627 -13.856  0.00  0.00    +0.211 HD
ENDBRANCH   3  10
BRANCH   4  12
ATOM     12  O   UNL     1      36.468 -26.880 -16.082  0.00  0.00    -0.378 OA
ATOM     13  H   UNL     1      36.315 -26.535 -16.976  0.00  0.00    +0.211 HD
ENDBRANCH   4  12
BRANCH   6  14
ATOM     14  O   UNL     1      35.102 -24.399 -15.862  0.00  0.00    -0.358 OA
ATOM     15  H   UNL     1      34.524 -25.024 -16.327  0.00  0.00    +0.213 HD
ENDBRANCH   6  14
TORSDOF 4
ENDMDL
MODEL 9
REMARK VINA RESULT:      -5.6      1.639      3.934
REMARK  Name = 439650
REMARK  4 active torsions:
REMARK  status: ('A' for Active; 'I' for Inactive)
REMARK    1  A    between atoms: C_2  and  O_8
REMARK    2  A    between atoms: C_3  and  O_10
REMARK    3  A    between atoms: C_4  and  O_12
REMARK    4  A    between atoms: C_6  and  O_14
REMARK                            x       y       z     vdW  Elec       q    Type
REMARK                         _______ _______ _______ _____ _____    ______ ____
ROOT
ATOM      1  O   UNL     1      36.852 -23.816 -15.308  0.00  0.00    -0.329 OA
ATOM      2  C   UNL     1      36.581 -25.469 -12.980  0.00  0.00    +0.171 C 
ATOM      3  C   UNL     1      35.479 -24.509 -13.429  0.00  0.00    +0.167 C 
ATOM      4  C   UNL     1      37.949 -25.010 -13.487  0.00  0.00    +0.196 C 
ATOM      5  C   UNL     1      35.555 -24.306 -14.946  0.00  0.00    +0.147 C 
ATOM      6  C   UNL     1      37.903 -24.729 -14.990  0.00  0.00    +0.262 C 
ATOM      7  C   UNL     1      34.531 -23.293 -15.448  0.00  0.00    +0.035 C 
ENDROOT
BRANCH   2   8
ATOM      8  O   UNL     1      36.611 -25.551 -11.558  0.00  0.00    -0.379 OA
ATOM      9  H   UNL     1      35.797 -25.971 -11.241  0.00  0.00    +0.211 HD
ENDBRANCH   2   8
BRANCH   3  10
ATOM     10  O   UNL     1      35.649 -23.247 -12.780  0.00  0.00    -0.379 OA
ATOM     11  H   UNL     1      35.047 -23.189 -12.023  0.00  0.00    +0.211 HD
ENDBRANCH   3  10
BRANCH   4  12
ATOM     12  O   UNL     1      38.907 -26.040 -13.247  0.00  0.00    -0.378 OA
ATOM     13  H   UNL     1      38.505 -26.905 -13.426  0.00  0.00    +0.211 HD
ENDBRANCH   4  12
BRANCH   6  14
ATOM     14  O   UNL     1      39.160 -24.168 -15.369  0.00  0.00    -0.358 OA
ATOM     15  H   UNL     1      39.575 -24.732 -16.041  0.00  0.00    +0.213 HD
ENDBRANCH   6  14
TORSDOF 4
ENDMDL
