MODEL 1
REMARK VINA RESULT:      -7.6      0.000      0.000
REMARK  Name = 445936
REMARK  5 active torsions:
REMARK  status: ('A' for Active; 'I' for Inactive)
REMARK    1  A    between atoms: C_6  and  O_12
REMARK    2  A    between atoms: C_7  and  O_14
REMARK    3  A    between atoms: C_8  and  O_16
REMARK    4  A    between atoms: C_10  and  C_19
REMARK    5  A    between atoms: C_19  and  O_20
REMARK                            x       y       z     vdW  Elec       q    Type
REMARK                         _______ _______ _______ _____ _____    ______ ____
ROOT
ATOM      1  O   UNL     1      35.493 -23.387 -16.315  0.00  0.00    -0.326 OA
ATOM      2  O   UNL     1      35.735 -25.236 -14.124  0.00  0.00    -0.323 OA
ATOM      3  O   UNL     1      37.804 -24.589 -15.119  0.00  0.00    -0.323 OA
ATOM      4  C   UNL     1      35.324 -23.876 -13.940  0.00  0.00    +0.177 C 
ATOM      5  C   UNL     1      35.969 -23.003 -15.018  0.00  0.00    +0.177 C 
ATOM      6  C   UNL     1      33.801 -23.802 -14.043  0.00  0.00    +0.172 C 
ATOM      7  C   UNL     1      33.325 -24.090 -15.466  0.00  0.00    +0.196 C 
ATOM      8  C   UNL     1      34.086 -23.223 -16.470  0.00  0.00    +0.266 C 
ATOM      9  C   UNL     1      37.479 -23.203 -15.013  0.00  0.00    +0.177 C 
ATOM     10  C   UNL     1      37.149 -25.398 -14.149  0.00  0.00    +0.280 C 
ATOM     11  C   UNL     1      37.412 -26.849 -14.542  0.00  0.00    +0.074 C 
ENDROOT
BRANCH   6  12
ATOM     12  O   UNL     1      33.201 -24.737 -13.150  0.00  0.00    -0.379 OA
ATOM     13  H   UNL     1      32.324 -24.984 -13.481  0.00  0.00    +0.211 HD
ENDBRANCH   6  12
BRANCH   7  14
ATOM     14  O   UNL     1      31.934 -23.788 -15.566  0.00  0.00    -0.378 OA
ATOM     15  H   UNL     1      31.488 -24.480 -16.078  0.00  0.00    +0.211 HD
ENDBRANCH   7  14
BRANCH   8  16
ATOM     16  O   UNL     1      33.696 -23.628 -17.782  0.00  0.00    -0.326 OA
ATOM     17  C   UNL     1      33.657 -22.524 -18.672  0.00  0.00    +0.177 C 
ENDBRANCH   8  16
BRANCH  10  19
ATOM     18  O   UNL     1      38.648 -24.420 -12.510  0.00  0.00    -0.245 OA
ATOM     19  C   UNL     1      37.752 -25.207 -12.779  0.00  0.00    +0.366 C 
BRANCH  19  20
ATOM     20  O   UNL     1      37.166 -26.032 -11.878  0.00  0.00    -0.477 OA
ATOM     21  H   UNL     1      36.318 -26.390 -12.053  0.00  0.00    +0.295 HD
ENDBRANCH  19  20
ENDBRANCH  10  19
TORSDOF 5
ENDMDL
MODEL 2
REMARK VINA RESULT:      -7.2      7.657     10.647
REMARK  Name = 445936
REMARK  5 active torsions:
REMARK  status: ('A' for Active; 'I' for Inactive)
REMARK    1  A    between atoms: C_6  and  O_12
REMARK    2  A    between atoms: C_7  and  O_14
REMARK    3  A    between atoms: C_8  and  O_16
REMARK    4  A    between atoms: C_10  and  C_19
REMARK    5  A    between atoms: C_19  and  O_20
REMARK                            x       y       z     vdW  Elec       q    Type
REMARK                         _______ _______ _______ _____ _____    ______ ____
ROOT
ATOM      1  O   UNL     1      34.219 -16.826 -24.005  0.00  0.00    -0.326 OA
ATOM      2  O   UNL     1      34.104 -17.665 -21.255  0.00  0.00    -0.323 OA
ATOM      3  O   UNL     1      34.345 -19.438 -22.832  0.00  0.00    -0.323 OA
ATOM      4  C   UNL     1      35.221 -16.948 -21.794  0.00  0.00    +0.177 C 
ATOM      5  C   UNL     1      35.369 -17.283 -23.279  0.00  0.00    +0.177 C 
ATOM      6  C   UNL     1      34.980 -15.449 -21.613  0.00  0.00    +0.172 C 
ATOM      7  C   UNL     1      33.831 -14.961 -22.494  0.00  0.00    +0.196 C 
ATOM      8  C   UNL     1      34.036 -15.415 -23.940  0.00  0.00    +0.266 C 
ATOM      9  C   UNL     1      35.450 -18.793 -23.465  0.00  0.00    +0.177 C 
ATOM     10  C   UNL     1      34.182 -19.070 -21.468  0.00  0.00    +0.280 C 
ATOM     11  C   UNL     1      32.846 -19.653 -21.015  0.00  0.00    +0.074 C 
ENDROOT
BRANCH   6  12
ATOM     12  O   UNL     1      34.680 -15.161 -20.250  0.00  0.00    -0.379 OA
ATOM     13  H   UNL     1      34.362 -15.965 -19.811  0.00  0.00    +0.211 HD
ENDBRANCH   6  12
BRANCH   7  14
ATOM     14  O   UNL     1      33.793 -13.534 -22.467  0.00  0.00    -0.378 OA
ATOM     15  H   UNL     1      33.145 -13.240 -21.807  0.00  0.00    +0.211 HD
ENDBRANCH   7  14
BRANCH   8  16
ATOM     16  O   UNL     1      32.875 -15.045 -24.684  0.00  0.00    -0.326 OA
ATOM     17  C   UNL     1      33.161 -14.942 -26.069  0.00  0.00    +0.177 C 
ENDBRANCH   8  16
BRANCH  10  19
ATOM     18  O   UNL     1      36.304 -19.179 -20.295  0.00  0.00    -0.245 OA
ATOM     19  C   UNL     1      35.243 -19.702 -20.600  0.00  0.00    +0.366 C 
BRANCH  19  20
ATOM     20  O   UNL     1      34.860 -20.940 -20.201  0.00  0.00    -0.477 OA
ATOM     21  H   UNL     1      35.502 -21.555 -19.904  0.00  0.00    +0.295 HD
ENDBRANCH  19  20
ENDBRANCH  10  19
TORSDOF 5
ENDMDL
MODEL 3
REMARK VINA RESULT:      -6.8      1.585      5.045
REMARK  Name = 445936
REMARK  5 active torsions:
REMARK  status: ('A' for Active; 'I' for Inactive)
REMARK    1  A    between atoms: C_6  and  O_12
REMARK    2  A    between atoms: C_7  and  O_14
REMARK    3  A    between atoms: C_8  and  O_16
REMARK    4  A    between atoms: C_10  and  C_19
REMARK    5  A    between atoms: C_19  and  O_20
REMARK                            x       y       z     vdW  Elec       q    Type
REMARK                         _______ _______ _______ _____ _____    ______ ____
ROOT
ATOM      1  O   UNL     1      37.075 -23.389 -13.370  0.00  0.00    -0.326 OA
ATOM      2  O   UNL     1      35.064 -24.412 -15.156  0.00  0.00    -0.323 OA
ATOM      3  O   UNL     1      35.350 -22.045 -15.223  0.00  0.00    -0.323 OA
ATOM      4  C   UNL     1      36.463 -24.651 -15.355  0.00  0.00    +0.177 C 
ATOM      5  C   UNL     1      37.262 -23.476 -14.790  0.00  0.00    +0.177 C 
ATOM      6  C   UNL     1      36.849 -25.946 -14.640  0.00  0.00    +0.172 C 
ATOM      7  C   UNL     1      36.765 -25.788 -13.122  0.00  0.00    +0.196 C 
ATOM      8  C   UNL     1      37.529 -24.544 -12.670  0.00  0.00    +0.266 C 
ATOM      9  C   UNL     1      36.762 -22.169 -15.393  0.00  0.00    +0.177 C 
ATOM     10  C   UNL     1      34.623 -23.172 -15.698  0.00  0.00    +0.280 C 
ATOM     11  C   UNL     1      33.180 -22.986 -15.237  0.00  0.00    +0.074 C 
ENDROOT
BRANCH   6  12
ATOM     12  O   UNL     1      35.993 -27.009 -15.049  0.00  0.00    -0.379 OA
ATOM     13  H   UNL     1      35.207 -26.642 -15.483  0.00  0.00    +0.211 HD
ENDBRANCH   6  12
BRANCH   7  14
ATOM     14  O   UNL     1      37.348 -26.932 -12.499  0.00  0.00    -0.378 OA
ATOM     15  H   UNL     1      37.321 -27.684 -13.111  0.00  0.00    +0.211 HD
ENDBRANCH   7  14
BRANCH   8  16
ATOM     16  O   UNL     1      37.306 -24.377 -11.270  0.00  0.00    -0.326 OA
ATOM     17  C   UNL     1      35.942 -24.100 -10.995  0.00  0.00    +0.177 C 
ENDBRANCH   8  16
BRANCH  10  19
ATOM     18  O   UNL     1      35.338 -22.577 -17.939  0.00  0.00    -0.245 OA
ATOM     19  C   UNL     1      34.591 -23.207 -17.206  0.00  0.00    +0.366 C 
BRANCH  19  20
ATOM     20  O   UNL     1      33.614 -24.037 -17.646  0.00  0.00    -0.477 OA
ATOM     21  H   UNL     1      33.306 -23.971 -18.528  0.00  0.00    +0.295 HD
ENDBRANCH  19  20
ENDBRANCH  10  19
TORSDOF 5
ENDMDL
MODEL 4
REMARK VINA RESULT:      -6.7      2.199      3.589
REMARK  Name = 445936
REMARK  5 active torsions:
REMARK  status: ('A' for Active; 'I' for Inactive)
REMARK    1  A    between atoms: C_6  and  O_12
REMARK    2  A    between atoms: C_7  and  O_14
REMARK    3  A    between atoms: C_8  and  O_16
REMARK    4  A    between atoms: C_10  and  C_19
REMARK    5  A    between atoms: C_19  and  O_20
REMARK                            x       y       z     vdW  Elec       q    Type
REMARK                         _______ _______ _______ _____ _____    ______ ____
ROOT
ATOM      1  O   UNL     1      35.476 -23.901 -13.973  0.00  0.00    -0.326 OA
ATOM      2  O   UNL     1      37.824 -25.470 -13.419  0.00  0.00    -0.323 OA
ATOM      3  O   UNL     1      37.484 -24.958 -15.723  0.00  0.00    -0.323 OA
ATOM      4  C   UNL     1      37.708 -24.095 -13.030  0.00  0.00    +0.177 C 
ATOM      5  C   UNL     1      36.805 -23.363 -14.024  0.00  0.00    +0.177 C 
ATOM      6  C   UNL     1      37.110 -24.028 -11.624  0.00  0.00    +0.172 C 
ATOM      7  C   UNL     1      35.652 -24.486 -11.619  0.00  0.00    +0.196 C 
ATOM      8  C   UNL     1      34.856 -23.751 -12.698  0.00  0.00    +0.266 C 
ATOM      9  C   UNL     1      37.321 -23.568 -15.443  0.00  0.00    +0.177 C 
ATOM     10  C   UNL     1      38.276 -25.640 -14.757  0.00  0.00    +0.280 C 
ATOM     11  C   UNL     1      38.158 -27.129 -15.069  0.00  0.00    +0.074 C 
ENDROOT
BRANCH   6  12
ATOM     12  O   UNL     1      37.861 -24.845 -10.730  0.00  0.00    -0.379 OA
ATOM     13  H   UNL     1      37.795 -25.772 -11.007  0.00  0.00    +0.211 HD
ENDBRANCH   6  12
BRANCH   7  14
ATOM     14  O   UNL     1      35.073 -24.192 -10.348  0.00  0.00    -0.378 OA
ATOM     15  H   UNL     1      34.218 -24.643 -10.268  0.00  0.00    +0.211 HD
ENDBRANCH   7  14
BRANCH   8  16
ATOM     16  O   UNL     1      33.544 -24.311 -12.732  0.00  0.00    -0.326 OA
ATOM     17  C   UNL     1      33.007 -24.288 -14.045  0.00  0.00    +0.177 C 
ENDBRANCH   8  16
BRANCH  10  19
ATOM     18  O   UNL     1      40.406 -24.720 -14.045  0.00  0.00    -0.245 OA
ATOM     19  C   UNL     1      39.736 -25.285 -14.897  0.00  0.00    +0.366 C 
BRANCH  19  20
ATOM     20  O   UNL     1      40.211 -25.678 -16.104  0.00  0.00    -0.477 OA
ATOM     21  H   UNL     1      40.985 -25.281 -16.454  0.00  0.00    +0.295 HD
ENDBRANCH  19  20
ENDBRANCH  10  19
TORSDOF 5
ENDMDL
MODEL 5
REMARK VINA RESULT:      -6.4      1.796      3.481
REMARK  Name = 445936
REMARK  5 active torsions:
REMARK  status: ('A' for Active; 'I' for Inactive)
REMARK    1  A    between atoms: C_6  and  O_12
REMARK    2  A    between atoms: C_7  and  O_14
REMARK    3  A    between atoms: C_8  and  O_16
REMARK    4  A    between atoms: C_10  and  C_19
REMARK    5  A    between atoms: C_19  and  O_20
REMARK                            x       y       z     vdW  Elec       q    Type
REMARK                         _______ _______ _______ _____ _____    ______ ____
ROOT
ATOM      1  O   UNL     1      35.408 -25.427 -14.079  0.00  0.00    -0.326 OA
ATOM      2  O   UNL     1      38.019 -24.221 -14.020  0.00  0.00    -0.323 OA
ATOM      3  O   UNL     1      37.936 -26.465 -13.219  0.00  0.00    -0.323 OA
ATOM      4  C   UNL     1      37.358 -24.565 -15.244  0.00  0.00    +0.177 C 
ATOM      5  C   UNL     1      36.448 -25.771 -15.005  0.00  0.00    +0.177 C 
ATOM      6  C   UNL     1      36.536 -23.366 -15.716  0.00  0.00    +0.172 C 
ATOM      7  C   UNL     1      35.357 -23.100 -14.782  0.00  0.00    +0.196 C 
ATOM      8  C   UNL     1      34.559 -24.382 -14.547  0.00  0.00    +0.266 C 
ATOM      9  C   UNL     1      37.246 -26.911 -14.386  0.00  0.00    +0.177 C 
ATOM     10  C   UNL     1      38.732 -25.307 -13.440  0.00  0.00    +0.280 C 
ATOM     11  C   UNL     1      39.205 -24.833 -12.069  0.00  0.00    +0.074 C 
ENDROOT
BRANCH   6  12
ATOM     12  O   UNL     1      37.355 -22.202 -15.782  0.00  0.00    -0.379 OA
ATOM     13  H   UNL     1      36.836 -21.426 -15.520  0.00  0.00    +0.211 HD
ENDBRANCH   6  12
BRANCH   7  14
ATOM     14  O   UNL     1      34.495 -22.130 -15.378  0.00  0.00    -0.378 OA
ATOM     15  H   UNL     1      34.907 -21.783 -16.185  0.00  0.00    +0.211 HD
ENDBRANCH   7  14
BRANCH   8  16
ATOM     16  O   UNL     1      33.557 -24.102 -13.570  0.00  0.00    -0.326 OA
ATOM     17  C   UNL     1      32.358 -24.810 -13.842  0.00  0.00    +0.177 C 
ENDBRANCH   8  16
BRANCH  10  19
ATOM     18  O   UNL     1      40.229 -26.734 -14.711  0.00  0.00    -0.245 OA
ATOM     19  C   UNL     1      39.974 -25.639 -14.232  0.00  0.00    +0.366 C 
BRANCH  19  20
ATOM     20  O   UNL     1      40.777 -24.553 -14.341  0.00  0.00    -0.477 OA
ATOM     21  H   UNL     1      41.592 -24.525 -13.878  0.00  0.00    +0.295 HD
ENDBRANCH  19  20
ENDBRANCH  10  19
TORSDOF 5
ENDMDL
MODEL 6
REMARK VINA RESULT:      -6.1      1.638      3.125
REMARK  Name = 445936
REMARK  5 active torsions:
REMARK  status: ('A' for Active; 'I' for Inactive)
REMARK    1  A    between atoms: C_6  and  O_12
REMARK    2  A    between atoms: C_7  and  O_14
REMARK    3  A    between atoms: C_8  and  O_16
REMARK    4  A    between atoms: C_10  and  C_19
REMARK    5  A    between atoms: C_19  and  O_20
REMARK                            x       y       z     vdW  Elec       q    Type
REMARK                         _______ _______ _______ _____ _____    ______ ____
ROOT
ATOM      1  O   UNL     1      34.877 -24.679 -15.102  0.00  0.00    -0.326 OA
ATOM      2  O   UNL     1      36.948 -23.130 -13.842  0.00  0.00    -0.323 OA
ATOM      3  O   UNL     1      36.297 -25.088 -12.647  0.00  0.00    -0.323 OA
ATOM      4  C   UNL     1      37.166 -23.863 -15.054  0.00  0.00    +0.177 C 
ATOM      5  C   UNL     1      36.252 -25.089 -15.074  0.00  0.00    +0.177 C 
ATOM      6  C   UNL     1      36.858 -22.954 -16.243  0.00  0.00    +0.172 C 
ATOM      7  C   UNL     1      35.366 -22.636 -16.327  0.00  0.00    +0.196 C 
ATOM      8  C   UNL     1      34.539 -23.920 -16.261  0.00  0.00    +0.266 C 
ATOM      9  C   UNL     1      36.453 -25.908 -13.805  0.00  0.00    +0.177 C 
ATOM     10  C   UNL     1      37.109 -23.920 -12.669  0.00  0.00    +0.280 C 
ATOM     11  C   UNL     1      36.658 -23.053 -11.497  0.00  0.00    +0.074 C 
ENDROOT
BRANCH   6  12
ATOM     12  O   UNL     1      37.592 -21.737 -16.136  0.00  0.00    -0.379 OA
ATOM     13  H   UNL     1      38.519 -21.897 -16.371  0.00  0.00    +0.211 HD
ENDBRANCH   6  12
BRANCH   7  14
ATOM     14  O   UNL     1      35.094 -21.984 -17.567  0.00  0.00    -0.378 OA
ATOM     15  H   UNL     1      35.928 -21.803 -18.028  0.00  0.00    +0.211 HD
ENDBRANCH   7  14
BRANCH   8  16
ATOM     16  O   UNL     1      33.161 -23.553 -16.210  0.00  0.00    -0.326 OA
ATOM     17  C   UNL     1      32.724 -23.374 -14.872  0.00  0.00    +0.177 C 
ENDBRANCH   8  16
BRANCH  10  19
ATOM     18  O   UNL     1      39.127 -25.257 -12.831  0.00  0.00    -0.245 OA
ATOM     19  C   UNL     1      38.559 -24.255 -12.423  0.00  0.00    +0.366 C 
BRANCH  19  20
ATOM     20  O   UNL     1      39.155 -23.291 -11.680  0.00  0.00    -0.477 OA
ATOM     21  H   UNL     1      38.919 -23.180 -10.780  0.00  0.00    +0.295 HD
ENDBRANCH  19  20
ENDBRANCH  10  19
TORSDOF 5
ENDMDL
MODEL 7
REMARK VINA RESULT:      -6.0      2.179      6.114
REMARK  Name = 445936
REMARK  5 active torsions:
REMARK  status: ('A' for Active; 'I' for Inactive)
REMARK    1  A    between atoms: C_6  and  O_12
REMARK    2  A    between atoms: C_7  and  O_14
REMARK    3  A    between atoms: C_8  and  O_16
REMARK    4  A    between atoms: C_10  and  C_19
REMARK    5  A    between atoms: C_19  and  O_20
REMARK                            x       y       z     vdW  Elec       q    Type
REMARK                         _______ _______ _______ _____ _____    ______ ____
ROOT
ATOM      1  O   UNL     1      33.347 -23.906 -13.290  0.00  0.00    -0.326 OA
ATOM      2  O   UNL     1      31.796 -24.298 -15.681  0.00  0.00    -0.323 OA
ATOM      3  O   UNL     1      30.512 -24.028 -13.690  0.00  0.00    -0.323 OA
ATOM      4  C   UNL     1      32.545 -23.101 -15.438  0.00  0.00    +0.177 C 
ATOM      5  C   UNL     1      32.620 -22.849 -13.931  0.00  0.00    +0.177 C 
ATOM      6  C   UNL     1      33.950 -23.270 -16.016  0.00  0.00    +0.172 C 
ATOM      7  C   UNL     1      34.749 -24.311 -15.234  0.00  0.00    +0.196 C 
ATOM      8  C   UNL     1      34.696 -24.013 -13.735  0.00  0.00    +0.266 C 
ATOM      9  C   UNL     1      31.217 -22.838 -13.336  0.00  0.00    +0.177 C 
ATOM     10  C   UNL     1      30.502 -24.282 -15.090  0.00  0.00    +0.280 C 
ATOM     11  C   UNL     1      29.923 -25.683 -15.275  0.00  0.00    +0.074 C 
ENDROOT
BRANCH   6  12
ATOM     12  O   UNL     1      33.875 -23.666 -17.383  0.00  0.00    -0.379 OA
ATOM     13  H   UNL     1      34.766 -23.672 -17.767  0.00  0.00    +0.211 HD
ENDBRANCH   6  12
BRANCH   7  14
ATOM     14  O   UNL     1      36.112 -24.271 -15.658  0.00  0.00    -0.378 OA
ATOM     15  H   UNL     1      36.602 -23.636 -15.112  0.00  0.00    +0.211 HD
ENDBRANCH   7  14
BRANCH   8  16
ATOM     16  O   UNL     1      35.345 -25.085 -13.052  0.00  0.00    -0.326 OA
ATOM     17  C   UNL     1      35.769 -24.690 -11.757  0.00  0.00    +0.177 C 
ENDBRANCH   8  16
BRANCH  10  19
ATOM     18  O   UNL     1      28.441 -23.055 -15.455  0.00  0.00    -0.245 OA
ATOM     19  C   UNL     1      29.575 -23.336 -15.812  0.00  0.00    +0.366 C 
BRANCH  19  20
ATOM     20  O   UNL     1      30.171 -22.835 -16.922  0.00  0.00    -0.477 OA
ATOM     21  H   UNL     1      30.608 -22.006 -16.885  0.00  0.00    +0.295 HD
ENDBRANCH  19  20
ENDBRANCH  10  19
TORSDOF 5
ENDMDL
MODEL 8
REMARK VINA RESULT:      -6.0      1.624      4.693
REMARK  Name = 445936
REMARK  5 active torsions:
REMARK  status: ('A' for Active; 'I' for Inactive)
REMARK    1  A    between atoms: C_6  and  O_12
REMARK    2  A    between atoms: C_7  and  O_14
REMARK    3  A    between atoms: C_8  and  O_16
REMARK    4  A    between atoms: C_10  and  C_19
REMARK    5  A    between atoms: C_19  and  O_20
REMARK                            x       y       z     vdW  Elec       q    Type
REMARK                         _______ _______ _______ _____ _____    ______ ____
ROOT
ATOM      1  O   UNL     1      35.350 -22.953 -16.049  0.00  0.00    -0.326 OA
ATOM      2  O   UNL     1      33.774 -23.858 -13.819  0.00  0.00    -0.323 OA
ATOM      3  O   UNL     1      32.512 -23.022 -15.662  0.00  0.00    -0.323 OA
ATOM      4  C   UNL     1      34.516 -24.758 -14.652  0.00  0.00    +0.177 C 
ATOM      5  C   UNL     1      34.607 -24.180 -16.065  0.00  0.00    +0.177 C 
ATOM      6  C   UNL     1      35.915 -24.937 -14.063  0.00  0.00    +0.172 C 
ATOM      7  C   UNL     1      36.733 -23.651 -14.174  0.00  0.00    +0.196 C 
ATOM      8  C   UNL     1      36.695 -23.115 -15.606  0.00  0.00    +0.266 C 
ATOM      9  C   UNL     1      33.212 -23.856 -16.585  0.00  0.00    +0.177 C 
ATOM     10  C   UNL     1      32.487 -23.543 -14.338  0.00  0.00    +0.280 C 
ATOM     11  C   UNL     1      31.918 -22.442 -13.446  0.00  0.00    +0.074 C 
ENDROOT
BRANCH   6  12
ATOM     12  O   UNL     1      35.827 -25.319 -12.693  0.00  0.00    -0.379 OA
ATOM     13  H   UNL     1      35.378 -24.622 -12.190  0.00  0.00    +0.211 HD
ENDBRANCH   6  12
BRANCH   7  14
ATOM     14  O   UNL     1      38.090 -23.926 -13.827  0.00  0.00    -0.378 OA
ATOM     15  H   UNL     1      38.594 -23.098 -13.809  0.00  0.00    +0.211 HD
ENDBRANCH   7  14
BRANCH   8  16
ATOM     16  O   UNL     1      37.361 -21.853 -15.618  0.00  0.00    -0.326 OA
ATOM     17  C   UNL     1      37.249 -21.222 -16.884  0.00  0.00    +0.177 C 
ENDBRANCH   8  16
BRANCH  10  19
ATOM     18  O   UNL     1      30.653 -24.977 -15.022  0.00  0.00    -0.245 OA
ATOM     19  C   UNL     1      31.544 -24.715 -14.227  0.00  0.00    +0.366 C 
BRANCH  19  20
ATOM     20  O   UNL     1      31.815 -25.446 -13.119  0.00  0.00    -0.477 OA
ATOM     21  H   UNL     1      32.178 -26.306 -13.202  0.00  0.00    +0.295 HD
ENDBRANCH  19  20
ENDBRANCH  10  19
TORSDOF 5
ENDMDL
MODEL 9
REMARK VINA RESULT:      -5.9     15.053     17.914
REMARK  Name = 445936
REMARK  5 active torsions:
REMARK  status: ('A' for Active; 'I' for Inactive)
REMARK    1  A    between atoms: C_6  and  O_12
REMARK    2  A    between atoms: C_7  and  O_14
REMARK    3  A    between atoms: C_8  and  O_16
REMARK    4  A    between atoms: C_10  and  C_19
REMARK    5  A    between atoms: C_19  and  O_20
REMARK                            x       y       z     vdW  Elec       q    Type
REMARK                         _______ _______ _______ _____ _____    ______ ____
ROOT
ATOM      1  O   UNL     1      31.476 -10.216 -21.980  0.00  0.00    -0.326 OA
ATOM      2  O   UNL     1      33.451  -8.131 -22.157  0.00  0.00    -0.323 OA
ATOM      3  O   UNL     1      32.620  -8.901 -24.255  0.00  0.00    -0.323 OA
ATOM      4  C   UNL     1      32.132  -7.900 -21.646  0.00  0.00    +0.177 C 
ATOM      5  C   UNL     1      31.153  -8.861 -22.322  0.00  0.00    +0.177 C 
ATOM      6  C   UNL     1      32.140  -8.130 -20.135  0.00  0.00    +0.172 C 
ATOM      7  C   UNL     1      32.359  -9.604 -19.799  0.00  0.00    +0.196 C 
ATOM      8  C   UNL     1      31.384 -10.483 -20.583  0.00  0.00    +0.266 C 
ATOM      9  C   UNL     1      31.265  -8.738 -23.836  0.00  0.00    +0.177 C 
ATOM     10  C   UNL     1      33.529  -8.044 -23.575  0.00  0.00    +0.280 C 
ATOM     11  C   UNL     1      34.933  -8.500 -23.962  0.00  0.00    +0.074 C 
ENDROOT
BRANCH   6  12
ATOM     12  O   UNL     1      33.166  -7.352 -19.524  0.00  0.00    -0.379 OA
ATOM     13  H   UNL     1      32.926  -6.413 -19.563  0.00  0.00    +0.211 HD
ENDBRANCH   6  12
BRANCH   7  14
ATOM     14  O   UNL     1      32.131  -9.806 -18.404  0.00  0.00    -0.378 OA
ATOM     15  H   UNL     1      32.475  -9.048 -17.906  0.00  0.00    +0.211 HD
ENDBRANCH   7  14
BRANCH   8  16
ATOM     16  O   UNL     1      31.722 -11.846 -20.330  0.00  0.00    -0.326 OA
ATOM     17  C   UNL     1      31.893 -12.569 -21.539  0.00  0.00    +0.177 C 
ENDBRANCH   8  16
BRANCH  10  19
ATOM     18  O   UNL     1      32.594  -5.804 -23.612  0.00  0.00    -0.245 OA
ATOM     19  C   UNL     1      33.395  -6.617 -24.049  0.00  0.00    +0.366 C 
BRANCH  19  20
ATOM     20  O   UNL     1      34.288  -6.354 -25.035  0.00  0.00    -0.477 OA
ATOM     21  H   UNL     1      34.609  -5.482 -25.155  0.00  0.00    +0.295 HD
ENDBRANCH  19  20
ENDBRANCH  10  19
TORSDOF 5
ENDMDL
