MODEL 1
REMARK VINA RESULT:     -11.0      0.000      0.000
REMARK  Name = 5111
REMARK  7 active torsions:
REMARK  status: ('A' for Active; 'I' for Inactive)
REMARK    1  A    between atoms: S_1  and  C_5
REMARK    2  A    between atoms: S_1  and  C_17
REMARK    3  A    between atoms: C_5  and  C_10
REMARK    4  A    between atoms: C_10  and  C_13
REMARK    5  A    between atoms: N_12  and  O_15
REMARK    6  A    between atoms: C_22  and  O_23
REMARK    7  A    between atoms: O_23  and  C_25
REMARK                            x       y       z     vdW  Elec       q    Type
REMARK                         _______ _______ _______ _____ _____    ______ ____
ROOT
ATOM      1  S   UNL     1      37.340 -23.306 -14.500  0.00  0.00    +0.006 S 
ATOM      2  O   UNL     1      38.608 -23.708 -15.059  0.00  0.00    -0.169 OA
ATOM      3  O   UNL     1      37.243 -22.223 -13.551  0.00  0.00    -0.169 OA
ENDROOT
BRANCH   1   5
ATOM      4  O   UNL     1      38.104 -27.133 -14.450  0.00  0.00    -0.354 OA
ATOM      5  C   UNL     1      36.616 -24.749 -13.710  0.00  0.00    +0.128 C 
ATOM      6  C   UNL     1      37.652 -25.416 -12.790  0.00  0.00    +0.055 C 
ATOM      7  C   UNL     1      36.137 -25.745 -14.779  0.00  0.00    +0.055 C 
ATOM      8  C   UNL     1      38.711 -26.191 -13.568  0.00  0.00    +0.144 C 
ATOM      9  C   UNL     1      37.290 -26.499 -15.433  0.00  0.00    +0.144 C 
BRANCH   5  10
ATOM     10  C   UNL     1      35.419 -24.258 -12.880  0.00  0.00    +0.110 C 
BRANCH  10  13
ATOM     11  O   UNL     1      35.209 -25.277 -10.695  0.00  0.00    -0.273 OA
ATOM     12  N   UNL     1      36.488 -23.370 -10.951  0.00  0.00    -0.197 N 
ATOM     13  C   UNL     1      35.673 -24.382 -11.397  0.00  0.00    +0.246 C 
ATOM     14  H   UNL     1      36.835 -22.673 -11.554  0.00  0.00    +0.182 HD
BRANCH  12  15
ATOM     15  O   UNL     1      36.794 -23.391  -9.585  0.00  0.00    -0.295 OA
ATOM     16  H   UNL     1      37.696 -23.061  -9.449  0.00  0.00    +0.241 HD
ENDBRANCH  12  15
ENDBRANCH  10  13
ENDBRANCH   5  10
ENDBRANCH   1   5
BRANCH   1  17
ATOM     17  C   UNL     1      36.238 -22.989 -15.836  0.00  0.00    +0.106 C 
ATOM     18  C   UNL     1      36.696 -22.300 -16.949  0.00  0.00    +0.021 C 
ATOM     19  C   UNL     1      34.925 -23.431 -15.759  0.00  0.00    +0.021 C 
ATOM     20  C   UNL     1      35.824 -22.048 -18.008  0.00  0.00    +0.039 C 
ATOM     21  C   UNL     1      34.052 -23.180 -16.817  0.00  0.00    +0.039 C 
ATOM     22  C   UNL     1      34.501 -22.488 -17.942  0.00  0.00    +0.145 C 
BRANCH  22  23
ATOM     23  O   UNL     1      33.650 -22.244 -18.975  0.00  0.00    -0.453 OA
BRANCH  23  25
ATOM     24 CL   UNL     1      34.726 -17.556 -22.342  0.00  0.00    -0.082 Cl
ATOM     25  C   UNL     1      33.904 -21.138 -19.771  0.00  0.00    +0.145 C 
ATOM     26  C   UNL     1      35.202 -20.883 -20.173  0.00  0.00    +0.038 C 
ATOM     27  C   UNL     1      32.853 -20.319 -20.139  0.00  0.00    +0.038 C 
ATOM     28  C   UNL     1      35.457 -19.769 -20.973  0.00  0.00    +0.015 C 
ATOM     29  C   UNL     1      33.108 -19.205 -20.939  0.00  0.00    +0.015 C 
ATOM     30  C   UNL     1      34.411 -18.930 -21.356  0.00  0.00    +0.058 C 
ENDBRANCH  23  25
ENDBRANCH  22  23
ENDBRANCH   1  17
TORSDOF 7
ENDMDL
MODEL 2
REMARK VINA RESULT:     -10.8      3.937      4.933
REMARK  Name = 5111
REMARK  7 active torsions:
REMARK  status: ('A' for Active; 'I' for Inactive)
REMARK    1  A    between atoms: S_1  and  C_5
REMARK    2  A    between atoms: S_1  and  C_17
REMARK    3  A    between atoms: C_5  and  C_10
REMARK    4  A    between atoms: C_10  and  C_13
REMARK    5  A    between atoms: N_12  and  O_15
REMARK    6  A    between atoms: C_22  and  O_23
REMARK    7  A    between atoms: O_23  and  C_25
REMARK                            x       y       z     vdW  Elec       q    Type
REMARK                         _______ _______ _______ _____ _____    ______ ____
ROOT
ATOM      1  S   UNL     1      35.997 -24.541 -15.361  0.00  0.00    +0.006 S 
ATOM      2  O   UNL     1      36.130 -25.903 -15.818  0.00  0.00    -0.169 OA
ATOM      3  O   UNL     1      36.455 -23.429 -16.160  0.00  0.00    -0.169 OA
ENDROOT
BRANCH   1   5
ATOM      4  O   UNL     1      39.068 -26.277 -13.694  0.00  0.00    -0.354 OA
ATOM      5  C   UNL     1      36.837 -24.417 -13.777  0.00  0.00    +0.128 C 
ATOM      6  C   UNL     1      38.299 -23.990 -13.993  0.00  0.00    +0.055 C 
ATOM      7  C   UNL     1      36.781 -25.770 -13.049  0.00  0.00    +0.055 C 
ATOM      8  C   UNL     1      39.165 -25.126 -14.530  0.00  0.00    +0.144 C 
ATOM      9  C   UNL     1      37.742 -26.794 -13.645  0.00  0.00    +0.144 C 
BRANCH   5  10
ATOM     10  C   UNL     1      36.097 -23.351 -12.955  0.00  0.00    +0.110 C 
BRANCH  10  13
ATOM     11  O   UNL     1      37.260 -23.041 -10.855  0.00  0.00    -0.273 OA
ATOM     12  N   UNL     1      35.324 -24.301 -10.917  0.00  0.00    -0.197 N 
ATOM     13  C   UNL     1      36.317 -23.530 -11.472  0.00  0.00    +0.246 C 
ATOM     14  H   UNL     1      34.587 -24.671 -11.454  0.00  0.00    +0.182 HD
BRANCH  12  15
ATOM     15  O   UNL     1      35.426 -24.527  -9.538  0.00  0.00    -0.295 OA
ATOM     16  H   UNL     1      35.164 -25.439  -9.339  0.00  0.00    +0.241 HD
ENDBRANCH  12  15
ENDBRANCH  10  13
ENDBRANCH   5  10
ENDBRANCH   1   5
BRANCH   1  17
ATOM     17  C   UNL     1      34.308 -24.278 -14.938  0.00  0.00    +0.106 C 
ATOM     18  C   UNL     1      33.648 -25.211 -14.154  0.00  0.00    +0.021 C 
ATOM     19  C   UNL     1      33.659 -23.140 -15.396  0.00  0.00    +0.021 C 
ATOM     20  C   UNL     1      32.309 -25.004 -13.819  0.00  0.00    +0.039 C 
ATOM     21  C   UNL     1      32.321 -22.931 -15.061  0.00  0.00    +0.039 C 
ATOM     22  C   UNL     1      31.646 -23.863 -14.273  0.00  0.00    +0.145 C 
BRANCH  22  23
ATOM     23  O   UNL     1      30.341 -23.659 -13.945  0.00  0.00    -0.453 OA
BRANCH  23  25
ATOM     24 CL   UNL     1      26.609 -22.371 -18.291  0.00  0.00    -0.082 Cl
ATOM     25  C   UNL     1      29.459 -23.356 -14.970  0.00  0.00    +0.145 C 
ATOM     26  C   UNL     1      29.280 -24.266 -15.995  0.00  0.00    +0.038 C 
ATOM     27  C   UNL     1      28.783 -22.151 -14.941  0.00  0.00    +0.038 C 
ATOM     28  C   UNL     1      28.394 -23.960 -17.027  0.00  0.00    +0.015 C 
ATOM     29  C   UNL     1      27.897 -21.844 -15.973  0.00  0.00    +0.015 C 
ATOM     30  C   UNL     1      27.702 -22.749 -17.017  0.00  0.00    +0.058 C 
ENDBRANCH  23  25
ENDBRANCH  22  23
ENDBRANCH   1  17
TORSDOF 7
ENDMDL
MODEL 3
REMARK VINA RESULT:     -10.8      1.471      2.891
REMARK  Name = 5111
REMARK  7 active torsions:
REMARK  status: ('A' for Active; 'I' for Inactive)
REMARK    1  A    between atoms: S_1  and  C_5
REMARK    2  A    between atoms: S_1  and  C_17
REMARK    3  A    between atoms: C_5  and  C_10
REMARK    4  A    between atoms: C_10  and  C_13
REMARK    5  A    between atoms: N_12  and  O_15
REMARK    6  A    between atoms: C_22  and  O_23
REMARK    7  A    between atoms: O_23  and  C_25
REMARK                            x       y       z     vdW  Elec       q    Type
REMARK                         _______ _______ _______ _____ _____    ______ ____
ROOT
ATOM      1  S   UNL     1      36.771 -23.180 -14.551  0.00  0.00    +0.006 S 
ATOM      2  O   UNL     1      38.199 -23.259 -14.747  0.00  0.00    -0.169 OA
ATOM      3  O   UNL     1      36.194 -22.314 -13.551  0.00  0.00    -0.169 OA
ENDROOT
BRANCH   1   5
ATOM      4  O   UNL     1      34.698 -24.850 -11.699  0.00  0.00    -0.354 OA
ATOM      5  C   UNL     1      36.180 -24.840 -14.199  0.00  0.00    +0.128 C 
ATOM      6  C   UNL     1      34.643 -24.843 -14.129  0.00  0.00    +0.055 C 
ATOM      7  C   UNL     1      36.773 -25.334 -12.868  0.00  0.00    +0.055 C 
ATOM      8  C   UNL     1      34.116 -24.222 -12.839  0.00  0.00    +0.144 C 
ATOM      9  C   UNL     1      36.112 -24.682 -11.657  0.00  0.00    +0.144 C 
BRANCH   5  10
ATOM     10  C   UNL     1      36.653 -25.743 -15.348  0.00  0.00    +0.110 C 
BRANCH  10  13
ATOM     11  O   UNL     1      37.746 -27.737 -14.520  0.00  0.00    -0.273 OA
ATOM     12  N   UNL     1      39.015 -25.908 -15.135  0.00  0.00    -0.197 N 
ATOM     13  C   UNL     1      37.837 -26.590 -14.948  0.00  0.00    +0.246 C 
ATOM     14  H   UNL     1      39.037 -24.987 -15.482  0.00  0.00    +0.182 HD
BRANCH  12  15
ATOM     15  O   UNL     1      40.183 -26.605 -14.801  0.00  0.00    -0.295 OA
ATOM     16  H   UNL     1      40.171 -26.823 -13.856  0.00  0.00    +0.241 HD
ENDBRANCH  12  15
ENDBRANCH  10  13
ENDBRANCH   5  10
ENDBRANCH   1   5
BRANCH   1  17
ATOM     17  C   UNL     1      36.034 -22.817 -16.108  0.00  0.00    +0.106 C 
ATOM     18  C   UNL     1      36.788 -22.194 -17.092  0.00  0.00    +0.021 C 
ATOM     19  C   UNL     1      34.707 -23.157 -16.332  0.00  0.00    +0.021 C 
ATOM     20  C   UNL     1      36.205 -21.906 -18.326  0.00  0.00    +0.039 C 
ATOM     21  C   UNL     1      34.123 -22.869 -17.565  0.00  0.00    +0.039 C 
ATOM     22  C   UNL     1      34.872 -22.243 -18.562  0.00  0.00    +0.145 C 
BRANCH  22  23
ATOM     23  O   UNL     1      34.302 -21.963 -19.766  0.00  0.00    -0.453 OA
BRANCH  23  25
ATOM     24 CL   UNL     1      35.043 -16.559 -21.939  0.00  0.00    -0.082 Cl
ATOM     25  C   UNL     1      34.477 -20.688 -20.280  0.00  0.00    +0.145 C 
ATOM     26  C   UNL     1      35.757 -20.240 -20.547  0.00  0.00    +0.038 C 
ATOM     27  C   UNL     1      33.366 -19.898 -20.511  0.00  0.00    +0.038 C 
ATOM     28  C   UNL     1      35.933 -18.957 -21.063  0.00  0.00    +0.015 C 
ATOM     29  C   UNL     1      33.542 -18.614 -21.027  0.00  0.00    +0.015 C 
ATOM     30  C   UNL     1      34.826 -18.143 -21.303  0.00  0.00    +0.058 C 
ENDBRANCH  23  25
ENDBRANCH  22  23
ENDBRANCH   1  17
TORSDOF 7
ENDMDL
MODEL 4
REMARK VINA RESULT:     -10.4      1.386      2.130
REMARK  Name = 5111
REMARK  7 active torsions:
REMARK  status: ('A' for Active; 'I' for Inactive)
REMARK    1  A    between atoms: S_1  and  C_5
REMARK    2  A    between atoms: S_1  and  C_17
REMARK    3  A    between atoms: C_5  and  C_10
REMARK    4  A    between atoms: C_10  and  C_13
REMARK    5  A    between atoms: N_12  and  O_15
REMARK    6  A    between atoms: C_22  and  O_23
REMARK    7  A    between atoms: O_23  and  C_25
REMARK                            x       y       z     vdW  Elec       q    Type
REMARK                         _______ _______ _______ _____ _____    ______ ____
ROOT
ATOM      1  S   UNL     1      37.495 -23.094 -14.986  0.00  0.00    +0.006 S 
ATOM      2  O   UNL     1      38.661 -23.805 -15.451  0.00  0.00    -0.169 OA
ATOM      3  O   UNL     1      37.609 -21.915 -14.161  0.00  0.00    -0.169 OA
ENDROOT
BRANCH   1   5
ATOM      4  O   UNL     1      37.827 -26.829 -13.905  0.00  0.00    -0.354 OA
ATOM      5  C   UNL     1      36.475 -24.261 -14.077  0.00  0.00    +0.128 C 
ATOM      6  C   UNL     1      37.223 -24.739 -12.820  0.00  0.00    +0.055 C 
ATOM      7  C   UNL     1      36.127 -25.461 -14.975  0.00  0.00    +0.055 C 
ATOM      8  C   UNL     1      38.333 -25.735 -13.143  0.00  0.00    +0.144 C 
ATOM      9  C   UNL     1      37.305 -26.411 -15.164  0.00  0.00    +0.144 C 
BRANCH   5  10
ATOM     10  C   UNL     1      35.191 -23.522 -13.672  0.00  0.00    +0.110 C 
BRANCH  10  13
ATOM     11  O   UNL     1      34.446 -24.934 -11.853  0.00  0.00    -0.273 OA
ATOM     12  N   UNL     1      33.071 -24.599 -13.679  0.00  0.00    -0.197 N 
ATOM     13  C   UNL     1      34.223 -24.428 -12.950  0.00  0.00    +0.246 C 
ATOM     14  H   UNL     1      32.938 -24.171 -14.556  0.00  0.00    +0.182 HD
BRANCH  12  15
ATOM     15  O   UNL     1      32.096 -25.420 -13.097  0.00  0.00    -0.295 OA
ATOM     16  H   UNL     1      32.292 -25.536 -12.154  0.00  0.00    +0.241 HD
ENDBRANCH  12  15
ENDBRANCH  10  13
ENDBRANCH   5  10
ENDBRANCH   1   5
BRANCH   1  17
ATOM     17  C   UNL     1      36.504 -22.710 -16.390  0.00  0.00    +0.106 C 
ATOM     18  C   UNL     1      35.165 -23.072 -16.400  0.00  0.00    +0.021 C 
ATOM     19  C   UNL     1      37.075 -22.051 -17.469  0.00  0.00    +0.021 C 
ATOM     20  C   UNL     1      34.380 -22.769 -17.512  0.00  0.00    +0.039 C 
ATOM     21  C   UNL     1      36.290 -21.746 -18.581  0.00  0.00    +0.039 C 
ATOM     22  C   UNL     1      34.942 -22.105 -18.603  0.00  0.00    +0.145 C 
BRANCH  22  23
ATOM     23  O   UNL     1      34.176 -21.808 -19.688  0.00  0.00    -0.453 OA
BRANCH  23  25
ATOM     24 CL   UNL     1      34.959 -16.578 -22.238  0.00  0.00    -0.082 Cl
ATOM     25  C   UNL     1      34.361 -20.573 -20.288  0.00  0.00    +0.145 C 
ATOM     26  C   UNL     1      33.265 -19.759 -20.503  0.00  0.00    +0.038 C 
ATOM     27  C   UNL     1      35.637 -20.190 -20.658  0.00  0.00    +0.038 C 
ATOM     28  C   UNL     1      33.451 -18.516 -21.109  0.00  0.00    +0.015 C 
ATOM     29  C   UNL     1      35.823 -18.947 -21.265  0.00  0.00    +0.015 C 
ATOM     30  C   UNL     1      34.730 -18.110 -21.490  0.00  0.00    +0.058 C 
ENDBRANCH  23  25
ENDBRANCH  22  23
ENDBRANCH   1  17
TORSDOF 7
ENDMDL
MODEL 5
REMARK VINA RESULT:     -10.4      1.860      3.355
REMARK  Name = 5111
REMARK  7 active torsions:
REMARK  status: ('A' for Active; 'I' for Inactive)
REMARK    1  A    between atoms: S_1  and  C_5
REMARK    2  A    between atoms: S_1  and  C_17
REMARK    3  A    between atoms: C_5  and  C_10
REMARK    4  A    between atoms: C_10  and  C_13
REMARK    5  A    between atoms: N_12  and  O_15
REMARK    6  A    between atoms: C_22  and  O_23
REMARK    7  A    between atoms: O_23  and  C_25
REMARK                            x       y       z     vdW  Elec       q    Type
REMARK                         _______ _______ _______ _____ _____    ______ ____
ROOT
ATOM      1  S   UNL     1      34.927 -23.572 -14.352  0.00  0.00    +0.006 S 
ATOM      2  O   UNL     1      34.899 -22.380 -13.539  0.00  0.00    -0.169 OA
ATOM      3  O   UNL     1      33.864 -24.548 -14.298  0.00  0.00    -0.169 OA
ENDROOT
BRANCH   1   5
ATOM      4  O   UNL     1      37.200 -23.979 -11.206  0.00  0.00    -0.354 OA
ATOM      5  C   UNL     1      36.449 -24.449 -13.974  0.00  0.00    +0.128 C 
ATOM      6  C   UNL     1      36.201 -25.467 -12.848  0.00  0.00    +0.055 C 
ATOM      7  C   UNL     1      37.538 -23.447 -13.553  0.00  0.00    +0.055 C 
ATOM      8  C   UNL     1      36.070 -24.804 -11.480  0.00  0.00    +0.144 C 
ATOM      9  C   UNL     1      37.323 -22.911 -12.141  0.00  0.00    +0.144 C 
BRANCH   5  10
ATOM     10  C   UNL     1      36.881 -25.180 -15.254  0.00  0.00    +0.110 C 
BRANCH  10  13
ATOM     11  O   UNL     1      38.200 -27.088 -14.563  0.00  0.00    -0.273 OA
ATOM     12  N   UNL     1      39.245 -25.253 -15.499  0.00  0.00    -0.197 N 
ATOM     13  C   UNL     1      38.156 -25.963 -15.054  0.00  0.00    +0.246 C 
ATOM     14  H   UNL     1      39.159 -24.352 -15.887  0.00  0.00    +0.182 HD
BRANCH  12  15
ATOM     15  O   UNL     1      40.485 -25.891 -15.366  0.00  0.00    -0.295 OA
ATOM     16  H   UNL     1      40.642 -26.456 -16.139  0.00  0.00    +0.241 HD
ENDBRANCH  12  15
ENDBRANCH  10  13
ENDBRANCH   5  10
ENDBRANCH   1   5
BRANCH   1  17
ATOM     17  C   UNL     1      35.157 -23.078 -16.026  0.00  0.00    +0.106 C 
ATOM     18  C   UNL     1      34.196 -23.401 -16.971  0.00  0.00    +0.021 C 
ATOM     19  C   UNL     1      36.298 -22.372 -16.379  0.00  0.00    +0.021 C 
ATOM     20  C   UNL     1      34.377 -23.010 -18.298  0.00  0.00    +0.039 C 
ATOM     21  C   UNL     1      36.481 -21.980 -17.705  0.00  0.00    +0.039 C 
ATOM     22  C   UNL     1      35.521 -22.299 -18.665  0.00  0.00    +0.145 C 
BRANCH  22  23
ATOM     23  O   UNL     1      35.698 -21.916 -19.958  0.00  0.00    -0.453 OA
BRANCH  23  25
ATOM     24 CL   UNL     1      33.876 -16.552 -21.498  0.00  0.00    -0.082 Cl
ATOM     25  C   UNL     1      35.268 -20.650 -20.321  0.00  0.00    +0.145 C 
ATOM     26  C   UNL     1      33.912 -20.407 -20.434  0.00  0.00    +0.038 C 
ATOM     27  C   UNL     1      36.207 -19.664 -20.560  0.00  0.00    +0.038 C 
ATOM     28  C   UNL     1      33.479 -19.133 -20.800  0.00  0.00    +0.015 C 
ATOM     29  C   UNL     1      35.774 -18.389 -20.926  0.00  0.00    +0.015 C 
ATOM     30  C   UNL     1      34.410 -18.124 -21.046  0.00  0.00    +0.058 C 
ENDBRANCH  23  25
ENDBRANCH  22  23
ENDBRANCH   1  17
TORSDOF 7
ENDMDL
MODEL 6
REMARK VINA RESULT:     -10.4      1.779      3.259
REMARK  Name = 5111
REMARK  7 active torsions:
REMARK  status: ('A' for Active; 'I' for Inactive)
REMARK    1  A    between atoms: S_1  and  C_5
REMARK    2  A    between atoms: S_1  and  C_17
REMARK    3  A    between atoms: C_5  and  C_10
REMARK    4  A    between atoms: C_10  and  C_13
REMARK    5  A    between atoms: N_12  and  O_15
REMARK    6  A    between atoms: C_22  and  O_23
REMARK    7  A    between atoms: O_23  and  C_25
REMARK                            x       y       z     vdW  Elec       q    Type
REMARK                         _______ _______ _______ _____ _____    ______ ____
ROOT
ATOM      1  S   UNL     1      36.746 -23.369 -14.042  0.00  0.00    +0.006 S 
ATOM      2  O   UNL     1      37.600 -22.232 -13.794  0.00  0.00    -0.169 OA
ATOM      3  O   UNL     1      35.790 -23.822 -13.060  0.00  0.00    -0.169 OA
ENDROOT
BRANCH   1   5
ATOM      4  O   UNL     1      36.720 -27.180 -13.203  0.00  0.00    -0.354 OA
ATOM      5  C   UNL     1      37.806 -24.771 -14.415  0.00  0.00    +0.128 C 
ATOM      6  C   UNL     1      37.014 -25.830 -15.203  0.00  0.00    +0.055 C 
ATOM      7  C   UNL     1      38.348 -25.378 -13.109  0.00  0.00    +0.055 C 
ATOM      8  C   UNL     1      36.043 -26.609 -14.321  0.00  0.00    +0.144 C 
ATOM      9  C   UNL     1      37.294 -26.186 -12.359  0.00  0.00    +0.144 C 
BRANCH   5  10
ATOM     10  C   UNL     1      38.969 -24.246 -15.269  0.00  0.00    +0.110 C 
BRANCH  10  13
ATOM     11  O   UNL     1      41.320 -24.326 -14.702  0.00  0.00    -0.273 OA
ATOM     12  N   UNL     1      40.122 -26.291 -14.895  0.00  0.00    -0.197 N 
ATOM     13  C   UNL     1      40.273 -24.926 -14.926  0.00  0.00    +0.246 C 
ATOM     14  H   UNL     1      39.259 -26.727 -15.082  0.00  0.00    +0.182 HD
BRANCH  12  15
ATOM     15  O   UNL     1      41.273 -27.025 -14.579  0.00  0.00    -0.295 OA
ATOM     16  H   UNL     1      41.753 -26.581 -13.862  0.00  0.00    +0.241 HD
ENDBRANCH  12  15
ENDBRANCH  10  13
ENDBRANCH   5  10
ENDBRANCH   1   5
BRANCH   1  17
ATOM     17  C   UNL     1      35.905 -23.089 -15.564  0.00  0.00    +0.106 C 
ATOM     18  C   UNL     1      34.612 -23.563 -15.726  0.00  0.00    +0.021 C 
ATOM     19  C   UNL     1      36.547 -22.400 -16.582  0.00  0.00    +0.021 C 
ATOM     20  C   UNL     1      33.946 -23.343 -16.931  0.00  0.00    +0.039 C 
ATOM     21  C   UNL     1      35.882 -22.179 -17.788  0.00  0.00    +0.039 C 
ATOM     22  C   UNL     1      34.581 -22.650 -17.963  0.00  0.00    +0.145 C 
BRANCH  22  23
ATOM     23  O   UNL     1      33.931 -22.434 -19.138  0.00  0.00    -0.453 OA
BRANCH  23  25
ATOM     24 CL   UNL     1      35.056 -17.435 -22.005  0.00  0.00    -0.082 Cl
ATOM     25  C   UNL     1      34.196 -21.254 -19.814  0.00  0.00    +0.145 C 
ATOM     26  C   UNL     1      33.145 -20.427 -20.163  0.00  0.00    +0.038 C 
ATOM     27  C   UNL     1      35.506 -20.935 -20.121  0.00  0.00    +0.038 C 
ATOM     28  C   UNL     1      33.412 -19.240 -20.845  0.00  0.00    +0.015 C 
ATOM     29  C   UNL     1      35.774 -19.747 -20.803  0.00  0.00    +0.015 C 
ATOM     30  C   UNL     1      34.726 -18.899 -21.164  0.00  0.00    +0.058 C 
ENDBRANCH  23  25
ENDBRANCH  22  23
ENDBRANCH   1  17
TORSDOF 7
ENDMDL
MODEL 7
REMARK VINA RESULT:     -10.1      1.810      3.296
REMARK  Name = 5111
REMARK  7 active torsions:
REMARK  status: ('A' for Active; 'I' for Inactive)
REMARK    1  A    between atoms: S_1  and  C_5
REMARK    2  A    between atoms: S_1  and  C_17
REMARK    3  A    between atoms: C_5  and  C_10
REMARK    4  A    between atoms: C_10  and  C_13
REMARK    5  A    between atoms: N_12  and  O_15
REMARK    6  A    between atoms: C_22  and  O_23
REMARK    7  A    between atoms: O_23  and  C_25
REMARK                            x       y       z     vdW  Elec       q    Type
REMARK                         _______ _______ _______ _____ _____    ______ ____
ROOT
ATOM      1  S   UNL     1      34.590 -23.952 -13.355  0.00  0.00    +0.006 S 
ATOM      2  O   UNL     1      34.682 -22.719 -12.610  0.00  0.00    -0.169 OA
ATOM      3  O   UNL     1      33.769 -25.048 -12.901  0.00  0.00    -0.169 OA
ENDROOT
BRANCH   1   5
ATOM      4  O   UNL     1      37.897 -23.756 -11.292  0.00  0.00    -0.354 OA
ATOM      5  C   UNL     1      36.257 -24.599 -13.538  0.00  0.00    +0.128 C 
ATOM      6  C   UNL     1      36.595 -25.515 -12.350  0.00  0.00    +0.055 C 
ATOM      7  C   UNL     1      37.262 -23.437 -13.616  0.00  0.00    +0.055 C 
ATOM      8  C   UNL     1      36.882 -24.732 -11.072  0.00  0.00    +0.144 C 
ATOM      9  C   UNL     1      37.507 -22.785 -12.259  0.00  0.00    +0.144 C 
BRANCH   5  10
ATOM     10  C   UNL     1      36.289 -25.405 -14.846  0.00  0.00    +0.110 C 
BRANCH  10  13
ATOM     11  O   UNL     1      37.698 -27.372 -14.818  0.00  0.00    -0.273 OA
ATOM     12  N   UNL     1      38.599 -25.327 -15.401  0.00  0.00    -0.197 N 
ATOM     13  C   UNL     1      37.583 -26.164 -15.009  0.00  0.00    +0.246 C 
ATOM     14  H   UNL     1      38.458 -24.362 -15.542  0.00  0.00    +0.182 HD
BRANCH  12  15
ATOM     15  O   UNL     1      39.849 -25.931 -15.589  0.00  0.00    -0.295 OA
ATOM     16  H   UNL     1      40.057 -26.491 -14.825  0.00  0.00    +0.241 HD
ENDBRANCH  12  15
ENDBRANCH  10  13
ENDBRANCH   5  10
ENDBRANCH   1   5
BRANCH   1  17
ATOM     17  C   UNL     1      34.136 -23.549 -15.007  0.00  0.00    +0.106 C 
ATOM     18  C   UNL     1      32.820 -23.717 -15.413  0.00  0.00    +0.021 C 
ATOM     19  C   UNL     1      35.099 -23.070 -15.884  0.00  0.00    +0.021 C 
ATOM     20  C   UNL     1      32.459 -23.399 -16.723  0.00  0.00    +0.039 C 
ATOM     21  C   UNL     1      34.739 -22.751 -17.193  0.00  0.00    +0.039 C 
ATOM     22  C   UNL     1      33.419 -22.916 -17.613  0.00  0.00    +0.145 C 
BRANCH  22  23
ATOM     23  O   UNL     1      33.067 -22.604 -18.890  0.00  0.00    -0.453 OA
BRANCH  23  25
ATOM     24 CL   UNL     1      36.247 -18.530 -21.676  0.00  0.00    -0.082 Cl
ATOM     25  C   UNL     1      33.818 -21.643 -19.548  0.00  0.00    +0.145 C 
ATOM     26  C   UNL     1      35.191 -21.788 -19.610  0.00  0.00    +0.038 C 
ATOM     27  C   UNL     1      33.173 -20.566 -20.126  0.00  0.00    +0.038 C 
ATOM     28  C   UNL     1      35.947 -20.820 -20.271  0.00  0.00    +0.015 C 
ATOM     29  C   UNL     1      33.928 -19.597 -20.788  0.00  0.00    +0.015 C 
ATOM     30  C   UNL     1      35.315 -19.724 -20.860  0.00  0.00    +0.058 C 
ENDBRANCH  23  25
ENDBRANCH  22  23
ENDBRANCH   1  17
TORSDOF 7
ENDMDL
MODEL 8
REMARK VINA RESULT:      -9.9      1.801      3.038
REMARK  Name = 5111
REMARK  7 active torsions:
REMARK  status: ('A' for Active; 'I' for Inactive)
REMARK    1  A    between atoms: S_1  and  C_5
REMARK    2  A    between atoms: S_1  and  C_17
REMARK    3  A    between atoms: C_5  and  C_10
REMARK    4  A    between atoms: C_10  and  C_13
REMARK    5  A    between atoms: N_12  and  O_15
REMARK    6  A    between atoms: C_22  and  O_23
REMARK    7  A    between atoms: O_23  and  C_25
REMARK                            x       y       z     vdW  Elec       q    Type
REMARK                         _______ _______ _______ _____ _____    ______ ____
ROOT
ATOM      1  S   UNL     1      36.516 -23.366 -13.744  0.00  0.00    +0.006 S 
ATOM      2  O   UNL     1      37.533 -22.344 -13.678  0.00  0.00    -0.169 OA
ATOM      3  O   UNL     1      35.565 -23.554 -12.675  0.00  0.00    -0.169 OA
ENDROOT
BRANCH   1   5
ATOM      4  O   UNL     1      40.205 -24.625 -13.550  0.00  0.00    -0.354 OA
ATOM      5  C   UNL     1      37.347 -24.943 -13.976  0.00  0.00    +0.128 C 
ATOM      6  C   UNL     1      38.058 -25.355 -12.675  0.00  0.00    +0.055 C 
ATOM      7  C   UNL     1      38.365 -24.832 -15.124  0.00  0.00    +0.055 C 
ATOM      8  C   UNL     1      39.331 -24.552 -12.425  0.00  0.00    +0.144 C 
ATOM      9  C   UNL     1      39.619 -24.063 -14.721  0.00  0.00    +0.144 C 
BRANCH   5  10
ATOM     10  C   UNL     1      36.268 -25.976 -14.333  0.00  0.00    +0.110 C 
BRANCH  10  13
ATOM     11  O   UNL     1      37.618 -27.922 -14.830  0.00  0.00    -0.273 OA
ATOM     12  N   UNL     1      36.278 -27.008 -16.474  0.00  0.00    -0.197 N 
ATOM     13  C   UNL     1      36.811 -27.078 -15.210  0.00  0.00    +0.246 C 
ATOM     14  H   UNL     1      35.632 -26.311 -16.733  0.00  0.00    +0.182 HD
BRANCH  12  15
ATOM     15  O   UNL     1      36.710 -27.992 -17.373  0.00  0.00    -0.295 OA
ATOM     16  H   UNL     1      37.679 -27.986 -17.419  0.00  0.00    +0.241 HD
ENDBRANCH  12  15
ENDBRANCH  10  13
ENDBRANCH   5  10
ENDBRANCH   1   5
BRANCH   1  17
ATOM     17  C   UNL     1      35.637 -23.154 -15.255  0.00  0.00    +0.106 C 
ATOM     18  C   UNL     1      36.266 -22.545 -16.330  0.00  0.00    +0.021 C 
ATOM     19  C   UNL     1      34.326 -23.597 -15.351  0.00  0.00    +0.021 C 
ATOM     20  C   UNL     1      35.570 -22.375 -17.528  0.00  0.00    +0.039 C 
ATOM     21  C   UNL     1      33.629 -23.429 -16.547  0.00  0.00    +0.039 C 
ATOM     22  C   UNL     1      34.251 -22.818 -17.636  0.00  0.00    +0.145 C 
BRANCH  22  23
ATOM     23  O   UNL     1      33.572 -22.654 -18.804  0.00  0.00    -0.453 OA
BRANCH  23  25
ATOM     24 CL   UNL     1      34.849 -17.946 -22.070  0.00  0.00    -0.082 Cl
ATOM     25  C   UNL     1      33.874 -21.543 -19.573  0.00  0.00    +0.145 C 
ATOM     26  C   UNL     1      32.856 -20.679 -19.936  0.00  0.00    +0.038 C 
ATOM     27  C   UNL     1      35.183 -21.327 -19.960  0.00  0.00    +0.038 C 
ATOM     28  C   UNL     1      33.159 -19.561 -20.712  0.00  0.00    +0.015 C 
ATOM     29  C   UNL     1      35.487 -20.208 -20.737  0.00  0.00    +0.015 C 
ATOM     30  C   UNL     1      34.475 -19.325 -21.113  0.00  0.00    +0.058 C 
ENDBRANCH  23  25
ENDBRANCH  22  23
ENDBRANCH   1  17
TORSDOF 7
ENDMDL
MODEL 9
REMARK VINA RESULT:      -9.7      5.421      9.761
REMARK  Name = 5111
REMARK  7 active torsions:
REMARK  status: ('A' for Active; 'I' for Inactive)
REMARK    1  A    between atoms: S_1  and  C_5
REMARK    2  A    between atoms: S_1  and  C_17
REMARK    3  A    between atoms: C_5  and  C_10
REMARK    4  A    between atoms: C_10  and  C_13
REMARK    5  A    between atoms: N_12  and  O_15
REMARK    6  A    between atoms: C_22  and  O_23
REMARK    7  A    between atoms: O_23  and  C_25
REMARK                            x       y       z     vdW  Elec       q    Type
REMARK                         _______ _______ _______ _____ _____    ______ ____
ROOT
ATOM      1  S   UNL     1      35.554 -18.034 -21.313  0.00  0.00    +0.006 S 
ATOM      2  O   UNL     1      35.668 -17.076 -20.240  0.00  0.00    -0.169 OA
ATOM      3  O   UNL     1      36.646 -18.280 -22.224  0.00  0.00    -0.169 OA
ENDROOT
BRANCH   1   5
ATOM      4  O   UNL     1      34.806 -17.817 -25.137  0.00  0.00    -0.354 OA
ATOM      5  C   UNL     1      34.144 -17.554 -22.320  0.00  0.00    +0.128 C 
ATOM      6  C   UNL     1      33.691 -18.742 -23.185  0.00  0.00    +0.055 C 
ATOM      7  C   UNL     1      34.522 -16.360 -23.213  0.00  0.00    +0.055 C 
ATOM      8  C   UNL     1      34.630 -19.000 -24.361  0.00  0.00    +0.144 C 
ATOM      9  C   UNL     1      35.408 -16.766 -24.386  0.00  0.00    +0.144 C 
BRANCH   5  10
ATOM     10  C   UNL     1      33.017 -17.149 -21.357  0.00  0.00    +0.110 C 
BRANCH  10  13
ATOM     11  O   UNL     1      32.314 -15.081 -22.400  0.00  0.00    -0.273 OA
ATOM     12  N   UNL     1      33.019 -15.072 -20.200  0.00  0.00    -0.197 N 
ATOM     13  C   UNL     1      32.739 -15.666 -21.407  0.00  0.00    +0.246 C 
ATOM     14  H   UNL     1      33.359 -15.584 -19.431  0.00  0.00    +0.182 HD
BRANCH  12  15
ATOM     15  O   UNL     1      32.789 -13.692 -20.132  0.00  0.00    -0.295 OA
ATOM     16  H   UNL     1      31.855 -13.528 -19.928  0.00  0.00    +0.241 HD
ENDBRANCH  12  15
ENDBRANCH  10  13
ENDBRANCH   5  10
ENDBRANCH   1   5
BRANCH   1  17
ATOM     17  C   UNL     1      35.042 -19.567 -20.616  0.00  0.00    +0.106 C 
ATOM     18  C   UNL     1      33.689 -19.820 -20.443  0.00  0.00    +0.021 C 
ATOM     19  C   UNL     1      35.997 -20.502 -20.246  0.00  0.00    +0.021 C 
ATOM     20  C   UNL     1      33.282 -21.034 -19.890  0.00  0.00    +0.039 C 
ATOM     21  C   UNL     1      35.592 -21.716 -19.693  0.00  0.00    +0.039 C 
ATOM     22  C   UNL     1      34.234 -21.983 -19.514  0.00  0.00    +0.145 C 
BRANCH  22  23
ATOM     23  O   UNL     1      33.838 -23.168 -18.976  0.00  0.00    -0.453 OA
BRANCH  23  25
ATOM     24 CL   UNL     1      32.118 -23.180 -13.362  0.00  0.00    -0.082 Cl
ATOM     25  C   UNL     1      33.432 -23.169 -17.651  0.00  0.00    +0.145 C 
ATOM     26  C   UNL     1      34.389 -23.219 -16.654  0.00  0.00    +0.038 C 
ATOM     27  C   UNL     1      32.081 -23.122 -17.361  0.00  0.00    +0.038 C 
ATOM     28  C   UNL     1      33.981 -23.222 -15.320  0.00  0.00    +0.015 C 
ATOM     29  C   UNL     1      31.672 -23.126 -16.027  0.00  0.00    +0.015 C 
ATOM     30  C   UNL     1      32.622 -23.176 -15.007  0.00  0.00    +0.058 C 
ENDBRANCH  23  25
ENDBRANCH  22  23
ENDBRANCH   1  17
TORSDOF 7
ENDMDL
