MODEL 1
REMARK VINA RESULT:      -6.6      0.000      0.000
REMARK  Name = 81831
REMARK  10 active torsions:
REMARK  status: ('A' for Active; 'I' for Inactive)
REMARK    1  A    between atoms: C_1  and  N_2
REMARK    2  A    between atoms: C_1  and  C_11
REMARK    3  A    between atoms: C_1  and  C_14
REMARK    4  A    between atoms: C_1  and  C_17
REMARK    5  A    between atoms: N_2  and  C_5
REMARK    6  A    between atoms: C_5  and  C_6
REMARK    7  A    between atoms: C_6  and  S_7
REMARK    8  A    between atoms: C_11  and  O_12
REMARK    9  A    between atoms: C_14  and  O_15
REMARK   10  A    between atoms: C_17  and  O_18
REMARK                            x       y       z     vdW  Elec       q    Type
REMARK                         _______ _______ _______ _____ _____    ______ ____
ROOT
ATOM      1  C   UNL     1      38.576 -25.096 -14.414  0.00  0.00    +0.037 C 
ENDROOT
BRANCH   1   2
ATOM      2  N   UNL     1      38.450 -24.675 -13.009  0.00  0.00    +0.392 N 
ATOM      3  H   UNL     1      39.366 -24.391 -12.661  0.00  0.00    -0.084 HD
ATOM      4  H   UNL     1      38.093 -25.456 -12.460  0.00  0.00    -0.084 HD
BRANCH   2   5
ATOM      5  C   UNL     1      37.530 -23.560 -12.896  0.00  0.00    -0.055 C 
BRANCH   5   6
ATOM      6  C   UNL     1      37.039 -23.401 -11.467  0.00  0.00    +0.135 C 
BRANCH   6   7
ATOM      7  S   UNL     1      35.671 -24.467 -11.137  0.00  0.00    +0.020 S 
ATOM      8  O   UNL     1      36.401 -25.874 -11.521  0.00  0.00    -0.070 OA
ATOM      9  O   UNL     1      34.625 -24.205 -12.109  0.00  0.00    -0.070 OA
ATOM     10  O   UNL     1      35.402 -24.454  -9.711  0.00  0.00    -0.070 OA
ENDBRANCH   6   7
ENDBRANCH   5   6
ENDBRANCH   2   5
ENDBRANCH   1   2
BRANCH   1  11
ATOM     11  C   UNL     1      37.855 -24.041 -15.277  0.00  0.00    +0.123 C 
BRANCH  11  12
ATOM     12  O   UNL     1      38.785 -23.373 -16.122  0.00  0.00    -0.384 OA
ATOM     13  H   UNL     1      38.311 -22.748 -16.694  0.00  0.00    +0.210 HD
ENDBRANCH  11  12
ENDBRANCH   1  11
BRANCH   1  14
ATOM     14  C   UNL     1      40.074 -25.202 -14.775  0.00  0.00    +0.123 C 
BRANCH  14  15
ATOM     15  O   UNL     1      40.258 -25.909 -15.995  0.00  0.00    -0.384 OA
ATOM     16  H   UNL     1      40.738 -26.734 -15.822  0.00  0.00    +0.210 HD
ENDBRANCH  14  15
ENDBRANCH   1  14
BRANCH   1  17
ATOM     17  C   UNL     1      37.936 -26.492 -14.566  0.00  0.00    +0.123 C 
BRANCH  17  18
ATOM     18  O   UNL     1      37.361 -26.655 -15.857  0.00  0.00    -0.384 OA
ATOM     19  H   UNL     1      37.464 -27.576 -16.144  0.00  0.00    +0.210 HD
ENDBRANCH  17  18
ENDBRANCH   1  17
TORSDOF 10
ENDMDL
MODEL 2
REMARK VINA RESULT:      -6.5      0.116      2.220
REMARK  Name = 81831
REMARK  10 active torsions:
REMARK  status: ('A' for Active; 'I' for Inactive)
REMARK    1  A    between atoms: C_1  and  N_2
REMARK    2  A    between atoms: C_1  and  C_11
REMARK    3  A    between atoms: C_1  and  C_14
REMARK    4  A    between atoms: C_1  and  C_17
REMARK    5  A    between atoms: N_2  and  C_5
REMARK    6  A    between atoms: C_5  and  C_6
REMARK    7  A    between atoms: C_6  and  S_7
REMARK    8  A    between atoms: C_11  and  O_12
REMARK    9  A    between atoms: C_14  and  O_15
REMARK   10  A    between atoms: C_17  and  O_18
REMARK                            x       y       z     vdW  Elec       q    Type
REMARK                         _______ _______ _______ _____ _____    ______ ____
ROOT
ATOM      1  C   UNL     1      38.563 -25.104 -14.353  0.00  0.00    +0.037 C 
ENDROOT
BRANCH   1   2
ATOM      2  N   UNL     1      38.454 -24.657 -12.954  0.00  0.00    +0.392 N 
ATOM      3  H   UNL     1      39.387 -24.467 -12.589  0.00  0.00    -0.084 HD
ATOM      4  H   UNL     1      38.004 -25.390 -12.406  0.00  0.00    -0.084 HD
BRANCH   2   5
ATOM      5  C   UNL     1      37.654 -23.449 -12.871  0.00  0.00    -0.055 C 
BRANCH   5   6
ATOM      6  C   UNL     1      36.948 -23.355 -11.528  0.00  0.00    +0.135 C 
BRANCH   6   7
ATOM      7  S   UNL     1      35.762 -24.648 -11.336  0.00  0.00    +0.020 S 
ATOM      8  O   UNL     1      35.439 -24.407  -9.756  0.00  0.00    -0.070 OA
ATOM      9  O   UNL     1      36.432 -25.927 -11.485  0.00  0.00    -0.070 OA
ATOM     10  O   UNL     1      34.580 -24.316 -12.111  0.00  0.00    -0.070 OA
ENDBRANCH   6   7
ENDBRANCH   5   6
ENDBRANCH   2   5
ENDBRANCH   1   2
BRANCH   1  11
ATOM     11  C   UNL     1      40.065 -25.223 -14.682  0.00  0.00    +0.123 C 
BRANCH  11  12
ATOM     12  O   UNL     1      40.247 -25.852 -15.945  0.00  0.00    -0.384 OA
ATOM     13  H   UNL     1      41.057 -26.387 -15.926  0.00  0.00    +0.210 HD
ENDBRANCH  11  12
ENDBRANCH   1  11
BRANCH   1  14
ATOM     14  C   UNL     1      37.835 -26.458 -14.506  0.00  0.00    +0.123 C 
BRANCH  14  15
ATOM     15  O   UNL     1      37.378 -26.645 -15.839  0.00  0.00    -0.384 OA
ATOM     16  H   UNL     1      36.939 -25.837 -16.147  0.00  0.00    +0.210 HD
ENDBRANCH  14  15
ENDBRANCH   1  14
BRANCH   1  17
ATOM     17  C   UNL     1      37.861 -24.066 -15.255  0.00  0.00    +0.123 C 
BRANCH  17  18
ATOM     18  O   UNL     1      38.798 -23.394 -16.088  0.00  0.00    -0.384 OA
ATOM     19  H   UNL     1      39.537 -23.988 -16.291  0.00  0.00    +0.210 HD
ENDBRANCH  17  18
ENDBRANCH   1  17
TORSDOF 10
ENDMDL
MODEL 3
REMARK VINA RESULT:      -6.5      0.107      2.219
REMARK  Name = 81831
REMARK  10 active torsions:
REMARK  status: ('A' for Active; 'I' for Inactive)
REMARK    1  A    between atoms: C_1  and  N_2
REMARK    2  A    between atoms: C_1  and  C_11
REMARK    3  A    between atoms: C_1  and  C_14
REMARK    4  A    between atoms: C_1  and  C_17
REMARK    5  A    between atoms: N_2  and  C_5
REMARK    6  A    between atoms: C_5  and  C_6
REMARK    7  A    between atoms: C_6  and  S_7
REMARK    8  A    between atoms: C_11  and  O_12
REMARK    9  A    between atoms: C_14  and  O_15
REMARK   10  A    between atoms: C_17  and  O_18
REMARK                            x       y       z     vdW  Elec       q    Type
REMARK                         _______ _______ _______ _____ _____    ______ ____
ROOT
ATOM      1  C   UNL     1      38.563 -25.074 -14.368  0.00  0.00    +0.037 C 
ENDROOT
BRANCH   1   2
ATOM      2  N   UNL     1      38.453 -24.674 -12.955  0.00  0.00    +0.392 N 
ATOM      3  H   UNL     1      39.387 -24.537 -12.571  0.00  0.00    -0.084 HD
ATOM      4  H   UNL     1      37.966 -25.408 -12.441  0.00  0.00    -0.084 HD
BRANCH   2   5
ATOM      5  C   UNL     1      37.702 -23.438 -12.837  0.00  0.00    -0.055 C 
BRANCH   5   6
ATOM      6  C   UNL     1      37.002 -23.353 -11.490  0.00  0.00    +0.135 C 
BRANCH   6   7
ATOM      7  S   UNL     1      35.775 -24.611 -11.325  0.00  0.00    +0.020 S 
ATOM      8  O   UNL     1      35.447 -24.381  -9.745  0.00  0.00    -0.070 OA
ATOM      9  O   UNL     1      36.405 -25.908 -11.487  0.00  0.00    -0.070 OA
ATOM     10  O   UNL     1      34.610 -24.231 -12.104  0.00  0.00    -0.070 OA
ENDBRANCH   6   7
ENDBRANCH   5   6
ENDBRANCH   2   5
ENDBRANCH   1   2
BRANCH   1  11
ATOM     11  C   UNL     1      37.900 -26.459 -14.507  0.00  0.00    +0.123 C 
BRANCH  11  12
ATOM     12  O   UNL     1      37.388 -26.633 -15.823  0.00  0.00    -0.384 OA
ATOM     13  H   UNL     1      37.736 -27.458 -16.199  0.00  0.00    +0.210 HD
ENDBRANCH  11  12
ENDBRANCH   1  11
BRANCH   1  14
ATOM     14  C   UNL     1      37.863 -24.014 -15.246  0.00  0.00    +0.123 C 
BRANCH  14  15
ATOM     15  O   UNL     1      38.788 -23.384 -16.124  0.00  0.00    -0.384 OA
ATOM     16  H   UNL     1      38.399 -22.566 -16.470  0.00  0.00    +0.210 HD
ENDBRANCH  14  15
ENDBRANCH   1  14
BRANCH   1  17
ATOM     17  C   UNL     1      40.058 -25.116 -14.750  0.00  0.00    +0.123 C 
BRANCH  17  18
ATOM     18  O   UNL     1      40.263 -25.870 -15.938  0.00  0.00    -0.384 OA
ATOM     19  H   UNL     1      40.870 -26.604 -15.756  0.00  0.00    +0.210 HD
ENDBRANCH  17  18
ENDBRANCH   1  17
TORSDOF 10
ENDMDL
MODEL 4
REMARK VINA RESULT:      -6.2      2.145      5.100
REMARK  Name = 81831
REMARK  10 active torsions:
REMARK  status: ('A' for Active; 'I' for Inactive)
REMARK    1  A    between atoms: C_1  and  N_2
REMARK    2  A    between atoms: C_1  and  C_11
REMARK    3  A    between atoms: C_1  and  C_14
REMARK    4  A    between atoms: C_1  and  C_17
REMARK    5  A    between atoms: N_2  and  C_5
REMARK    6  A    between atoms: C_5  and  C_6
REMARK    7  A    between atoms: C_6  and  S_7
REMARK    8  A    between atoms: C_11  and  O_12
REMARK    9  A    between atoms: C_14  and  O_15
REMARK   10  A    between atoms: C_17  and  O_18
REMARK                            x       y       z     vdW  Elec       q    Type
REMARK                         _______ _______ _______ _____ _____    ______ ____
ROOT
ATOM      1  C   UNL     1      36.537 -24.003 -12.098  0.00  0.00    +0.037 C 
ENDROOT
BRANCH   1   2
ATOM      2  N   UNL     1      37.280 -25.233 -12.420  0.00  0.00    +0.392 N 
ATOM      3  H   UNL     1      36.998 -25.973 -11.778  0.00  0.00    -0.084 HD
ATOM      4  H   UNL     1      38.279 -25.050 -12.328  0.00  0.00    -0.084 HD
BRANCH   2   5
ATOM      5  C   UNL     1      37.002 -25.650 -13.782  0.00  0.00    -0.055 C 
BRANCH   5   6
ATOM      6  C   UNL     1      38.235 -26.260 -14.427  0.00  0.00    +0.135 C 
BRANCH   6   7
ATOM      7  S   UNL     1      39.470 -25.037 -14.732  0.00  0.00    +0.020 S 
ATOM      8  O   UNL     1      40.363 -25.896 -15.791  0.00  0.00    -0.070 OA
ATOM      9  O   UNL     1      40.245 -24.838 -13.521  0.00  0.00    -0.070 OA
ATOM     10  O   UNL     1      38.859 -23.922 -15.433  0.00  0.00    -0.070 OA
ENDBRANCH   6   7
ENDBRANCH   5   6
ENDBRANCH   2   5
ENDBRANCH   1   2
BRANCH   1  11
ATOM     11  C   UNL     1      35.408 -23.863 -13.139  0.00  0.00    +0.123 C 
BRANCH  11  12
ATOM     12  O   UNL     1      34.182 -23.528 -12.498  0.00  0.00    -0.384 OA
ATOM     13  H   UNL     1      33.676 -24.337 -12.325  0.00  0.00    +0.210 HD
ENDBRANCH  11  12
ENDBRANCH   1  11
BRANCH   1  14
ATOM     14  C   UNL     1      35.980 -24.115 -10.662  0.00  0.00    +0.123 C 
BRANCH  14  15
ATOM     15  O   UNL     1      35.234 -25.315 -10.494  0.00  0.00    -0.384 OA
ATOM     16  H   UNL     1      34.564 -25.184  -9.806  0.00  0.00    +0.210 HD
ENDBRANCH  14  15
ENDBRANCH   1  14
BRANCH   1  17
ATOM     17  C   UNL     1      37.515 -22.811 -12.153  0.00  0.00    +0.123 C 
BRANCH  17  18
ATOM     18  O   UNL     1      38.799 -23.178 -11.663  0.00  0.00    -0.384 OA
ATOM     19  H   UNL     1      39.115 -22.502 -11.042  0.00  0.00    +0.210 HD
ENDBRANCH  17  18
ENDBRANCH   1  17
TORSDOF 10
ENDMDL
MODEL 5
REMARK VINA RESULT:      -6.1      2.190      4.960
REMARK  Name = 81831
REMARK  10 active torsions:
REMARK  status: ('A' for Active; 'I' for Inactive)
REMARK    1  A    between atoms: C_1  and  N_2
REMARK    2  A    between atoms: C_1  and  C_11
REMARK    3  A    between atoms: C_1  and  C_14
REMARK    4  A    between atoms: C_1  and  C_17
REMARK    5  A    between atoms: N_2  and  C_5
REMARK    6  A    between atoms: C_5  and  C_6
REMARK    7  A    between atoms: C_6  and  S_7
REMARK    8  A    between atoms: C_11  and  O_12
REMARK    9  A    between atoms: C_14  and  O_15
REMARK   10  A    between atoms: C_17  and  O_18
REMARK                            x       y       z     vdW  Elec       q    Type
REMARK                         _______ _______ _______ _____ _____    ______ ____
ROOT
ATOM      1  C   UNL     1      36.459 -24.076 -12.156  0.00  0.00    +0.037 C 
ENDROOT
BRANCH   1   2
ATOM      2  N   UNL     1      37.244 -25.269 -12.515  0.00  0.00    +0.392 N 
ATOM      3  H   UNL     1      36.990 -26.036 -11.892  0.00  0.00    -0.084 HD
ATOM      4  H   UNL     1      38.236 -25.054 -12.420  0.00  0.00    -0.084 HD
BRANCH   2   5
ATOM      5  C   UNL     1      36.974 -25.658 -13.886  0.00  0.00    -0.055 C 
BRANCH   5   6
ATOM      6  C   UNL     1      38.170 -26.372 -14.494  0.00  0.00    +0.135 C 
BRANCH   6   7
ATOM      7  S   UNL     1      39.533 -25.270 -14.708  0.00  0.00    +0.020 S 
ATOM      8  O   UNL     1      38.696 -24.016 -15.328  0.00  0.00    -0.070 OA
ATOM      9  O   UNL     1      40.410 -25.800 -15.736  0.00  0.00    -0.070 OA
ATOM     10  O   UNL     1      40.038 -24.894 -13.400  0.00  0.00    -0.070 OA
ENDBRANCH   6   7
ENDBRANCH   5   6
ENDBRANCH   2   5
ENDBRANCH   1   2
BRANCH   1  11
ATOM     11  C   UNL     1      36.074 -24.209 -10.669  0.00  0.00    +0.123 C 
BRANCH  11  12
ATOM     12  O   UNL     1      35.181 -25.302 -10.485  0.00  0.00    -0.384 OA
ATOM     13  H   UNL     1      35.526 -26.082 -10.948  0.00  0.00    +0.210 HD
ENDBRANCH  11  12
ENDBRANCH   1  11
BRANCH   1  14
ATOM     14  C   UNL     1      37.314 -22.816 -12.415  0.00  0.00    +0.123 C 
BRANCH  14  15
ATOM     15  O   UNL     1      38.547 -22.881 -11.709  0.00  0.00    -0.384 OA
ATOM     16  H   UNL     1      38.634 -23.751 -11.290  0.00  0.00    +0.210 HD
ENDBRANCH  14  15
ENDBRANCH   1  14
BRANCH   1  17
ATOM     17  C   UNL     1      35.213 -24.018 -13.066  0.00  0.00    +0.123 C 
BRANCH  17  18
ATOM     18  O   UNL     1      34.076 -23.551 -12.350  0.00  0.00    -0.384 OA
ATOM     19  H   UNL     1      34.136 -23.836 -11.425  0.00  0.00    +0.210 HD
ENDBRANCH  17  18
ENDBRANCH   1  17
TORSDOF 10
ENDMDL
MODEL 6
REMARK VINA RESULT:      -6.1      2.262      5.026
REMARK  Name = 81831
REMARK  10 active torsions:
REMARK  status: ('A' for Active; 'I' for Inactive)
REMARK    1  A    between atoms: C_1  and  N_2
REMARK    2  A    between atoms: C_1  and  C_11
REMARK    3  A    between atoms: C_1  and  C_14
REMARK    4  A    between atoms: C_1  and  C_17
REMARK    5  A    between atoms: N_2  and  C_5
REMARK    6  A    between atoms: C_5  and  C_6
REMARK    7  A    between atoms: C_6  and  S_7
REMARK    8  A    between atoms: C_11  and  O_12
REMARK    9  A    between atoms: C_14  and  O_15
REMARK   10  A    between atoms: C_17  and  O_18
REMARK                            x       y       z     vdW  Elec       q    Type
REMARK                         _______ _______ _______ _____ _____    ______ ____
ROOT
ATOM      1  C   UNL     1      36.291 -24.150 -12.323  0.00  0.00    +0.037 C 
ENDROOT
BRANCH   1   2
ATOM      2  N   UNL     1      37.145 -25.143 -12.996  0.00  0.00    +0.392 N 
ATOM      3  H   UNL     1      36.913 -26.074 -12.649  0.00  0.00    -0.084 HD
ATOM      4  H   UNL     1      38.122 -24.928 -12.798  0.00  0.00    -0.084 HD
BRANCH   2   5
ATOM      5  C   UNL     1      36.935 -25.101 -14.431  0.00  0.00    -0.055 C 
BRANCH   5   6
ATOM      6  C   UNL     1      38.170 -24.581 -15.147  0.00  0.00    +0.135 C 
BRANCH   6   7
ATOM      7  S   UNL     1      39.602 -25.522 -14.719  0.00  0.00    +0.020 S 
ATOM      8  O   UNL     1      38.847 -26.941 -14.442  0.00  0.00    -0.070 OA
ATOM      9  O   UNL     1      40.135 -25.024 -13.464  0.00  0.00    -0.070 OA
ATOM     10  O   UNL     1      40.438 -25.660 -15.898  0.00  0.00    -0.070 OA
ENDBRANCH   6   7
ENDBRANCH   5   6
ENDBRANCH   2   5
ENDBRANCH   1   2
BRANCH   1  11
ATOM     11  C   UNL     1      37.151 -22.893 -12.080  0.00  0.00    +0.123 C 
BRANCH  11  12
ATOM     12  O   UNL     1      38.466 -23.264 -11.682  0.00  0.00    -0.384 OA
ATOM     13  H   UNL     1      39.109 -22.659 -12.087  0.00  0.00    +0.210 HD
ENDBRANCH  11  12
ENDBRANCH   1  11
BRANCH   1  14
ATOM     14  C   UNL     1      35.073 -23.844 -13.222  0.00  0.00    +0.123 C 
BRANCH  14  15
ATOM     15  O   UNL     1      33.935 -24.594 -12.815  0.00  0.00    -0.384 OA
ATOM     16  H   UNL     1      33.953 -24.712 -11.853  0.00  0.00    +0.210 HD
ENDBRANCH  14  15
ENDBRANCH   1  14
BRANCH   1  17
ATOM     17  C   UNL     1      35.782 -24.758 -10.999  0.00  0.00    +0.123 C 
BRANCH  17  18
ATOM     18  O   UNL     1      36.308 -24.059  -9.877  0.00  0.00    -0.384 OA
ATOM     19  H   UNL     1      37.224 -23.799 -10.058  0.00  0.00    +0.210 HD
ENDBRANCH  17  18
ENDBRANCH   1  17
TORSDOF 10
ENDMDL
MODEL 7
REMARK VINA RESULT:      -6.0      1.821      3.451
REMARK  Name = 81831
REMARK  10 active torsions:
REMARK  status: ('A' for Active; 'I' for Inactive)
REMARK    1  A    between atoms: C_1  and  N_2
REMARK    2  A    between atoms: C_1  and  C_11
REMARK    3  A    between atoms: C_1  and  C_14
REMARK    4  A    between atoms: C_1  and  C_17
REMARK    5  A    between atoms: N_2  and  C_5
REMARK    6  A    between atoms: C_5  and  C_6
REMARK    7  A    between atoms: C_6  and  S_7
REMARK    8  A    between atoms: C_11  and  O_12
REMARK    9  A    between atoms: C_14  and  O_15
REMARK   10  A    between atoms: C_17  and  O_18
REMARK                            x       y       z     vdW  Elec       q    Type
REMARK                         _______ _______ _______ _____ _____    ______ ____
ROOT
ATOM      1  C   UNL     1      36.281 -23.459 -15.178  0.00  0.00    +0.037 C 
ENDROOT
BRANCH   1   2
ATOM      2  N   UNL     1      36.138 -22.817 -13.861  0.00  0.00    +0.392 N 
ATOM      3  H   UNL     1      35.242 -23.083 -13.454  0.00  0.00    -0.084 HD
ATOM      4  H   UNL     1      36.183 -21.805 -13.979  0.00  0.00    -0.084 HD
BRANCH   2   5
ATOM      5  C   UNL     1      37.208 -23.236 -12.976  0.00  0.00    -0.055 C 
BRANCH   5   6
ATOM      6  C   UNL     1      36.754 -23.218 -11.526  0.00  0.00    +0.135 C 
BRANCH   6   7
ATOM      7  S   UNL     1      35.780 -24.639 -11.142  0.00  0.00    +0.020 S 
ATOM      8  O   UNL     1      34.520 -24.303 -12.121  0.00  0.00    -0.070 OA
ATOM      9  O   UNL     1      35.336 -24.548  -9.763  0.00  0.00    -0.070 OA
ATOM     10  O   UNL     1      36.459 -25.820 -11.644  0.00  0.00    -0.070 OA
ENDBRANCH   6   7
ENDBRANCH   5   6
ENDBRANCH   2   5
ENDBRANCH   1   2
BRANCH   1  11
ATOM     11  C   UNL     1      36.704 -24.921 -14.934  0.00  0.00    +0.123 C 
BRANCH  11  12
ATOM     12  O   UNL     1      35.567 -25.720 -14.624  0.00  0.00    -0.384 OA
ATOM     13  H   UNL     1      34.796 -25.146 -14.492  0.00  0.00    +0.210 HD
ENDBRANCH  11  12
ENDBRANCH   1  11
BRANCH   1  14
ATOM     14  C   UNL     1      34.935 -23.371 -15.929  0.00  0.00    +0.123 C 
BRANCH  14  15
ATOM     15  O   UNL     1      33.841 -23.362 -15.020  0.00  0.00    -0.384 OA
ATOM     16  H   UNL     1      33.538 -22.450 -14.888  0.00  0.00    +0.210 HD
ENDBRANCH  14  15
ENDBRANCH   1  14
BRANCH   1  17
ATOM     17  C   UNL     1      37.344 -22.685 -15.987  0.00  0.00    +0.123 C 
BRANCH  17  18
ATOM     18  O   UNL     1      38.582 -23.385 -16.010  0.00  0.00    -0.384 OA
ATOM     19  H   UNL     1      39.295 -22.794 -15.722  0.00  0.00    +0.210 HD
ENDBRANCH  17  18
ENDBRANCH   1  17
TORSDOF 10
ENDMDL
MODEL 8
REMARK VINA RESULT:      -5.9      1.991      3.012
REMARK  Name = 81831
REMARK  10 active torsions:
REMARK  status: ('A' for Active; 'I' for Inactive)
REMARK    1  A    between atoms: C_1  and  N_2
REMARK    2  A    between atoms: C_1  and  C_11
REMARK    3  A    between atoms: C_1  and  C_14
REMARK    4  A    between atoms: C_1  and  C_17
REMARK    5  A    between atoms: N_2  and  C_5
REMARK    6  A    between atoms: C_5  and  C_6
REMARK    7  A    between atoms: C_6  and  S_7
REMARK    8  A    between atoms: C_11  and  O_12
REMARK    9  A    between atoms: C_14  and  O_15
REMARK   10  A    between atoms: C_17  and  O_18
REMARK                            x       y       z     vdW  Elec       q    Type
REMARK                         _______ _______ _______ _____ _____    ______ ____
ROOT
ATOM      1  C   UNL     1      38.564 -25.390 -14.343  0.00  0.00    +0.037 C 
ENDROOT
BRANCH   1   2
ATOM      2  N   UNL     1      37.987 -24.393 -15.261  0.00  0.00    +0.392 N 
ATOM      3  H   UNL     1      37.219 -24.820 -15.779  0.00  0.00    -0.084 HD
ATOM      4  H   UNL     1      38.711 -24.077 -15.905  0.00  0.00    -0.084 HD
BRANCH   2   5
ATOM      5  C   UNL     1      37.486 -23.252 -14.517  0.00  0.00    -0.055 C 
BRANCH   5   6
ATOM      6  C   UNL     1      36.172 -22.758 -15.099  0.00  0.00    +0.135 C 
BRANCH   6   7
ATOM      7  S   UNL     1      34.860 -23.894 -14.773  0.00  0.00    +0.020 S 
ATOM      8  O   UNL     1      35.141 -24.906 -16.019  0.00  0.00    -0.070 OA
ATOM      9  O   UNL     1      33.591 -23.223 -14.992  0.00  0.00    -0.070 OA
ATOM     10  O   UNL     1      35.144 -24.591 -13.531  0.00  0.00    -0.070 OA
ENDBRANCH   6   7
ENDBRANCH   5   6
ENDBRANCH   2   5
ENDBRANCH   1   2
BRANCH   1  11
ATOM     11  C   UNL     1      37.788 -26.706 -14.547  0.00  0.00    +0.123 C 
BRANCH  11  12
ATOM     12  O   UNL     1      37.308 -26.796 -15.884  0.00  0.00    -0.384 OA
ATOM     13  H   UNL     1      37.041 -27.711 -16.071  0.00  0.00    +0.210 HD
ENDBRANCH  11  12
ENDBRANCH   1  11
BRANCH   1  14
ATOM     14  C   UNL     1      40.066 -25.556 -14.663  0.00  0.00    +0.123 C 
BRANCH  14  15
ATOM     15  O   UNL     1      40.263 -25.910 -16.026  0.00  0.00    -0.384 OA
ATOM     16  H   UNL     1      39.425 -26.219 -16.404  0.00  0.00    +0.210 HD
ENDBRANCH  14  15
ENDBRANCH   1  14
BRANCH   1  17
ATOM     17  C   UNL     1      38.426 -24.863 -12.899  0.00  0.00    +0.123 C 
BRANCH  17  18
ATOM     18  O   UNL     1      37.684 -25.769 -12.091  0.00  0.00    -0.384 OA
ATOM     19  H   UNL     1      36.736 -25.635 -12.241  0.00  0.00    +0.210 HD
ENDBRANCH  17  18
ENDBRANCH   1  17
TORSDOF 10
ENDMDL
MODEL 9
REMARK VINA RESULT:      -5.9      2.486      4.885
REMARK  Name = 81831
REMARK  10 active torsions:
REMARK  status: ('A' for Active; 'I' for Inactive)
REMARK    1  A    between atoms: C_1  and  N_2
REMARK    2  A    between atoms: C_1  and  C_11
REMARK    3  A    between atoms: C_1  and  C_14
REMARK    4  A    between atoms: C_1  and  C_17
REMARK    5  A    between atoms: N_2  and  C_5
REMARK    6  A    between atoms: C_5  and  C_6
REMARK    7  A    between atoms: C_6  and  S_7
REMARK    8  A    between atoms: C_11  and  O_12
REMARK    9  A    between atoms: C_14  and  O_15
REMARK   10  A    between atoms: C_17  and  O_18
REMARK                            x       y       z     vdW  Elec       q    Type
REMARK                         _______ _______ _______ _____ _____    ______ ____
ROOT
ATOM      1  C   UNL     1      35.376 -24.266 -13.211  0.00  0.00    +0.037 C 
ENDROOT
BRANCH   1   2
ATOM      2  N   UNL     1      35.808 -25.577 -13.722  0.00  0.00    +0.392 N 
ATOM      3  H   UNL     1      34.991 -26.175 -13.844  0.00  0.00    -0.084 HD
ATOM      4  H   UNL     1      36.454 -25.997 -13.054  0.00  0.00    -0.084 HD
BRANCH   2   5
ATOM      5  C   UNL     1      36.483 -25.425 -14.997  0.00  0.00    -0.055 C 
BRANCH   5   6
ATOM      6  C   UNL     1      37.629 -26.415 -15.128  0.00  0.00    +0.135 C 
BRANCH   6   7
ATOM      7  S   UNL     1      39.068 -25.846 -14.279  0.00  0.00    +0.020 S 
ATOM      8  O   UNL     1      39.196 -24.401 -15.024  0.00  0.00    -0.070 OA
ATOM      9  O   UNL     1      40.199 -26.671 -14.663  0.00  0.00    -0.070 OA
ATOM     10  O   UNL     1      38.730 -25.624 -12.885  0.00  0.00    -0.070 OA
ENDBRANCH   6   7
ENDBRANCH   5   6
ENDBRANCH   2   5
ENDBRANCH   1   2
BRANCH   1  11
ATOM     11  C   UNL     1      33.926 -24.042 -13.686  0.00  0.00    +0.123 C 
BRANCH  11  12
ATOM     12  O   UNL     1      33.045 -24.946 -13.029  0.00  0.00    -0.384 OA
ATOM     13  H   UNL     1      33.505 -25.786 -12.869  0.00  0.00    +0.210 HD
ENDBRANCH  11  12
ENDBRANCH   1  11
BRANCH   1  14
ATOM     14  C   UNL     1      35.479 -24.268 -11.670  0.00  0.00    +0.123 C 
BRANCH  14  15
ATOM     15  O   UNL     1      36.280 -25.351 -11.213  0.00  0.00    -0.384 OA
ATOM     16  H   UNL     1      36.913 -25.600 -11.904  0.00  0.00    +0.210 HD
ENDBRANCH  14  15
ENDBRANCH   1  14
BRANCH   1  17
ATOM     17  C   UNL     1      36.331 -23.186 -13.764  0.00  0.00    +0.123 C 
BRANCH  17  18
ATOM     18  O   UNL     1      37.445 -22.994 -12.900  0.00  0.00    -0.384 OA
ATOM     19  H   UNL     1      37.175 -23.156 -11.983  0.00  0.00    +0.210 HD
ENDBRANCH  17  18
ENDBRANCH   1  17
TORSDOF 10
ENDMDL
