MODEL 1
REMARK VINA RESULT:      -9.1      0.000      0.000
REMARK  Name = 10062714
REMARK  9 active torsions:
REMARK  status: ('A' for Active; 'I' for Inactive)
REMARK    1  A    between atoms: O_1  and  C_2
REMARK    2  A    between atoms: O_1  and  C_16
REMARK    3  A    between atoms: C_2  and  C_7
REMARK    4  A    between atoms: C_7  and  C_8
REMARK    5  A    between atoms: N_15  and  CA_18
REMARK    6  A    between atoms: CA_18  and  C_20
REMARK    7  A    between atoms: CA_18  and  C_21
REMARK    8  A    between atoms: C_21  and  C_22
REMARK    9  A    between atoms: C_22  and  C_23
REMARK                            x       y       z     vdW  Elec       q    Type
REMARK                         _______ _______ _______ _____ _____    ______ ____
ROOT
ATOM      1  O   UNL     1      33.936 -17.445 -22.017  0.00  0.00    -0.442 OA
ENDROOT
BRANCH   1   2
ATOM      2  C   UNL     1      35.059 -18.189 -22.490  0.00  0.00    +0.141 C 
ATOM      3  C   UNL     1      34.556 -19.343 -23.354  0.00  0.00    +0.041 C 
ATOM      4  C   UNL     1      35.851 -17.348 -23.488  0.00  0.00    +0.041 C 
ATOM      5  C   UNL     1      34.196 -18.688 -24.688  0.00  0.00    +0.004 C 
ATOM      6  C   UNL     1      35.016 -17.398 -24.765  0.00  0.00    +0.004 C 
BRANCH   2   7
ATOM      7  C   UNL     1      35.882 -18.651 -21.297  0.00  0.00    +0.066 C 
BRANCH   7   8
ATOM      8  C   UNL     1      35.255 -19.834 -20.607  0.00  0.00    -0.019 C 
ATOM      9  C   UNL     1      33.867 -19.919 -20.491  0.00  0.00    -0.004 C 
ATOM     10  C   UNL     1      36.062 -20.845 -20.084  0.00  0.00    -0.004 C 
ATOM     11  C   UNL     1      33.288 -21.015 -19.851  0.00  0.00    -0.000 C 
ATOM     12  C   UNL     1      35.481 -21.940 -19.446  0.00  0.00    -0.000 C 
ATOM     13  C   UNL     1      34.094 -22.025 -19.329  0.00  0.00    -0.000 C 
ENDBRANCH   7   8
ENDBRANCH   2   7
ENDBRANCH   1   2
BRANCH   1  16
ATOM     14  O   UNL     1      34.865 -15.764 -20.758  0.00  0.00    -0.226 OA
ATOM     15  N   UNL     1      33.535 -15.315 -22.606  0.00  0.00    -0.265 N 
ATOM     16  C   UNL     1      34.178 -16.139 -21.703  0.00  0.00    +0.402 C 
ATOM     17  H   UNL     1      33.010 -15.735 -23.325  0.00  0.00    +0.153 HD
BRANCH  15  18
ATOM     18  CA  UNL     1      33.587 -13.875 -22.556  0.00  0.00    +0.139 C 
BRANCH  18  20
ATOM     19  O   UNL     1      32.331 -13.175 -20.605  0.00  0.00    -0.286 OA
ATOM     20  C   UNL     1      32.341 -13.463 -21.800  0.00  0.00    +0.227 C 
ENDBRANCH  18  20
BRANCH  18  21
ATOM     21  C   UNL     1      33.662 -13.281 -23.963  0.00  0.00    +0.028 C 
BRANCH  21  22
ATOM     22  C   UNL     1      33.746 -11.751 -23.954  0.00  0.00    +0.002 C 
BRANCH  22  23
ATOM     23  C   UNL     1      34.238 -11.215 -25.299  0.00  0.00    +0.000 C 
ATOM     24  C   UNL     1      35.253 -10.100 -25.116  0.00  0.00    +0.000 C 
ENDBRANCH  22  23
ENDBRANCH  21  22
ENDBRANCH  18  21
ENDBRANCH  15  18
ENDBRANCH   1  16
TORSDOF 9
ENDMDL
MODEL 2
REMARK VINA RESULT:      -8.9      2.116      3.720
REMARK  Name = 10062714
REMARK  9 active torsions:
REMARK  status: ('A' for Active; 'I' for Inactive)
REMARK    1  A    between atoms: O_1  and  C_2
REMARK    2  A    between atoms: O_1  and  C_16
REMARK    3  A    between atoms: C_2  and  C_7
REMARK    4  A    between atoms: C_7  and  C_8
REMARK    5  A    between atoms: N_15  and  CA_18
REMARK    6  A    between atoms: CA_18  and  C_20
REMARK    7  A    between atoms: CA_18  and  C_21
REMARK    8  A    between atoms: C_21  and  C_22
REMARK    9  A    between atoms: C_22  and  C_23
REMARK                            x       y       z     vdW  Elec       q    Type
REMARK                         _______ _______ _______ _____ _____    ______ ____
ROOT
ATOM      1  O   UNL     1      34.931 -15.309 -22.922  0.00  0.00    -0.442 OA
ENDROOT
BRANCH   1   2
ATOM      2  C   UNL     1      34.339 -16.305 -22.088  0.00  0.00    +0.141 C 
ATOM      3  C   UNL     1      35.012 -16.263 -20.719  0.00  0.00    +0.041 C 
ATOM      4  C   UNL     1      32.899 -15.915 -21.762  0.00  0.00    +0.041 C 
ATOM      5  C   UNL     1      34.388 -15.051 -20.027  0.00  0.00    +0.004 C 
ATOM      6  C   UNL     1      33.038 -14.818 -20.709  0.00  0.00    +0.004 C 
BRANCH   2   7
ATOM      7  C   UNL     1      34.461 -17.657 -22.773  0.00  0.00    +0.066 C 
BRANCH   7   8
ATOM      8  C   UNL     1      34.498 -18.788 -21.779  0.00  0.00    -0.019 C 
ATOM      9  C   UNL     1      35.721 -19.319 -21.371  0.00  0.00    -0.004 C 
ATOM     10  C   UNL     1      33.308 -19.304 -21.265  0.00  0.00    -0.004 C 
ATOM     11  C   UNL     1      35.755 -20.366 -20.450  0.00  0.00    -0.000 C 
ATOM     12  C   UNL     1      33.342 -20.351 -20.344  0.00  0.00    -0.000 C 
ATOM     13  C   UNL     1      34.565 -20.882 -19.937  0.00  0.00    -0.000 C 
ENDBRANCH   7   8
ENDBRANCH   2   7
ENDBRANCH   1   2
BRANCH   1  16
ATOM     14  O   UNL     1      33.411 -15.122 -24.634  0.00  0.00    -0.226 OA
ATOM     15  N   UNL     1      34.060 -13.287 -23.371  0.00  0.00    -0.265 N 
ATOM     16  C   UNL     1      34.070 -14.621 -23.729  0.00  0.00    +0.402 C 
ATOM     17  H   UNL     1      34.635 -13.003 -22.625  0.00  0.00    +0.153 HD
BRANCH  15  18
ATOM     18  CA  UNL     1      33.255 -12.287 -24.027  0.00  0.00    +0.139 C 
BRANCH  18  20
ATOM     19  O   UNL     1      34.002 -11.844 -26.289  0.00  0.00    -0.286 OA
ATOM     20  C   UNL     1      34.161 -11.684 -25.082  0.00  0.00    +0.227 C 
ENDBRANCH  18  20
BRANCH  18  21
ATOM     21  C   UNL     1      32.734 -11.259 -23.022  0.00  0.00    +0.028 C 
BRANCH  21  22
ATOM     22  C   UNL     1      31.670 -11.839 -22.084  0.00  0.00    +0.002 C 
BRANCH  22  23
ATOM     23  C   UNL     1      31.297 -10.842 -20.986  0.00  0.00    +0.000 C 
ATOM     24  C   UNL     1      31.586 -11.404 -19.603  0.00  0.00    +0.000 C 
ENDBRANCH  22  23
ENDBRANCH  21  22
ENDBRANCH  18  21
ENDBRANCH  15  18
ENDBRANCH   1  16
TORSDOF 9
ENDMDL
MODEL 3
REMARK VINA RESULT:      -8.6      1.483      2.584
REMARK  Name = 10062714
REMARK  9 active torsions:
REMARK  status: ('A' for Active; 'I' for Inactive)
REMARK    1  A    between atoms: O_1  and  C_2
REMARK    2  A    between atoms: O_1  and  C_16
REMARK    3  A    between atoms: C_2  and  C_7
REMARK    4  A    between atoms: C_7  and  C_8
REMARK    5  A    between atoms: N_15  and  CA_18
REMARK    6  A    between atoms: CA_18  and  C_20
REMARK    7  A    between atoms: CA_18  and  C_21
REMARK    8  A    between atoms: C_21  and  C_22
REMARK    9  A    between atoms: C_22  and  C_23
REMARK                            x       y       z     vdW  Elec       q    Type
REMARK                         _______ _______ _______ _____ _____    ______ ____
ROOT
ATOM      1  O   UNL     1      33.750 -17.281 -22.035  0.00  0.00    -0.442 OA
ENDROOT
BRANCH   1   2
ATOM      2  C   UNL     1      34.964 -17.864 -22.509  0.00  0.00    +0.141 C 
ATOM      3  C   UNL     1      34.622 -19.006 -23.463  0.00  0.00    +0.041 C 
ATOM      4  C   UNL     1      35.689 -16.876 -23.420  0.00  0.00    +0.041 C 
ATOM      5  C   UNL     1      34.233 -18.307 -24.766  0.00  0.00    +0.004 C 
ATOM      6  C   UNL     1      34.906 -16.933 -24.730  0.00  0.00    +0.004 C 
BRANCH   2   7
ATOM      7  C   UNL     1      35.795 -18.311 -21.316  0.00  0.00    +0.066 C 
BRANCH   7   8
ATOM      8  C   UNL     1      35.239 -19.558 -20.681  0.00  0.00    -0.019 C 
ATOM      9  C   UNL     1      36.104 -20.539 -20.195  0.00  0.00    -0.004 C 
ATOM     10  C   UNL     1      33.858 -19.733 -20.577  0.00  0.00    -0.004 C 
ATOM     11  C   UNL     1      35.588 -21.694 -19.607  0.00  0.00    -0.000 C 
ATOM     12  C   UNL     1      33.343 -20.887 -19.989  0.00  0.00    -0.000 C 
ATOM     13  C   UNL     1      34.208 -21.868 -19.504  0.00  0.00    -0.000 C 
ENDBRANCH   7   8
ENDBRANCH   2   7
ENDBRANCH   1   2
BRANCH   1  16
ATOM     14  O   UNL     1      34.555 -15.419 -20.958  0.00  0.00    -0.226 OA
ATOM     15  N   UNL     1      32.870 -15.279 -22.547  0.00  0.00    -0.265 N 
ATOM     16  C   UNL     1      33.798 -15.943 -21.769  0.00  0.00    +0.402 C 
ATOM     17  H   UNL     1      32.317 -15.810 -23.164  0.00  0.00    +0.153 HD
BRANCH  15  18
ATOM     18  CA  UNL     1      32.664 -13.852 -22.508  0.00  0.00    +0.139 C 
BRANCH  18  20
ATOM     19  O   UNL     1      33.944 -12.991 -24.378  0.00  0.00    -0.286 OA
ATOM     20  C   UNL     1      33.887 -13.261 -23.181  0.00  0.00    +0.227 C 
ENDBRANCH  18  20
BRANCH  18  21
ATOM     21  C   UNL     1      32.472 -13.365 -21.072  0.00  0.00    +0.028 C 
BRANCH  21  22
ATOM     22  C   UNL     1      31.616 -12.097 -20.989  0.00  0.00    +0.002 C 
BRANCH  22  23
ATOM     23  C   UNL     1      31.592 -11.538 -19.566  0.00  0.00    +0.000 C 
ATOM     24  C   UNL     1      31.838 -10.038 -19.553  0.00  0.00    +0.000 C 
ENDBRANCH  22  23
ENDBRANCH  21  22
ENDBRANCH  18  21
ENDBRANCH  15  18
ENDBRANCH   1  16
TORSDOF 9
ENDMDL
MODEL 4
REMARK VINA RESULT:      -8.4      2.143      7.650
REMARK  Name = 10062714
REMARK  9 active torsions:
REMARK  status: ('A' for Active; 'I' for Inactive)
REMARK    1  A    between atoms: O_1  and  C_2
REMARK    2  A    between atoms: O_1  and  C_16
REMARK    3  A    between atoms: C_2  and  C_7
REMARK    4  A    between atoms: C_7  and  C_8
REMARK    5  A    between atoms: N_15  and  CA_18
REMARK    6  A    between atoms: CA_18  and  C_20
REMARK    7  A    between atoms: CA_18  and  C_21
REMARK    8  A    between atoms: C_21  and  C_22
REMARK    9  A    between atoms: C_22  and  C_23
REMARK                            x       y       z     vdW  Elec       q    Type
REMARK                         _______ _______ _______ _____ _____    ______ ____
ROOT
ATOM      1  O   UNL     1      35.174 -16.762 -20.844  0.00  0.00    -0.442 OA
ENDROOT
BRANCH   1   2
ATOM      2  C   UNL     1      34.432 -15.976 -21.776  0.00  0.00    +0.141 C 
ATOM      3  C   UNL     1      33.004 -16.512 -21.844  0.00  0.00    +0.041 C 
ATOM      4  C   UNL     1      34.231 -14.569 -21.219  0.00  0.00    +0.041 C 
ATOM      5  C   UNL     1      32.337 -15.974 -20.579  0.00  0.00    +0.004 C 
ATOM      6  C   UNL     1      33.136 -14.735 -20.169  0.00  0.00    +0.004 C 
BRANCH   2   7
ATOM      7  C   UNL     1      35.144 -16.002 -23.120  0.00  0.00    +0.066 C 
BRANCH   7   8
ATOM      8  C   UNL     1      34.309 -15.382 -24.209  0.00  0.00    -0.019 C 
ATOM      9  C   UNL     1      33.886 -16.155 -25.290  0.00  0.00    -0.004 C 
ATOM     10  C   UNL     1      33.958 -14.033 -24.137  0.00  0.00    -0.004 C 
ATOM     11  C   UNL     1      33.113 -15.580 -26.298  0.00  0.00    -0.000 C 
ATOM     12  C   UNL     1      33.185 -13.459 -25.145  0.00  0.00    -0.000 C 
ATOM     13  C   UNL     1      32.763 -14.233 -26.226  0.00  0.00    -0.000 C 
ENDBRANCH   7   8
ENDBRANCH   2   7
ENDBRANCH   1   2
BRANCH   1  16
ATOM     14  O   UNL     1      36.257 -18.311 -22.149  0.00  0.00    -0.226 OA
ATOM     15  N   UNL     1      34.772 -18.942 -20.482  0.00  0.00    -0.265 N 
ATOM     16  C   UNL     1      35.476 -18.032 -21.245  0.00  0.00    +0.402 C 
ATOM     17  H   UNL     1      34.172 -18.596 -19.783  0.00  0.00    +0.153 HD
BRANCH  15  18
ATOM     18  CA  UNL     1      34.864 -20.372 -20.651  0.00  0.00    +0.139 C 
BRANCH  18  20
ATOM     19  O   UNL     1      32.524 -20.287 -20.023  0.00  0.00    -0.286 OA
ATOM     20  C   UNL     1      33.577 -20.919 -20.068  0.00  0.00    +0.227 C 
ENDBRANCH  18  20
BRANCH  18  21
ATOM     21  C   UNL     1      36.116 -20.924 -19.971  0.00  0.00    +0.028 C 
BRANCH  21  22
ATOM     22  C   UNL     1      35.792 -21.773 -18.737  0.00  0.00    +0.002 C 
BRANCH  22  23
ATOM     23  C   UNL     1      36.884 -21.644 -17.674  0.00  0.00    +0.000 C 
ATOM     24  C   UNL     1      36.542 -22.440 -16.425  0.00  0.00    +0.000 C 
ENDBRANCH  22  23
ENDBRANCH  21  22
ENDBRANCH  18  21
ENDBRANCH  15  18
ENDBRANCH   1  16
TORSDOF 9
ENDMDL
MODEL 5
REMARK VINA RESULT:      -8.4      8.471     11.330
REMARK  Name = 10062714
REMARK  9 active torsions:
REMARK  status: ('A' for Active; 'I' for Inactive)
REMARK    1  A    between atoms: O_1  and  C_2
REMARK    2  A    between atoms: O_1  and  C_16
REMARK    3  A    between atoms: C_2  and  C_7
REMARK    4  A    between atoms: C_7  and  C_8
REMARK    5  A    between atoms: N_15  and  CA_18
REMARK    6  A    between atoms: CA_18  and  C_20
REMARK    7  A    between atoms: CA_18  and  C_21
REMARK    8  A    between atoms: C_21  and  C_22
REMARK    9  A    between atoms: C_22  and  C_23
REMARK                            x       y       z     vdW  Elec       q    Type
REMARK                         _______ _______ _______ _____ _____    ______ ____
ROOT
ATOM      1  O   UNL     1      34.781 -25.043 -14.314  0.00  0.00    -0.442 OA
ENDROOT
BRANCH   1   2
ATOM      2  C   UNL     1      36.055 -24.400 -14.293  0.00  0.00    +0.141 C 
ATOM      3  C   UNL     1      36.739 -24.705 -12.963  0.00  0.00    +0.041 C 
ATOM      4  C   UNL     1      36.986 -25.065 -15.305  0.00  0.00    +0.041 C 
ATOM      5  C   UNL     1      37.259 -26.133 -13.124  0.00  0.00    +0.004 C 
ATOM      6  C   UNL     1      37.401 -26.369 -14.629  0.00  0.00    +0.004 C 
BRANCH   2   7
ATOM      7  C   UNL     1      35.859 -22.911 -14.536  0.00  0.00    +0.066 C 
BRANCH   7   8
ATOM      8  C   UNL     1      35.773 -22.589 -16.005  0.00  0.00    -0.019 C 
ATOM      9  C   UNL     1      36.848 -21.976 -16.649  0.00  0.00    -0.004 C 
ATOM     10  C   UNL     1      34.618 -22.903 -16.722  0.00  0.00    -0.004 C 
ATOM     11  C   UNL     1      36.768 -21.678 -18.009  0.00  0.00    -0.000 C 
ATOM     12  C   UNL     1      34.538 -22.605 -18.081  0.00  0.00    -0.000 C 
ATOM     13  C   UNL     1      35.613 -21.992 -18.725  0.00  0.00    -0.000 C 
ENDBRANCH   7   8
ENDBRANCH   2   7
ENDBRANCH   1   2
BRANCH   1  16
ATOM     14  O   UNL     1      33.920 -24.033 -12.440  0.00  0.00    -0.226 OA
ATOM     15  N   UNL     1      32.648 -24.340 -14.356  0.00  0.00    -0.265 N 
ATOM     16  C   UNL     1      33.795 -24.434 -13.593  0.00  0.00    +0.402 C 
ATOM     17  H   UNL     1      32.670 -24.699 -15.272  0.00  0.00    +0.153 HD
BRANCH  15  18
ATOM     18  CA  UNL     1      31.420 -23.746 -13.889  0.00  0.00    +0.139 C 
BRANCH  18  20
ATOM     19  O   UNL     1      30.474 -25.849 -14.635  0.00  0.00    -0.286 OA
ATOM     20  C   UNL     1      30.414 -24.879 -13.884  0.00  0.00    +0.227 C 
ENDBRANCH  18  20
BRANCH  18  21
ATOM     21  C   UNL     1      31.005 -22.575 -14.780  0.00  0.00    +0.028 C 
BRANCH  21  22
ATOM     22  C   UNL     1      30.599 -23.021 -16.188  0.00  0.00    +0.002 C 
BRANCH  22  23
ATOM     23  C   UNL     1      29.154 -22.625 -16.499  0.00  0.00    +0.000 C 
ATOM     24  C   UNL     1      28.307 -23.839 -16.843  0.00  0.00    +0.000 C 
ENDBRANCH  22  23
ENDBRANCH  21  22
ENDBRANCH  18  21
ENDBRANCH  15  18
ENDBRANCH   1  16
TORSDOF 9
ENDMDL
MODEL 6
REMARK VINA RESULT:      -8.4      8.436     12.122
REMARK  Name = 10062714
REMARK  9 active torsions:
REMARK  status: ('A' for Active; 'I' for Inactive)
REMARK    1  A    between atoms: O_1  and  C_2
REMARK    2  A    between atoms: O_1  and  C_16
REMARK    3  A    between atoms: C_2  and  C_7
REMARK    4  A    between atoms: C_7  and  C_8
REMARK    5  A    between atoms: N_15  and  CA_18
REMARK    6  A    between atoms: CA_18  and  C_20
REMARK    7  A    between atoms: CA_18  and  C_21
REMARK    8  A    between atoms: C_21  and  C_22
REMARK    9  A    between atoms: C_22  and  C_23
REMARK                            x       y       z     vdW  Elec       q    Type
REMARK                         _______ _______ _______ _____ _____    ______ ____
ROOT
ATOM      1  O   UNL     1      33.477 -23.430 -13.048  0.00  0.00    -0.442 OA
ENDROOT
BRANCH   1   2
ATOM      2  C   UNL     1      32.978 -23.928 -14.289  0.00  0.00    +0.141 C 
ATOM      3  C   UNL     1      31.925 -24.996 -14.003  0.00  0.00    +0.041 C 
ATOM      4  C   UNL     1      32.166 -22.842 -14.992  0.00  0.00    +0.041 C 
ATOM      5  C   UNL     1      30.679 -24.203 -13.610  0.00  0.00    +0.004 C 
ATOM      6  C   UNL     1      30.842 -22.815 -14.232  0.00  0.00    +0.004 C 
BRANCH   2   7
ATOM      7  C   UNL     1      34.144 -24.446 -15.117  0.00  0.00    +0.066 C 
BRANCH   7   8
ATOM      8  C   UNL     1      34.384 -23.599 -16.339  0.00  0.00    -0.019 C 
ATOM      9  C   UNL     1      33.437 -23.567 -17.363  0.00  0.00    -0.004 C 
ATOM     10  C   UNL     1      35.554 -22.846 -16.448  0.00  0.00    -0.004 C 
ATOM     11  C   UNL     1      33.660 -22.783 -18.495  0.00  0.00    -0.000 C 
ATOM     12  C   UNL     1      35.776 -22.062 -17.579  0.00  0.00    -0.000 C 
ATOM     13  C   UNL     1      34.829 -22.031 -18.603  0.00  0.00    -0.000 C 
ENDBRANCH   7   8
ENDBRANCH   2   7
ENDBRANCH   1   2
BRANCH   1  16
ATOM     14  O   UNL     1      34.492 -25.057 -11.785  0.00  0.00    -0.226 OA
ATOM     15  N   UNL     1      35.721 -23.498 -12.985  0.00  0.00    -0.265 N 
ATOM     16  C   UNL     1      34.557 -24.088 -12.534  0.00  0.00    +0.402 C 
ATOM     17  H   UNL     1      35.646 -22.722 -13.585  0.00  0.00    +0.153 HD
BRANCH  15  18
ATOM     18  CA  UNL     1      37.042 -23.953 -12.627  0.00  0.00    +0.139 C 
BRANCH  18  20
ATOM     19  O   UNL     1      38.837 -22.653 -11.647  0.00  0.00    -0.286 OA
ATOM     20  C   UNL     1      37.631 -22.832 -11.795  0.00  0.00    +0.227 C 
ENDBRANCH  18  20
BRANCH  18  21
ATOM     21  C   UNL     1      37.866 -24.275 -13.873  0.00  0.00    +0.028 C 
BRANCH  21  22
ATOM     22  C   UNL     1      38.388 -25.716 -13.880  0.00  0.00    +0.002 C 
BRANCH  22  23
ATOM     23  C   UNL     1      37.238 -26.721 -13.972  0.00  0.00    +0.000 C 
ATOM     24  C   UNL     1      36.785 -26.918 -15.409  0.00  0.00    +0.000 C 
ENDBRANCH  22  23
ENDBRANCH  21  22
ENDBRANCH  18  21
ENDBRANCH  15  18
ENDBRANCH   1  16
TORSDOF 9
ENDMDL
MODEL 7
REMARK VINA RESULT:      -8.4      2.320      3.970
REMARK  Name = 10062714
REMARK  9 active torsions:
REMARK  status: ('A' for Active; 'I' for Inactive)
REMARK    1  A    between atoms: O_1  and  C_2
REMARK    2  A    between atoms: O_1  and  C_16
REMARK    3  A    between atoms: C_2  and  C_7
REMARK    4  A    between atoms: C_7  and  C_8
REMARK    5  A    between atoms: N_15  and  CA_18
REMARK    6  A    between atoms: CA_18  and  C_20
REMARK    7  A    between atoms: CA_18  and  C_21
REMARK    8  A    between atoms: C_21  and  C_22
REMARK    9  A    between atoms: C_22  and  C_23
REMARK                            x       y       z     vdW  Elec       q    Type
REMARK                         _______ _______ _______ _____ _____    ______ ____
ROOT
ATOM      1  O   UNL     1      32.371 -14.231 -22.993  0.00  0.00    -0.442 OA
ENDROOT
BRANCH   1   2
ATOM      2  C   UNL     1      33.645 -14.418 -23.610  0.00  0.00    +0.141 C 
ATOM      3  C   UNL     1      33.499 -15.430 -24.743  0.00  0.00    +0.041 C 
ATOM      4  C   UNL     1      34.051 -13.146 -24.351  0.00  0.00    +0.041 C 
ATOM      5  C   UNL     1      32.860 -14.634 -25.881  0.00  0.00    +0.004 C 
ATOM      6  C   UNL     1      33.201 -13.166 -25.619  0.00  0.00    +0.004 C 
BRANCH   2   7
ATOM      7  C   UNL     1      34.647 -14.849 -22.550  0.00  0.00    +0.066 C 
BRANCH   7   8
ATOM      8  C   UNL     1      34.708 -16.348 -22.412  0.00  0.00    -0.019 C 
ATOM      9  C   UNL     1      35.457 -17.101 -23.316  0.00  0.00    -0.004 C 
ATOM     10  C   UNL     1      34.017 -16.982 -21.379  0.00  0.00    -0.004 C 
ATOM     11  C   UNL     1      35.513 -18.489 -23.187  0.00  0.00    -0.000 C 
ATOM     12  C   UNL     1      34.074 -18.369 -21.251  0.00  0.00    -0.000 C 
ATOM     13  C   UNL     1      34.822 -19.122 -22.155  0.00  0.00    -0.000 C 
ENDBRANCH   7   8
ENDBRANCH   2   7
ENDBRANCH   1   2
BRANCH   1  16
ATOM     14  O   UNL     1      32.606 -13.535 -20.817  0.00  0.00    -0.226 OA
ATOM     15  N   UNL     1      31.920 -12.088 -22.496  0.00  0.00    -0.265 N 
ATOM     16  C   UNL     1      32.326 -13.306 -21.990  0.00  0.00    +0.402 C 
ATOM     17  H   UNL     1      31.723 -12.027 -23.458  0.00  0.00    +0.153 HD
BRANCH  15  18
ATOM     18  CA  UNL     1      31.769 -10.897 -21.697  0.00  0.00    +0.139 C 
BRANCH  18  20
ATOM     19  O   UNL     1      30.482 -10.804 -19.645  0.00  0.00    -0.286 OA
ATOM     20  C   UNL     1      30.566 -11.166 -20.816  0.00  0.00    +0.227 C 
ENDBRANCH  18  20
BRANCH  18  21
ATOM     21  C   UNL     1      31.605  -9.661 -22.581  0.00  0.00    +0.028 C 
BRANCH  21  22
ATOM     22  C   UNL     1      32.896  -9.286 -23.317  0.00  0.00    +0.002 C 
BRANCH  22  23
ATOM     23  C   UNL     1      33.471  -7.970 -22.790  0.00  0.00    +0.000 C 
ATOM     24  C   UNL     1      34.789  -7.630 -23.465  0.00  0.00    +0.000 C 
ENDBRANCH  22  23
ENDBRANCH  21  22
ENDBRANCH  18  21
ENDBRANCH  15  18
ENDBRANCH   1  16
TORSDOF 9
ENDMDL
MODEL 8
REMARK VINA RESULT:      -8.3      1.952      8.087
REMARK  Name = 10062714
REMARK  9 active torsions:
REMARK  status: ('A' for Active; 'I' for Inactive)
REMARK    1  A    between atoms: O_1  and  C_2
REMARK    2  A    between atoms: O_1  and  C_16
REMARK    3  A    between atoms: C_2  and  C_7
REMARK    4  A    between atoms: C_7  and  C_8
REMARK    5  A    between atoms: N_15  and  CA_18
REMARK    6  A    between atoms: CA_18  and  C_20
REMARK    7  A    between atoms: CA_18  and  C_21
REMARK    8  A    between atoms: C_21  and  C_22
REMARK    9  A    between atoms: C_22  and  C_23
REMARK                            x       y       z     vdW  Elec       q    Type
REMARK                         _______ _______ _______ _____ _____    ______ ____
ROOT
ATOM      1  O   UNL     1      32.856 -15.062 -24.385  0.00  0.00    -0.442 OA
ENDROOT
BRANCH   1   2
ATOM      2  C   UNL     1      33.282 -13.781 -23.920  0.00  0.00    +0.141 C 
ATOM      3  C   UNL     1      32.231 -13.231 -22.960  0.00  0.00    +0.041 C 
ATOM      4  C   UNL     1      34.505 -13.940 -23.019  0.00  0.00    +0.041 C 
ATOM      5  C   UNL     1      32.476 -13.990 -21.655  0.00  0.00    +0.004 C 
ATOM      6  C   UNL     1      33.932 -14.458 -21.702  0.00  0.00    +0.004 C 
BRANCH   2   7
ATOM      7  C   UNL     1      33.526 -12.878 -25.119  0.00  0.00    +0.066 C 
BRANCH   7   8
ATOM      8  C   UNL     1      33.864 -11.471 -24.703  0.00  0.00    -0.019 C 
ATOM      9  C   UNL     1      33.071 -10.811 -23.765  0.00  0.00    -0.004 C 
ATOM     10  C   UNL     1      34.973 -10.827 -25.255  0.00  0.00    -0.004 C 
ATOM     11  C   UNL     1      33.385  -9.508 -23.379  0.00  0.00    -0.000 C 
ATOM     12  C   UNL     1      35.287  -9.525 -24.869  0.00  0.00    -0.000 C 
ATOM     13  C   UNL     1      34.492  -8.865 -23.931  0.00  0.00    -0.000 C 
ENDBRANCH   7   8
ENDBRANCH   2   7
ENDBRANCH   1   2
BRANCH   1  16
ATOM     14  O   UNL     1      34.358 -15.809 -25.953  0.00  0.00    -0.226 OA
ATOM     15  N   UNL     1      34.166 -16.812 -23.869  0.00  0.00    -0.265 N 
ATOM     16  C   UNL     1      33.843 -15.887 -24.842  0.00  0.00    +0.402 C 
ATOM     17  H   UNL     1      33.682 -16.774 -23.014  0.00  0.00    +0.153 HD
BRANCH  15  18
ATOM     18  CA  UNL     1      35.174 -17.830 -24.034  0.00  0.00    +0.139 C 
BRANCH  18  20
ATOM     19  O   UNL     1      34.973 -20.076 -24.922  0.00  0.00    -0.286 OA
ATOM     20  C   UNL     1      34.465 -18.974 -24.731  0.00  0.00    +0.227 C 
ENDBRANCH  18  20
BRANCH  18  21
ATOM     21  C   UNL     1      35.777 -18.227 -22.686  0.00  0.00    +0.028 C 
BRANCH  21  22
ATOM     22  C   UNL     1      34.742 -18.236 -21.557  0.00  0.00    +0.002 C 
BRANCH  22  23
ATOM     23  C   UNL     1      34.590 -19.634 -20.955  0.00  0.00    +0.000 C 
ATOM     24  C   UNL     1      33.130 -19.982 -20.716  0.00  0.00    +0.000 C 
ENDBRANCH  22  23
ENDBRANCH  21  22
ENDBRANCH  18  21
ENDBRANCH  15  18
ENDBRANCH   1  16
TORSDOF 9
ENDMDL
MODEL 9
REMARK VINA RESULT:      -8.2      2.710      7.779
REMARK  Name = 10062714
REMARK  9 active torsions:
REMARK  status: ('A' for Active; 'I' for Inactive)
REMARK    1  A    between atoms: O_1  and  C_2
REMARK    2  A    between atoms: O_1  and  C_16
REMARK    3  A    between atoms: C_2  and  C_7
REMARK    4  A    between atoms: C_7  and  C_8
REMARK    5  A    between atoms: N_15  and  CA_18
REMARK    6  A    between atoms: CA_18  and  C_20
REMARK    7  A    between atoms: CA_18  and  C_21
REMARK    8  A    between atoms: C_21  and  C_22
REMARK    9  A    between atoms: C_22  and  C_23
REMARK                            x       y       z     vdW  Elec       q    Type
REMARK                         _______ _______ _______ _____ _____    ______ ____
ROOT
ATOM      1  O   UNL     1      34.064 -12.064 -23.129  0.00  0.00    -0.442 OA
ENDROOT
BRANCH   1   2
ATOM      2  C   UNL     1      33.354 -11.073 -23.871  0.00  0.00    +0.141 C 
ATOM      3  C   UNL     1      34.095  -9.744 -23.751  0.00  0.00    +0.041 C 
ATOM      4  C   UNL     1      33.454 -11.376 -25.364  0.00  0.00    +0.041 C 
ATOM      5  C   UNL     1      35.276  -9.881 -24.713  0.00  0.00    +0.004 C 
ATOM      6  C   UNL     1      34.869 -10.941 -25.739  0.00  0.00    +0.004 C 
BRANCH   2   7
ATOM      7  C   UNL     1      31.923 -11.007 -23.360  0.00  0.00    +0.066 C 
BRANCH   7   8
ATOM      8  C   UNL     1      31.865 -10.656 -21.897  0.00  0.00    -0.019 C 
ATOM      9  C   UNL     1      32.139  -9.355 -21.479  0.00  0.00    -0.004 C 
ATOM     10  C   UNL     1      31.535 -11.635 -20.958  0.00  0.00    -0.004 C 
ATOM     11  C   UNL     1      32.086  -9.031 -20.124  0.00  0.00    -0.000 C 
ATOM     12  C   UNL     1      31.481 -11.311 -19.603  0.00  0.00    -0.000 C 
ATOM     13  C   UNL     1      31.757 -10.009 -19.186  0.00  0.00    -0.000 C 
ENDBRANCH   7   8
ENDBRANCH   2   7
ENDBRANCH   1   2
BRANCH   1  16
ATOM     14  O   UNL     1      32.661 -13.681 -23.961  0.00  0.00    -0.226 OA
ATOM     15  N   UNL     1      34.464 -14.211 -22.601  0.00  0.00    -0.265 N 
ATOM     16  C   UNL     1      33.636 -13.351 -23.295  0.00  0.00    +0.402 C 
ATOM     17  H   UNL     1      35.218 -13.825 -22.100  0.00  0.00    +0.153 HD
BRANCH  15  18
ATOM     18  CA  UNL     1      34.288 -15.642 -22.568  0.00  0.00    +0.139 C 
BRANCH  18  20
ATOM     19  O   UNL     1      34.899 -15.244 -20.257  0.00  0.00    -0.286 OA
ATOM     20  C   UNL     1      34.568 -16.039 -21.133  0.00  0.00    +0.227 C 
ENDBRANCH  18  20
BRANCH  18  21
ATOM     21  C   UNL     1      35.210 -16.330 -23.575  0.00  0.00    +0.028 C 
BRANCH  21  22
ATOM     22  C   UNL     1      34.488 -16.710 -24.872  0.00  0.00    +0.002 C 
BRANCH  22  23
ATOM     23  C   UNL     1      34.396 -18.228 -25.030  0.00  0.00    +0.000 C 
ATOM     24  C   UNL     1      35.035 -18.950 -23.855  0.00  0.00    +0.000 C 
ENDBRANCH  22  23
ENDBRANCH  21  22
ENDBRANCH  18  21
ENDBRANCH  15  18
ENDBRANCH   1  16
TORSDOF 9
ENDMDL
