MODEL 1
REMARK VINA RESULT:      -9.3      0.000      0.000
REMARK  Name = 891831
REMARK  6 active torsions:
REMARK  status: ('A' for Active; 'I' for Inactive)
REMARK    1  A    between atoms: N_1  and  C_3
REMARK    2  A    between atoms: N_1  and  C_16
REMARK    3  A    between atoms: C_4  and  S_9
REMARK    4  A    between atoms: S_9  and  N_12
REMARK    5  A    between atoms: C_16  and  N_17
REMARK    6  A    between atoms: N_17  and  N_20
REMARK                            x       y       z     vdW  Elec       q    Type
REMARK                         _______ _______ _______ _____ _____    ______ ____
ROOT
ATOM      1  N   UNL     1      35.680 -18.224 -21.961  0.00  0.00    -0.295 N 
ATOM      2  H   UNL     1      36.473 -17.778 -21.585  0.00  0.00    +0.154 HD
ENDROOT
BRANCH   1   3
ATOM      3  C   UNL     1      35.219 -19.309 -21.175  0.00  0.00    +0.050 C 
ATOM      4  C   UNL     1      34.316 -21.427 -19.640  0.00  0.00    +0.122 C 
ATOM      5  C   UNL     1      33.857 -19.510 -21.037  0.00  0.00    +0.016 C 
ATOM      6  C   UNL     1      36.140 -20.141 -20.565  0.00  0.00    +0.016 C 
ATOM      7  C   UNL     1      33.402 -20.578 -20.263  0.00  0.00    +0.021 C 
ATOM      8  C   UNL     1      35.685 -21.208 -19.791  0.00  0.00    +0.021 C 
BRANCH   4   9
ATOM      9  S   UNL     1      33.747 -22.762 -18.671  0.00  0.00    +0.057 S 
ATOM     10  O   UNL     1      32.431 -22.424 -18.148  0.00  0.00    -0.153 OA
ATOM     11  O   UNL     1      33.930 -23.994 -19.426  0.00  0.00    -0.153 OA
BRANCH   9  12
ATOM     12  N   UNL     1      34.874 -22.735 -17.387  0.00  0.00    -0.203 NA
ATOM     13  H   UNL     1      35.171 -21.775 -17.216  0.00  0.00    +0.144 HD
ATOM     14  H   UNL     1      35.685 -23.304 -17.633  0.00  0.00    +0.144 HD
ENDBRANCH   9  12
ENDBRANCH   4   9
ENDBRANCH   1   3
BRANCH   1  16
ATOM     15  S   UNL     1      34.686 -18.411 -24.546  0.00  0.00    -0.017 S 
ATOM     16  C   UNL     1      35.246 -17.658 -23.156  0.00  0.00    +0.149 C 
BRANCH  16  17
ATOM     17  N   UNL     1      35.266 -16.266 -23.156  0.00  0.00    -0.258 N 
ATOM     18  H   UNL     1      36.107 -15.801 -23.372  0.00  0.00    +0.168 HD
BRANCH  17  20
ATOM     19  N   UNL     1      32.844 -13.046 -22.120  0.00  0.00    +0.387 N 
ATOM     20  N   UNL     1      34.144 -15.515 -22.860  0.00  0.00    -0.211 NA
ATOM     21  C   UNL     1      32.992 -14.147 -21.160  0.00  0.00    -0.058 C 
ATOM     22  C   UNL     1      32.768 -13.566 -23.491  0.00  0.00    -0.058 C 
ATOM     23  C   UNL     1      34.222 -14.999 -21.491  0.00  0.00    +0.069 C 
ATOM     24  C   UNL     1      33.999 -14.418 -23.822  0.00  0.00    +0.069 C 
ATOM     25  C   UNL     1      31.669 -12.236 -21.806  0.00  0.00    -0.101 C 
ATOM     26  H   UNL     1      33.668 -12.448 -22.050  0.00  0.00    -0.080 HD
ENDBRANCH  17  20
ENDBRANCH  16  17
ENDBRANCH   1  16
TORSDOF 6
ENDMDL
MODEL 2
REMARK VINA RESULT:      -9.0      4.324      9.158
REMARK  Name = 891831
REMARK  6 active torsions:
REMARK  status: ('A' for Active; 'I' for Inactive)
REMARK    1  A    between atoms: N_1  and  C_3
REMARK    2  A    between atoms: N_1  and  C_16
REMARK    3  A    between atoms: C_4  and  S_9
REMARK    4  A    between atoms: S_9  and  N_12
REMARK    5  A    between atoms: C_16  and  N_17
REMARK    6  A    between atoms: N_17  and  N_20
REMARK                            x       y       z     vdW  Elec       q    Type
REMARK                         _______ _______ _______ _____ _____    ______ ____
ROOT
ATOM      1  N   UNL     1      33.676 -23.165 -18.036  0.00  0.00    -0.295 N 
ATOM      2  H   UNL     1      33.876 -24.069 -18.372  0.00  0.00    +0.154 HD
ENDROOT
BRANCH   1   3
ATOM      3  C   UNL     1      34.078 -22.134 -18.922  0.00  0.00    +0.050 C 
ATOM      4  C   UNL     1      34.860 -20.122 -20.652  0.00  0.00    +0.122 C 
ATOM      5  C   UNL     1      33.112 -21.347 -19.523  0.00  0.00    +0.016 C 
ATOM      6  C   UNL     1      35.425 -21.940 -19.164  0.00  0.00    +0.016 C 
ATOM      7  C   UNL     1      33.506 -20.333 -20.396  0.00  0.00    +0.021 C 
ATOM      8  C   UNL     1      35.821 -20.925 -20.036  0.00  0.00    +0.021 C 
BRANCH   4   9
ATOM      9  S   UNL     1      35.355 -18.853 -21.744  0.00  0.00    +0.057 S 
ATOM     10  O   UNL     1      36.784 -18.628 -21.571  0.00  0.00    -0.153 OA
ATOM     11  O   UNL     1      34.825 -19.149 -23.067  0.00  0.00    -0.153 OA
BRANCH   9  12
ATOM     12  N   UNL     1      34.505 -17.518 -21.099  0.00  0.00    -0.203 NA
ATOM     13  H   UNL     1      35.111 -17.006 -20.458  0.00  0.00    +0.144 HD
ATOM     14  H   UNL     1      33.682 -17.850 -20.595  0.00  0.00    +0.144 HD
ENDBRANCH   9  12
ENDBRANCH   4   9
ENDBRANCH   1   3
BRANCH   1  16
ATOM     15  S   UNL     1      31.424 -23.188 -16.414  0.00  0.00    -0.017 S 
ATOM     16  C   UNL     1      33.058 -23.165 -16.789  0.00  0.00    +0.149 C 
BRANCH  16  17
ATOM     17  N   UNL     1      33.953 -23.173 -15.722  0.00  0.00    -0.258 N 
ATOM     18  H   UNL     1      33.678 -22.770 -14.867  0.00  0.00    +0.168 HD
BRANCH  17  20
ATOM     19  N   UNL     1      37.752 -24.530 -14.707  0.00  0.00    +0.387 N 
ATOM     20  N   UNL     1      35.213 -23.729 -15.825  0.00  0.00    -0.211 NA
ATOM     21  C   UNL     1      37.639 -23.351 -15.574  0.00  0.00    -0.058 C 
ATOM     22  C   UNL     1      36.724 -25.521 -15.049  0.00  0.00    -0.058 C 
ATOM     23  C   UNL     1      36.238 -22.738 -15.483  0.00  0.00    +0.069 C 
ATOM     24  C   UNL     1      35.322 -24.908 -14.959  0.00  0.00    +0.069 C 
ATOM     25  C   UNL     1      39.087 -25.116 -14.796  0.00  0.00    -0.101 C 
ATOM     26  H   UNL     1      37.601 -24.234 -13.742  0.00  0.00    -0.080 HD
ENDBRANCH  17  20
ENDBRANCH  16  17
ENDBRANCH   1  16
TORSDOF 6
ENDMDL
MODEL 3
REMARK VINA RESULT:      -8.8      1.994      2.717
REMARK  Name = 891831
REMARK  6 active torsions:
REMARK  status: ('A' for Active; 'I' for Inactive)
REMARK    1  A    between atoms: N_1  and  C_3
REMARK    2  A    between atoms: N_1  and  C_16
REMARK    3  A    between atoms: C_4  and  S_9
REMARK    4  A    between atoms: S_9  and  N_12
REMARK    5  A    between atoms: C_16  and  N_17
REMARK    6  A    between atoms: N_17  and  N_20
REMARK                            x       y       z     vdW  Elec       q    Type
REMARK                         _______ _______ _______ _____ _____    ______ ____
ROOT
ATOM      1  N   UNL     1      34.668 -18.211 -22.091  0.00  0.00    -0.295 N 
ATOM      2  H   UNL     1      34.795 -18.467 -23.033  0.00  0.00    +0.154 HD
ENDROOT
BRANCH   1   3
ATOM      3  C   UNL     1      34.484 -19.319 -21.227  0.00  0.00    +0.050 C 
ATOM      4  C   UNL     1      34.126 -21.484 -19.542  0.00  0.00    +0.122 C 
ATOM      5  C   UNL     1      35.594 -19.993 -20.749  0.00  0.00    +0.016 C 
ATOM      6  C   UNL     1      33.200 -19.702 -20.884  0.00  0.00    +0.016 C 
ATOM      7  C   UNL     1      35.413 -21.085 -19.899  0.00  0.00    +0.021 C 
ATOM      8  C   UNL     1      33.019 -20.793 -20.034  0.00  0.00    +0.021 C 
BRANCH   4   9
ATOM      9  S   UNL     1      33.899 -22.850 -18.479  0.00  0.00    +0.057 S 
ATOM     10  O   UNL     1      33.876 -24.062 -19.286  0.00  0.00    -0.153 OA
ATOM     11  O   UNL     1      34.839 -22.737 -17.372  0.00  0.00    -0.153 OA
BRANCH   9  12
ATOM     12  N   UNL     1      32.323 -22.548 -17.893  0.00  0.00    -0.203 NA
ATOM     13  H   UNL     1      31.686 -23.262 -18.247  0.00  0.00    +0.144 HD
ATOM     14  H   UNL     1      32.012 -21.629 -18.209  0.00  0.00    +0.144 HD
ENDBRANCH   9  12
ENDBRANCH   4   9
ENDBRANCH   1   3
BRANCH   1  16
ATOM     15  S   UNL     1      34.422 -15.965 -20.479  0.00  0.00    -0.017 S 
ATOM     16  C   UNL     1      34.706 -16.835 -21.884  0.00  0.00    +0.149 C 
BRANCH  16  17
ATOM     17  N   UNL     1      35.059 -16.108 -23.018  0.00  0.00    -0.258 N 
ATOM     18  H   UNL     1      36.014 -15.982 -23.224  0.00  0.00    +0.168 HD
BRANCH  17  20
ATOM     19  N   UNL     1      33.345 -14.013 -26.176  0.00  0.00    +0.387 N 
ATOM     20  N   UNL     1      34.114 -15.558 -23.862  0.00  0.00    -0.211 NA
ATOM     21  C   UNL     1      33.193 -13.478 -24.818  0.00  0.00    -0.058 C 
ATOM     22  C   UNL     1      33.236 -15.477 -26.168  0.00  0.00    -0.058 C 
ATOM     23  C   UNL     1      34.223 -14.097 -23.868  0.00  0.00    +0.069 C 
ATOM     24  C   UNL     1      34.268 -16.096 -25.217  0.00  0.00    +0.069 C 
ATOM     25  C   UNL     1      32.359 -13.425 -27.080  0.00  0.00    -0.101 C 
ATOM     26  H   UNL     1      34.274 -13.763 -26.516  0.00  0.00    -0.080 HD
ENDBRANCH  17  20
ENDBRANCH  16  17
ENDBRANCH   1  16
TORSDOF 6
ENDMDL
MODEL 4
REMARK VINA RESULT:      -8.6      9.400     11.277
REMARK  Name = 891831
REMARK  6 active torsions:
REMARK  status: ('A' for Active; 'I' for Inactive)
REMARK    1  A    between atoms: N_1  and  C_3
REMARK    2  A    between atoms: N_1  and  C_16
REMARK    3  A    between atoms: C_4  and  S_9
REMARK    4  A    between atoms: S_9  and  N_12
REMARK    5  A    between atoms: C_16  and  N_17
REMARK    6  A    between atoms: N_17  and  N_20
REMARK                            x       y       z     vdW  Elec       q    Type
REMARK                         _______ _______ _______ _____ _____    ______ ____
ROOT
ATOM      1  N   UNL     1      32.717 -25.184 -13.715  0.00  0.00    -0.295 N 
ATOM      2  H   UNL     1      32.559 -26.075 -13.329  0.00  0.00    +0.154 HD
ENDROOT
BRANCH   1   3
ATOM      3  C   UNL     1      31.581 -24.644 -14.368  0.00  0.00    +0.050 C 
ATOM      4  C   UNL     1      29.363 -23.592 -15.645  0.00  0.00    +0.122 C 
ATOM      5  C   UNL     1      30.415 -25.386 -14.418  0.00  0.00    +0.016 C 
ATOM      6  C   UNL     1      31.666 -23.388 -14.942  0.00  0.00    +0.016 C 
ATOM      7  C   UNL     1      29.297 -24.856 -15.062  0.00  0.00    +0.021 C 
ATOM      8  C   UNL     1      30.548 -22.857 -15.585  0.00  0.00    +0.021 C 
BRANCH   4   9
ATOM      9  S   UNL     1      27.965 -22.927 -16.452  0.00  0.00    +0.057 S 
ATOM     10  O   UNL     1      26.880 -22.826 -15.485  0.00  0.00    -0.153 OA
ATOM     11  O   UNL     1      28.379 -21.749 -17.200  0.00  0.00    -0.153 OA
BRANCH   9  12
ATOM     12  N   UNL     1      27.602 -24.179 -17.557  0.00  0.00    -0.203 NA
ATOM     13  H   UNL     1      27.217 -23.777 -18.412  0.00  0.00    +0.144 HD
ATOM     14  H   UNL     1      26.918 -24.812 -17.142  0.00  0.00    +0.144 HD
ENDBRANCH   9  12
ENDBRANCH   4   9
ENDBRANCH   1   3
BRANCH   1  16
ATOM     15  S   UNL     1      34.638 -23.877 -12.197  0.00  0.00    -0.017 S 
ATOM     16  C   UNL     1      34.011 -24.715 -13.506  0.00  0.00    +0.149 C 
BRANCH  16  17
ATOM     17  N   UNL     1      34.891 -25.025 -14.540  0.00  0.00    -0.258 N 
ATOM     18  H   UNL     1      34.526 -25.230 -15.431  0.00  0.00    +0.168 HD
BRANCH  17  20
ATOM     19  N   UNL     1      38.959 -25.447 -15.302  0.00  0.00    +0.387 N 
ATOM     20  N   UNL     1      36.260 -25.056 -14.354  0.00  0.00    -0.211 NA
ATOM     21  C   UNL     1      38.302 -26.439 -14.443  0.00  0.00    -0.058 C 
ATOM     22  C   UNL     1      38.434 -24.103 -15.030  0.00  0.00    -0.058 C 
ATOM     23  C   UNL     1      36.781 -26.399 -14.625  0.00  0.00    +0.069 C 
ATOM     24  C   UNL     1      36.912 -24.063 -15.213  0.00  0.00    +0.069 C 
ATOM     25  C   UNL     1      40.408 -25.483 -15.125  0.00  0.00    -0.101 C 
ATOM     26  H   UNL     1      38.753 -25.680 -16.274  0.00  0.00    -0.080 HD
ENDBRANCH  17  20
ENDBRANCH  16  17
ENDBRANCH   1  16
TORSDOF 6
ENDMDL
MODEL 5
REMARK VINA RESULT:      -8.5      1.760      2.240
REMARK  Name = 891831
REMARK  6 active torsions:
REMARK  status: ('A' for Active; 'I' for Inactive)
REMARK    1  A    between atoms: N_1  and  C_3
REMARK    2  A    between atoms: N_1  and  C_16
REMARK    3  A    between atoms: C_4  and  S_9
REMARK    4  A    between atoms: S_9  and  N_12
REMARK    5  A    between atoms: C_16  and  N_17
REMARK    6  A    between atoms: N_17  and  N_20
REMARK                            x       y       z     vdW  Elec       q    Type
REMARK                         _______ _______ _______ _____ _____    ______ ____
ROOT
ATOM      1  N   UNL     1      34.230 -17.650 -22.060  0.00  0.00    -0.295 N 
ATOM      2  H   UNL     1      34.312 -17.809 -23.028  0.00  0.00    +0.154 HD
ENDROOT
BRANCH   1   3
ATOM      3  C   UNL     1      34.195 -18.844 -21.296  0.00  0.00    +0.050 C 
ATOM      4  C   UNL     1      34.124 -21.172 -19.803  0.00  0.00    +0.122 C 
ATOM      5  C   UNL     1      32.973 -19.347 -20.887  0.00  0.00    +0.016 C 
ATOM      6  C   UNL     1      35.382 -19.476 -20.977  0.00  0.00    +0.016 C 
ATOM      7  C   UNL     1      32.937 -20.520 -20.134  0.00  0.00    +0.021 C 
ATOM      8  C   UNL     1      35.348 -20.650 -20.224  0.00  0.00    +0.021 C 
BRANCH   4   9
ATOM      9  S   UNL     1      34.081 -22.641 -18.860  0.00  0.00    +0.057 S 
ATOM     10  O   UNL     1      34.062 -23.774 -19.774  0.00  0.00    -0.153 OA
ATOM     11  O   UNL     1      35.108 -22.560 -17.831  0.00  0.00    -0.153 OA
BRANCH   9  12
ATOM     12  N   UNL     1      32.549 -22.505 -18.117  0.00  0.00    -0.203 NA
ATOM     13  H   UNL     1      32.082 -21.663 -18.451  0.00  0.00    +0.144 HD
ATOM     14  H   UNL     1      32.665 -22.451 -17.104  0.00  0.00    +0.144 HD
ENDBRANCH   9  12
ENDBRANCH   4   9
ENDBRANCH   1   3
BRANCH   1  16
ATOM     15  S   UNL     1      34.693 -15.529 -20.332  0.00  0.00    -0.017 S 
ATOM     16  C   UNL     1      34.171 -16.301 -21.725  0.00  0.00    +0.149 C 
BRANCH  16  17
ATOM     17  N   UNL     1      33.616 -15.501 -22.722  0.00  0.00    -0.258 N 
ATOM     18  H   UNL     1      33.249 -15.931 -23.528  0.00  0.00    +0.168 HD
BRANCH  17  20
ATOM     19  N   UNL     1      32.492 -11.544 -23.337  0.00  0.00    +0.387 N 
ATOM     20  N   UNL     1      33.567 -14.125 -22.616  0.00  0.00    -0.211 NA
ATOM     21  C   UNL     1      33.816 -11.975 -23.802  0.00  0.00    -0.058 C 
ATOM     22  C   UNL     1      32.170 -12.170 -22.048  0.00  0.00    -0.058 C 
ATOM     23  C   UNL     1      33.889 -13.502 -23.903  0.00  0.00    +0.069 C 
ATOM     24  C   UNL     1      32.244 -13.698 -22.150  0.00  0.00    +0.069 C 
ATOM     25  C   UNL     1      32.424 -10.088 -23.237  0.00  0.00    -0.101 C 
ATOM     26  H   UNL     1      31.798 -11.846 -24.021  0.00  0.00    -0.080 HD
ENDBRANCH  17  20
ENDBRANCH  16  17
ENDBRANCH   1  16
TORSDOF 6
ENDMDL
MODEL 6
REMARK VINA RESULT:      -8.4      4.323      9.046
REMARK  Name = 891831
REMARK  6 active torsions:
REMARK  status: ('A' for Active; 'I' for Inactive)
REMARK    1  A    between atoms: N_1  and  C_3
REMARK    2  A    between atoms: N_1  and  C_16
REMARK    3  A    between atoms: C_4  and  S_9
REMARK    4  A    between atoms: S_9  and  N_12
REMARK    5  A    between atoms: C_16  and  N_17
REMARK    6  A    between atoms: N_17  and  N_20
REMARK                            x       y       z     vdW  Elec       q    Type
REMARK                         _______ _______ _______ _____ _____    ______ ____
ROOT
ATOM      1  N   UNL     1      33.478 -23.147 -18.573  0.00  0.00    -0.295 N 
ATOM      2  H   UNL     1      33.340 -23.930 -19.152  0.00  0.00    +0.154 HD
ENDROOT
BRANCH   1   3
ATOM      3  C   UNL     1      34.008 -22.026 -19.259  0.00  0.00    +0.050 C 
ATOM      4  C   UNL     1      35.041 -19.837 -20.601  0.00  0.00    +0.122 C 
ATOM      5  C   UNL     1      33.140 -21.122 -19.847  0.00  0.00    +0.016 C 
ATOM      6  C   UNL     1      35.379 -21.862 -19.326  0.00  0.00    +0.016 C 
ATOM      7  C   UNL     1      33.660 -20.019 -20.523  0.00  0.00    +0.021 C 
ATOM      8  C   UNL     1      35.901 -20.759 -20.003  0.00  0.00    +0.021 C 
BRANCH   4   9
ATOM      9  S   UNL     1      35.693 -18.458 -21.448  0.00  0.00    +0.057 S 
ATOM     10  O   UNL     1      35.301 -17.251 -20.734  0.00  0.00    -0.153 OA
ATOM     11  O   UNL     1      37.101 -18.709 -21.725  0.00  0.00    -0.153 OA
BRANCH   9  12
ATOM     12  N   UNL     1      34.823 -18.536 -22.917  0.00  0.00    -0.203 NA
ATOM     13  H   UNL     1      35.373 -18.106 -23.661  0.00  0.00    +0.144 HD
ATOM     14  H   UNL     1      33.939 -18.037 -22.816  0.00  0.00    +0.144 HD
ENDBRANCH   9  12
ENDBRANCH   4   9
ENDBRANCH   1   3
BRANCH   1  16
ATOM     15  S   UNL     1      31.700 -22.945 -16.451  0.00  0.00    -0.017 S 
ATOM     16  C   UNL     1      33.112 -23.369 -17.248  0.00  0.00    +0.149 C 
BRANCH  16  17
ATOM     17  N   UNL     1      34.066 -24.070 -16.515  0.00  0.00    -0.258 N 
ATOM     18  H   UNL     1      34.323 -24.974 -16.809  0.00  0.00    +0.168 HD
BRANCH  17  20
ATOM     19  N   UNL     1      36.528 -23.656 -13.188  0.00  0.00    +0.387 N 
ATOM     20  N   UNL     1      34.664 -23.538 -15.389  0.00  0.00    -0.211 NA
ATOM     21  C   UNL     1      35.085 -23.819 -12.974  0.00  0.00    -0.058 C 
ATOM     22  C   UNL     1      36.782 -22.804 -14.356  0.00  0.00    -0.058 C 
ATOM     23  C   UNL     1      34.408 -24.390 -14.224  0.00  0.00    +0.069 C 
ATOM     24  C   UNL     1      36.105 -23.375 -15.607  0.00  0.00    +0.069 C 
ATOM     25  C   UNL     1      37.172 -23.109 -11.996  0.00  0.00    -0.101 C 
ATOM     26  H   UNL     1      36.930 -24.576 -13.370  0.00  0.00    -0.080 HD
ENDBRANCH  17  20
ENDBRANCH  16  17
ENDBRANCH   1  16
TORSDOF 6
ENDMDL
MODEL 7
REMARK VINA RESULT:      -8.4      5.124      7.689
REMARK  Name = 891831
REMARK  6 active torsions:
REMARK  status: ('A' for Active; 'I' for Inactive)
REMARK    1  A    between atoms: N_1  and  C_3
REMARK    2  A    between atoms: N_1  and  C_16
REMARK    3  A    between atoms: C_4  and  S_9
REMARK    4  A    between atoms: S_9  and  N_12
REMARK    5  A    between atoms: C_16  and  N_17
REMARK    6  A    between atoms: N_17  and  N_20
REMARK                            x       y       z     vdW  Elec       q    Type
REMARK                         _______ _______ _______ _____ _____    ______ ____
ROOT
ATOM      1  N   UNL     1      34.322 -23.515 -16.863  0.00  0.00    -0.295 N 
ATOM      2  H   UNL     1      34.912 -23.823 -17.588  0.00  0.00    +0.154 HD
ENDROOT
BRANCH   1   3
ATOM      3  C   UNL     1      34.921 -23.590 -15.580  0.00  0.00    +0.050 C 
ATOM      4  C   UNL     1      36.087 -23.735 -13.075  0.00  0.00    +0.122 C 
ATOM      5  C   UNL     1      34.223 -24.185 -14.544  0.00  0.00    +0.016 C 
ATOM      6  C   UNL     1      36.187 -23.065 -15.394  0.00  0.00    +0.016 C 
ATOM      7  C   UNL     1      34.810 -24.258 -13.281  0.00  0.00    +0.021 C 
ATOM      8  C   UNL     1      36.775 -23.139 -14.132  0.00  0.00    +0.021 C 
BRANCH   4   9
ATOM      9  S   UNL     1      36.823 -23.826 -11.495  0.00  0.00    +0.057 S 
ATOM     10  O   UNL     1      37.866 -24.841 -11.530  0.00  0.00    -0.153 OA
ATOM     11  O   UNL     1      37.143 -22.475 -11.056  0.00  0.00    -0.153 OA
BRANCH   9  12
ATOM     12  N   UNL     1      35.517 -24.410 -10.560  0.00  0.00    -0.203 NA
ATOM     13  H   UNL     1      35.473 -25.426 -10.635  0.00  0.00    +0.144 HD
ATOM     14  H   UNL     1      34.645 -24.006 -10.904  0.00  0.00    +0.144 HD
ENDBRANCH   9  12
ENDBRANCH   4   9
ENDBRANCH   1   3
BRANCH   1  16
ATOM     15  S   UNL     1      31.622 -23.006 -16.473  0.00  0.00    -0.017 S 
ATOM     16  C   UNL     1      33.072 -23.097 -17.309  0.00  0.00    +0.149 C 
BRANCH  16  17
ATOM     17  N   UNL     1      33.065 -22.677 -18.637  0.00  0.00    -0.258 N 
ATOM     18  H   UNL     1      32.534 -23.183 -19.294  0.00  0.00    +0.168 HD
BRANCH  17  20
ATOM     19  N   UNL     1      35.186 -20.061 -21.079  0.00  0.00    +0.387 N 
ATOM     20  N   UNL     1      33.778 -21.573 -19.062  0.00  0.00    -0.211 NA
ATOM     21  C   UNL     1      35.907 -20.755 -20.005  0.00  0.00    -0.058 C 
ATOM     22  C   UNL     1      33.847 -19.664 -20.626  0.00  0.00    -0.058 C 
ATOM     23  C   UNL     1      35.115 -21.971 -19.512  0.00  0.00    +0.069 C 
ATOM     24  C   UNL     1      33.054 -20.881 -20.133  0.00  0.00    +0.069 C 
ATOM     25  C   UNL     1      35.941 -18.900 -21.546  0.00  0.00    -0.101 C 
ATOM     26  H   UNL     1      35.081 -20.706 -21.863  0.00  0.00    -0.080 HD
ENDBRANCH  17  20
ENDBRANCH  16  17
ENDBRANCH   1  16
TORSDOF 6
ENDMDL
MODEL 8
REMARK VINA RESULT:      -8.4      2.855      3.834
REMARK  Name = 891831
REMARK  6 active torsions:
REMARK  status: ('A' for Active; 'I' for Inactive)
REMARK    1  A    between atoms: N_1  and  C_3
REMARK    2  A    between atoms: N_1  and  C_16
REMARK    3  A    between atoms: C_4  and  S_9
REMARK    4  A    between atoms: S_9  and  N_12
REMARK    5  A    between atoms: C_16  and  N_17
REMARK    6  A    between atoms: N_17  and  N_20
REMARK                            x       y       z     vdW  Elec       q    Type
REMARK                         _______ _______ _______ _____ _____    ______ ____
ROOT
ATOM      1  N   UNL     1      35.323 -21.068 -20.234  0.00  0.00    -0.295 N 
ATOM      2  H   UNL     1      35.832 -21.500 -20.957  0.00  0.00    +0.154 HD
ENDROOT
BRANCH   1   3
ATOM      3  C   UNL     1      35.552 -21.647 -18.961  0.00  0.00    +0.050 C 
ATOM      4  C   UNL     1      36.001 -22.779 -16.476  0.00  0.00    +0.122 C 
ATOM      5  C   UNL     1      36.772 -21.450 -18.340  0.00  0.00    +0.016 C 
ATOM      6  C   UNL     1      34.550 -22.397 -18.370  0.00  0.00    +0.016 C 
ATOM      7  C   UNL     1      36.999 -22.021 -17.087  0.00  0.00    +0.021 C 
ATOM      8  C   UNL     1      34.776 -22.967 -17.118  0.00  0.00    +0.021 C 
BRANCH   4   9
ATOM      9  S   UNL     1      36.283 -23.495 -14.909  0.00  0.00    +0.057 S 
ATOM     10  O   UNL     1      37.443 -22.849 -14.310  0.00  0.00    -0.153 OA
ATOM     11  O   UNL     1      35.022 -23.531 -14.183  0.00  0.00    -0.153 OA
BRANCH   9  12
ATOM     12  N   UNL     1      36.707 -25.090 -15.351  0.00  0.00    -0.203 NA
ATOM     13  H   UNL     1      37.136 -25.084 -16.277  0.00  0.00    +0.144 HD
ATOM     14  H   UNL     1      35.869 -25.672 -15.369  0.00  0.00    +0.144 HD
ENDBRANCH   9  12
ENDBRANCH   4   9
ENDBRANCH   1   3
BRANCH   1  16
ATOM     15  S   UNL     1      32.855 -19.886 -20.698  0.00  0.00    -0.017 S 
ATOM     16  C   UNL     1      34.526 -20.015 -20.673  0.00  0.00    +0.149 C 
BRANCH  16  17
ATOM     17  N   UNL     1      35.252 -18.917 -21.127  0.00  0.00    -0.258 N 
ATOM     18  H   UNL     1      36.232 -18.919 -21.029  0.00  0.00    +0.168 HD
BRANCH  17  20
ATOM     19  N   UNL     1      34.707 -15.196 -22.907  0.00  0.00    +0.387 N 
ATOM     20  N   UNL     1      34.642 -17.823 -21.710  0.00  0.00    -0.211 NA
ATOM     21  C   UNL     1      34.202 -15.400 -21.544  0.00  0.00    -0.058 C 
ATOM     22  C   UNL     1      34.492 -16.399 -23.721  0.00  0.00    -0.058 C 
ATOM     23  C   UNL     1      34.857 -16.624 -20.895  0.00  0.00    +0.069 C 
ATOM     24  C   UNL     1      35.148 -17.623 -23.072  0.00  0.00    +0.069 C 
ATOM     25  C   UNL     1      34.079 -14.031 -23.526  0.00  0.00    -0.101 C 
ATOM     26  H   UNL     1      35.712 -15.022 -22.853  0.00  0.00    -0.080 HD
ENDBRANCH  17  20
ENDBRANCH  16  17
ENDBRANCH   1  16
TORSDOF 6
ENDMDL
MODEL 9
REMARK VINA RESULT:      -8.2      4.393      8.969
REMARK  Name = 891831
REMARK  6 active torsions:
REMARK  status: ('A' for Active; 'I' for Inactive)
REMARK    1  A    between atoms: N_1  and  C_3
REMARK    2  A    between atoms: N_1  and  C_16
REMARK    3  A    between atoms: C_4  and  S_9
REMARK    4  A    between atoms: S_9  and  N_12
REMARK    5  A    between atoms: C_16  and  N_17
REMARK    6  A    between atoms: N_17  and  N_20
REMARK                            x       y       z     vdW  Elec       q    Type
REMARK                         _______ _______ _______ _____ _____    ______ ____
ROOT
ATOM      1  N   UNL     1      34.627 -23.036 -17.535  0.00  0.00    -0.295 N 
ATOM      2  H   UNL     1      34.195 -23.869 -17.834  0.00  0.00    +0.154 HD
ENDROOT
BRANCH   1   3
ATOM      3  C   UNL     1      34.763 -22.071 -18.564  0.00  0.00    +0.050 C 
ATOM      4  C   UNL     1      35.027 -20.188 -20.574  0.00  0.00    +0.122 C 
ATOM      5  C   UNL     1      33.627 -21.585 -19.187  0.00  0.00    +0.016 C 
ATOM      6  C   UNL     1      36.027 -21.639 -18.921  0.00  0.00    +0.016 C 
ATOM      7  C   UNL     1      33.760 -20.636 -20.201  0.00  0.00    +0.021 C 
ATOM      8  C   UNL     1      36.161 -20.690 -19.934  0.00  0.00    +0.021 C 
BRANCH   4   9
ATOM      9  S   UNL     1      35.194 -19.001 -21.843  0.00  0.00    +0.057 S 
ATOM     10  O   UNL     1      36.563 -18.504 -21.830  0.00  0.00    -0.153 OA
ATOM     11  O   UNL     1      34.637 -19.553 -23.070  0.00  0.00    -0.153 OA
BRANCH   9  12
ATOM     12  N   UNL     1      34.155 -17.769 -21.275  0.00  0.00    -0.203 NA
ATOM     13  H   UNL     1      33.446 -17.570 -21.981  0.00  0.00    +0.144 HD
ATOM     14  H   UNL     1      34.698 -16.925 -21.091  0.00  0.00    +0.144 HD
ENDBRANCH   9  12
ENDBRANCH   4   9
ENDBRANCH   1   3
BRANCH   1  16
ATOM     15  S   UNL     1      36.492 -23.219 -15.488  0.00  0.00    -0.017 S 
ATOM     16  C   UNL     1      34.979 -23.051 -16.188  0.00  0.00    +0.149 C 
BRANCH  16  17
ATOM     17  N   UNL     1      33.899 -22.873 -15.327  0.00  0.00    -0.258 N 
ATOM     18  H   UNL     1      33.928 -22.138 -14.672  0.00  0.00    +0.168 HD
BRANCH  17  20
ATOM     19  N   UNL     1      30.100 -24.390 -14.572  0.00  0.00    +0.387 N 
ATOM     20  N   UNL     1      32.789 -23.694 -15.360  0.00  0.00    -0.211 NA
ATOM     21  C   UNL     1      31.261 -25.119 -14.046  0.00  0.00    -0.058 C 
ATOM     22  C   UNL     1      30.388 -23.861 -15.911  0.00  0.00    -0.058 C 
ATOM     23  C   UNL     1      32.504 -24.223 -14.023  0.00  0.00    +0.069 C 
ATOM     24  C   UNL     1      31.632 -22.964 -15.888  0.00  0.00    +0.069 C 
ATOM     25  C   UNL     1      28.917 -25.247 -14.596  0.00  0.00    -0.101 C 
ATOM     26  H   UNL     1      29.908 -23.604 -13.951  0.00  0.00    -0.080 HD
ENDBRANCH  17  20
ENDBRANCH  16  17
ENDBRANCH   1  16
TORSDOF 6
ENDMDL
