MODEL 1
REMARK VINA RESULT:      -9.5      0.000      0.000
REMARK  Name = 6914595
REMARK  5 active torsions:
REMARK  status: ('A' for Active; 'I' for Inactive)
REMARK    1  A    between atoms: C_1  and  C_15
REMARK    2  A    between atoms: C_2  and  N_9
REMARK    3  A    between atoms: C_4  and  O_10
REMARK    4  A    between atoms: C_5  and  O_12
REMARK    5  A    between atoms: C_15  and  C_16
REMARK                            x       y       z     vdW  Elec       q    Type
REMARK                         _______ _______ _______ _____ _____    ______ ____
ROOT
ATOM      1  C   UNL     1      34.846 -16.818 -22.314  0.00  0.00    +0.065 C 
ATOM      2  C   UNL     1      34.371 -16.484 -23.562  0.00  0.00    +0.182 C 
ATOM      3  C   UNL     1      34.735 -15.977 -21.227  0.00  0.00    +0.008 C 
ATOM      4  C   UNL     1      33.754 -15.244 -23.733  0.00  0.00    +0.190 C 
ATOM      5  C   UNL     1      33.628 -14.372 -22.653  0.00  0.00    +0.169 C 
ATOM      6  C   UNL     1      34.119 -14.738 -21.400  0.00  0.00    +0.040 C 
ENDROOT
BRANCH   2   9
ATOM      7  O   UNL     1      35.123 -16.984 -25.683  0.00  0.00    -0.126 OA
ATOM      8  O   UNL     1      33.977 -18.507 -24.595  0.00  0.00    -0.126 OA
ATOM      9  N   UNL     1      34.497 -17.370 -24.669  0.00  0.00    +0.061 N 
ENDBRANCH   2   9
BRANCH   4  10
ATOM     10  O   UNL     1      33.269 -14.872 -24.954  0.00  0.00    -0.502 OA
ATOM     11  H   UNL     1      32.896 -15.514 -25.525  0.00  0.00    +0.292 HD
ENDBRANCH   4  10
BRANCH   5  12
ATOM     12  O   UNL     1      33.029 -13.158 -22.807  0.00  0.00    -0.503 OA
ATOM     13  H   UNL     1      32.288 -13.069 -23.373  0.00  0.00    +0.292 HD
ENDBRANCH   5  12
BRANCH   1  15
ATOM     14  O   UNL     1      36.620 -18.313 -22.618  0.00  0.00    -0.287 OA
ATOM     15  C   UNL     1      35.514 -18.136 -22.087  0.00  0.00    +0.197 C 
BRANCH  15  16
ATOM     16  C   UNL     1      34.912 -19.186 -21.279  0.00  0.00    +0.039 C 
ATOM     17  C   UNL     1      33.525 -19.276 -21.173  0.00  0.00    +0.003 C 
ATOM     18  C   UNL     1      35.724 -20.102 -20.611  0.00  0.00    +0.003 C 
ATOM     19  C   UNL     1      32.947 -20.282 -20.398  0.00  0.00    +0.000 C 
ATOM     20  C   UNL     1      35.147 -21.109 -19.836  0.00  0.00    +0.000 C 
ATOM     21  C   UNL     1      33.759 -21.199 -19.729  0.00  0.00    +0.000 C 
ENDBRANCH  15  16
ENDBRANCH   1  15
TORSDOF 5
ENDMDL
MODEL 2
REMARK VINA RESULT:      -9.5      0.012      1.109
REMARK  Name = 6914595
REMARK  5 active torsions:
REMARK  status: ('A' for Active; 'I' for Inactive)
REMARK    1  A    between atoms: C_1  and  C_15
REMARK    2  A    between atoms: C_2  and  N_9
REMARK    3  A    between atoms: C_4  and  O_10
REMARK    4  A    between atoms: C_5  and  O_12
REMARK    5  A    between atoms: C_15  and  C_16
REMARK                            x       y       z     vdW  Elec       q    Type
REMARK                         _______ _______ _______ _____ _____    ______ ____
ROOT
ATOM      1  C   UNL     1      34.850 -16.820 -22.303  0.00  0.00    +0.065 C 
ATOM      2  C   UNL     1      34.378 -16.485 -23.551  0.00  0.00    +0.182 C 
ATOM      3  C   UNL     1      34.740 -15.978 -21.217  0.00  0.00    +0.008 C 
ATOM      4  C   UNL     1      33.763 -15.246 -23.724  0.00  0.00    +0.190 C 
ATOM      5  C   UNL     1      33.636 -14.373 -22.645  0.00  0.00    +0.169 C 
ATOM      6  C   UNL     1      34.125 -14.739 -21.391  0.00  0.00    +0.040 C 
ENDROOT
BRANCH   2   9
ATOM      7  O   UNL     1      35.124 -16.984 -25.675  0.00  0.00    -0.126 OA
ATOM      8  O   UNL     1      33.991 -18.512 -24.581  0.00  0.00    -0.126 OA
ATOM      9  N   UNL     1      34.504 -17.372 -24.659  0.00  0.00    +0.061 N 
ENDBRANCH   2   9
BRANCH   4  10
ATOM     10  O   UNL     1      33.279 -14.874 -24.946  0.00  0.00    -0.502 OA
ATOM     11  H   UNL     1      33.509 -15.365 -25.710  0.00  0.00    +0.292 HD
ENDBRANCH   4  10
BRANCH   5  12
ATOM     12  O   UNL     1      33.038 -13.158 -22.800  0.00  0.00    -0.503 OA
ATOM     13  H   UNL     1      32.108 -13.102 -22.896  0.00  0.00    +0.292 HD
ENDBRANCH   5  12
BRANCH   1  15
ATOM     14  O   UNL     1      36.624 -18.315 -22.602  0.00  0.00    -0.287 OA
ATOM     15  C   UNL     1      35.517 -18.138 -22.074  0.00  0.00    +0.197 C 
BRANCH  15  16
ATOM     16  C   UNL     1      34.913 -19.188 -21.268  0.00  0.00    +0.039 C 
ATOM     17  C   UNL     1      35.722 -20.108 -20.603  0.00  0.00    +0.003 C 
ATOM     18  C   UNL     1      33.525 -19.273 -21.162  0.00  0.00    +0.003 C 
ATOM     19  C   UNL     1      35.143 -21.116 -19.830  0.00  0.00    +0.000 C 
ATOM     20  C   UNL     1      32.946 -20.280 -20.389  0.00  0.00    +0.000 C 
ATOM     21  C   UNL     1      33.754 -21.202 -19.724  0.00  0.00    +0.000 C 
ENDBRANCH  15  16
ENDBRANCH   1  15
TORSDOF 5
ENDMDL
MODEL 3
REMARK VINA RESULT:      -9.4      1.778      2.982
REMARK  Name = 6914595
REMARK  5 active torsions:
REMARK  status: ('A' for Active; 'I' for Inactive)
REMARK    1  A    between atoms: C_1  and  C_15
REMARK    2  A    between atoms: C_2  and  N_9
REMARK    3  A    between atoms: C_4  and  O_10
REMARK    4  A    between atoms: C_5  and  O_12
REMARK    5  A    between atoms: C_15  and  C_16
REMARK                            x       y       z     vdW  Elec       q    Type
REMARK                         _______ _______ _______ _____ _____    ______ ____
ROOT
ATOM      1  C   UNL     1      35.082 -18.008 -22.786  0.00  0.00    +0.065 C 
ATOM      2  C   UNL     1      34.426 -16.811 -22.613  0.00  0.00    +0.182 C 
ATOM      3  C   UNL     1      35.285 -18.571 -24.028  0.00  0.00    +0.008 C 
ATOM      4  C   UNL     1      33.947 -16.141 -23.739  0.00  0.00    +0.190 C 
ATOM      5  C   UNL     1      34.137 -16.686 -25.009  0.00  0.00    +0.169 C 
ATOM      6  C   UNL     1      34.806 -17.901 -25.153  0.00  0.00    +0.040 C 
ENDROOT
BRANCH   2   9
ATOM      7  O   UNL     1      33.077 -16.265 -20.824  0.00  0.00    -0.126 OA
ATOM      8  O   UNL     1      35.210 -15.758 -20.718  0.00  0.00    -0.126 OA
ATOM      9  N   UNL     1      34.228 -16.249 -21.320  0.00  0.00    +0.061 N 
ENDBRANCH   2   9
BRANCH   4  10
ATOM     10  O   UNL     1      33.290 -14.951 -23.613  0.00  0.00    -0.502 OA
ATOM     11  H   UNL     1      32.948 -14.522 -24.372  0.00  0.00    +0.292 HD
ENDBRANCH   4  10
BRANCH   5  12
ATOM     12  O   UNL     1      33.674 -16.042 -26.117  0.00  0.00    -0.503 OA
ATOM     13  H   UNL     1      33.971 -16.300 -26.967  0.00  0.00    +0.292 HD
ENDBRANCH   5  12
BRANCH   1  15
ATOM     14  O   UNL     1      36.780 -18.533 -21.264  0.00  0.00    -0.287 OA
ATOM     15  C   UNL     1      35.610 -18.759 -21.607  0.00  0.00    +0.197 C 
BRANCH  15  16
ATOM     16  C   UNL     1      34.804 -19.722 -20.871  0.00  0.00    +0.039 C 
ATOM     17  C   UNL     1      35.424 -20.729 -20.133  0.00  0.00    +0.003 C 
ATOM     18  C   UNL     1      33.413 -19.637 -20.905  0.00  0.00    +0.003 C 
ATOM     19  C   UNL     1      34.653 -21.654 -19.428  0.00  0.00    +0.000 C 
ATOM     20  C   UNL     1      32.641 -20.560 -20.200  0.00  0.00    +0.000 C 
ATOM     21  C   UNL     1      33.260 -21.569 -19.462  0.00  0.00    +0.000 C 
ENDBRANCH  15  16
ENDBRANCH   1  15
TORSDOF 5
ENDMDL
MODEL 4
REMARK VINA RESULT:      -9.3      2.094      3.413
REMARK  Name = 6914595
REMARK  5 active torsions:
REMARK  status: ('A' for Active; 'I' for Inactive)
REMARK    1  A    between atoms: C_1  and  C_15
REMARK    2  A    between atoms: C_2  and  N_9
REMARK    3  A    between atoms: C_4  and  O_10
REMARK    4  A    between atoms: C_5  and  O_12
REMARK    5  A    between atoms: C_15  and  C_16
REMARK                            x       y       z     vdW  Elec       q    Type
REMARK                         _______ _______ _______ _____ _____    ______ ____
ROOT
ATOM      1  C   UNL     1      34.193 -18.643 -22.408  0.00  0.00    +0.065 C 
ATOM      2  C   UNL     1      34.404 -17.285 -22.328  0.00  0.00    +0.182 C 
ATOM      3  C   UNL     1      34.336 -19.349 -23.583  0.00  0.00    +0.008 C 
ATOM      4  C   UNL     1      34.776 -16.597 -23.483  0.00  0.00    +0.190 C 
ATOM      5  C   UNL     1      34.929 -17.284 -24.686  0.00  0.00    +0.169 C 
ATOM      6  C   UNL     1      34.708 -18.660 -24.736  0.00  0.00    +0.040 C 
ENDROOT
BRANCH   2   9
ATOM      7  O   UNL     1      33.165 -15.992 -20.875  0.00  0.00    -0.126 OA
ATOM      8  O   UNL     1      35.202 -16.562 -20.290  0.00  0.00    -0.126 OA
ATOM      9  N   UNL     1      34.249 -16.577 -21.102  0.00  0.00    +0.061 N 
ENDBRANCH   2   9
BRANCH   4  10
ATOM     10  O   UNL     1      34.996 -15.249 -23.448  0.00  0.00    -0.502 OA
ATOM     11  H   UNL     1      35.364 -14.854 -22.683  0.00  0.00    +0.292 HD
ENDBRANCH   4  10
BRANCH   5  12
ATOM     12  O   UNL     1      35.293 -16.623 -25.822  0.00  0.00    -0.503 OA
ATOM     13  H   UNL     1      35.827 -17.050 -26.462  0.00  0.00    +0.292 HD
ENDBRANCH   5  12
BRANCH   1  15
ATOM     14  O   UNL     1      32.600 -19.368 -20.856  0.00  0.00    -0.287 OA
ATOM     15  C   UNL     1      33.791 -19.418 -21.195  0.00  0.00    +0.197 C 
BRANCH  15  16
ATOM     16  C   UNL     1      34.739 -20.209 -20.426  0.00  0.00    +0.039 C 
ATOM     17  C   UNL     1      34.284 -21.250 -19.616  0.00  0.00    +0.003 C 
ATOM     18  C   UNL     1      36.103 -19.927 -20.498  0.00  0.00    +0.003 C 
ATOM     19  C   UNL     1      35.192 -22.008 -18.878  0.00  0.00    +0.000 C 
ATOM     20  C   UNL     1      37.011 -20.685 -19.760  0.00  0.00    +0.000 C 
ATOM     21  C   UNL     1      36.557 -21.725 -18.949  0.00  0.00    +0.000 C 
ENDBRANCH  15  16
ENDBRANCH   1  15
TORSDOF 5
ENDMDL
MODEL 5
REMARK VINA RESULT:      -9.1      6.322      9.118
REMARK  Name = 6914595
REMARK  5 active torsions:
REMARK  status: ('A' for Active; 'I' for Inactive)
REMARK    1  A    between atoms: C_1  and  C_15
REMARK    2  A    between atoms: C_2  and  N_9
REMARK    3  A    between atoms: C_4  and  O_10
REMARK    4  A    between atoms: C_5  and  O_12
REMARK    5  A    between atoms: C_15  and  C_16
REMARK                            x       y       z     vdW  Elec       q    Type
REMARK                         _______ _______ _______ _____ _____    ______ ____
ROOT
ATOM      1  C   UNL     1      33.069 -23.225 -16.964  0.00  0.00    +0.065 C 
ATOM      2  C   UNL     1      33.923 -23.426 -15.903  0.00  0.00    +0.182 C 
ATOM      3  C   UNL     1      31.726 -22.968 -16.798  0.00  0.00    +0.008 C 
ATOM      4  C   UNL     1      33.407 -23.368 -14.609  0.00  0.00    +0.190 C 
ATOM      5  C   UNL     1      32.051 -23.110 -14.409  0.00  0.00    +0.169 C 
ATOM      6  C   UNL     1      31.210 -22.910 -15.503  0.00  0.00    +0.040 C 
ENDROOT
BRANCH   2   9
ATOM      7  O   UNL     1      35.741 -24.844 -15.877  0.00  0.00    -0.126 OA
ATOM      8  O   UNL     1      36.051 -22.760 -16.491  0.00  0.00    -0.126 OA
ATOM      9  N   UNL     1      35.308 -23.690 -16.100  0.00  0.00    +0.061 N 
ENDBRANCH   2   9
BRANCH   4  10
ATOM     10  O   UNL     1      34.218 -23.562 -13.527  0.00  0.00    -0.502 OA
ATOM     11  H   UNL     1      35.045 -23.125 -13.478  0.00  0.00    +0.292 HD
ENDBRANCH   4  10
BRANCH   5  12
ATOM     12  O   UNL     1      31.533 -23.051 -13.149  0.00  0.00    -0.503 OA
ATOM     13  H   UNL     1      31.858 -22.420 -12.538  0.00  0.00    +0.292 HD
ENDBRANCH   5  12
BRANCH   1  15
ATOM     14  O   UNL     1      33.766 -24.400 -18.863  0.00  0.00    -0.287 OA
ATOM     15  C   UNL     1      33.581 -23.279 -18.367  0.00  0.00    +0.197 C 
BRANCH  15  16
ATOM     16  C   UNL     1      33.859 -22.080 -19.143  0.00  0.00    +0.039 C 
ATOM     17  C   UNL     1      35.174 -21.753 -19.472  0.00  0.00    +0.003 C 
ATOM     18  C   UNL     1      32.811 -21.259 -19.557  0.00  0.00    +0.003 C 
ATOM     19  C   UNL     1      35.442 -20.603 -20.216  0.00  0.00    +0.000 C 
ATOM     20  C   UNL     1      33.078 -20.110 -20.300  0.00  0.00    +0.000 C 
ATOM     21  C   UNL     1      34.392 -19.781 -20.629  0.00  0.00    +0.000 C 
ENDBRANCH  15  16
ENDBRANCH   1  15
TORSDOF 5
ENDMDL
MODEL 6
REMARK VINA RESULT:      -8.5      8.241     11.342
REMARK  Name = 6914595
REMARK  5 active torsions:
REMARK  status: ('A' for Active; 'I' for Inactive)
REMARK    1  A    between atoms: C_1  and  C_15
REMARK    2  A    between atoms: C_2  and  N_9
REMARK    3  A    between atoms: C_4  and  O_10
REMARK    4  A    between atoms: C_5  and  O_12
REMARK    5  A    between atoms: C_15  and  C_16
REMARK                            x       y       z     vdW  Elec       q    Type
REMARK                         _______ _______ _______ _____ _____    ______ ____
ROOT
ATOM      1  C   UNL     1      36.886 -23.756 -14.276  0.00  0.00    +0.065 C 
ATOM      2  C   UNL     1      37.003 -25.107 -14.039  0.00  0.00    +0.182 C 
ATOM      3  C   UNL     1      36.404 -22.875 -13.332  0.00  0.00    +0.008 C 
ATOM      4  C   UNL     1      36.617 -25.604 -12.794  0.00  0.00    +0.190 C 
ATOM      5  C   UNL     1      36.125 -24.737 -11.819  0.00  0.00    +0.169 C 
ATOM      6  C   UNL     1      36.018 -23.373 -12.088  0.00  0.00    +0.040 C 
ENDROOT
BRANCH   2   9
ATOM      7  O   UNL     1      38.737 -26.210 -15.083  0.00  0.00    -0.126 OA
ATOM      8  O   UNL     1      36.696 -26.538 -15.821  0.00  0.00    -0.126 OA
ATOM      9  N   UNL     1      37.504 -25.997 -15.031  0.00  0.00    +0.061 N 
ENDBRANCH   2   9
BRANCH   4  10
ATOM     10  O   UNL     1      36.716 -26.937 -12.517  0.00  0.00    -0.502 OA
ATOM     11  H   UNL     1      36.779 -27.227 -11.629  0.00  0.00    +0.292 HD
ENDBRANCH   4  10
BRANCH   5  12
ATOM     12  O   UNL     1      35.744 -25.209 -10.599  0.00  0.00    -0.503 OA
ATOM     13  H   UNL     1      35.411 -24.621  -9.951  0.00  0.00    +0.292 HD
ENDBRANCH   5  12
BRANCH   1  15
ATOM     14  O   UNL     1      38.499 -23.022 -15.804  0.00  0.00    -0.287 OA
ATOM     15  C   UNL     1      37.287 -23.182 -15.597  0.00  0.00    +0.197 C 
BRANCH  15  16
ATOM     16  C   UNL     1      36.315 -22.817 -16.616  0.00  0.00    +0.039 C 
ATOM     17  C   UNL     1      36.698 -22.009 -17.686  0.00  0.00    +0.003 C 
ATOM     18  C   UNL     1      35.002 -23.276 -16.523  0.00  0.00    +0.003 C 
ATOM     19  C   UNL     1      35.766 -21.658 -18.664  0.00  0.00    +0.000 C 
ATOM     20  C   UNL     1      34.070 -22.926 -17.500  0.00  0.00    +0.000 C 
ATOM     21  C   UNL     1      34.452 -22.117 -18.570  0.00  0.00    +0.000 C 
ENDBRANCH  15  16
ENDBRANCH   1  15
TORSDOF 5
ENDMDL
MODEL 7
REMARK VINA RESULT:      -8.4      2.664      5.818
REMARK  Name = 6914595
REMARK  5 active torsions:
REMARK  status: ('A' for Active; 'I' for Inactive)
REMARK    1  A    between atoms: C_1  and  C_15
REMARK    2  A    between atoms: C_2  and  N_9
REMARK    3  A    between atoms: C_4  and  O_10
REMARK    4  A    between atoms: C_5  and  O_12
REMARK    5  A    between atoms: C_15  and  C_16
REMARK                            x       y       z     vdW  Elec       q    Type
REMARK                         _______ _______ _______ _____ _____    ______ ____
ROOT
ATOM      1  C   UNL     1      34.359 -18.813 -20.890  0.00  0.00    +0.065 C 
ATOM      2  C   UNL     1      35.327 -19.713 -20.504  0.00  0.00    +0.182 C 
ATOM      3  C   UNL     1      33.014 -19.110 -20.861  0.00  0.00    +0.008 C 
ATOM      4  C   UNL     1      34.929 -20.977 -20.067  0.00  0.00    +0.190 C 
ATOM      5  C   UNL     1      33.575 -21.307 -20.027  0.00  0.00    +0.169 C 
ATOM      6  C   UNL     1      32.617 -20.374 -20.425  0.00  0.00    +0.040 C 
ENDROOT
BRANCH   2   9
ATOM      7  O   UNL     1      37.363 -19.384 -19.473  0.00  0.00    -0.126 OA
ATOM      8  O   UNL     1      37.233 -19.098 -21.645  0.00  0.00    -0.126 OA
ATOM      9  N   UNL     1      36.711 -19.382 -20.543  0.00  0.00    +0.061 N 
ENDBRANCH   2   9
BRANCH   4  10
ATOM     10  O   UNL     1      35.855 -21.900 -19.676  0.00  0.00    -0.502 OA
ATOM     11  H   UNL     1      36.554 -22.136 -20.252  0.00  0.00    +0.292 HD
ENDBRANCH   4  10
BRANCH   5  12
ATOM     12  O   UNL     1      33.172 -22.538 -19.604  0.00  0.00    -0.503 OA
ATOM     13  H   UNL     1      33.741 -23.276 -19.699  0.00  0.00    +0.292 HD
ENDBRANCH   5  12
BRANCH   1  15
ATOM     14  O   UNL     1      35.244 -16.676 -20.535  0.00  0.00    -0.287 OA
ATOM     15  C   UNL     1      34.742 -17.449 -21.365  0.00  0.00    +0.197 C 
BRANCH  15  16
ATOM     16  C   UNL     1      34.546 -17.019 -22.741  0.00  0.00    +0.039 C 
ATOM     17  C   UNL     1      34.044 -15.746 -23.009  0.00  0.00    +0.003 C 
ATOM     18  C   UNL     1      34.860 -17.880 -23.792  0.00  0.00    +0.003 C 
ATOM     19  C   UNL     1      33.854 -15.333 -24.328  0.00  0.00    +0.000 C 
ATOM     20  C   UNL     1      34.672 -17.468 -25.111  0.00  0.00    +0.000 C 
ATOM     21  C   UNL     1      34.169 -16.195 -25.379  0.00  0.00    +0.000 C 
ENDBRANCH  15  16
ENDBRANCH   1  15
TORSDOF 5
ENDMDL
MODEL 8
REMARK VINA RESULT:      -8.4      5.931      8.657
REMARK  Name = 6914595
REMARK  5 active torsions:
REMARK  status: ('A' for Active; 'I' for Inactive)
REMARK    1  A    between atoms: C_1  and  C_15
REMARK    2  A    between atoms: C_2  and  N_9
REMARK    3  A    between atoms: C_4  and  O_10
REMARK    4  A    between atoms: C_5  and  O_12
REMARK    5  A    between atoms: C_15  and  C_16
REMARK                            x       y       z     vdW  Elec       q    Type
REMARK                         _______ _______ _______ _____ _____    ______ ____
ROOT
ATOM      1  C   UNL     1      34.448 -22.889 -17.298  0.00  0.00    +0.065 C 
ATOM      2  C   UNL     1      33.490 -23.098 -16.331  0.00  0.00    +0.182 C 
ATOM      3  C   UNL     1      35.782 -22.718 -16.996  0.00  0.00    +0.008 C 
ATOM      4  C   UNL     1      33.886 -23.137 -14.994  0.00  0.00    +0.190 C 
ATOM      5  C   UNL     1      35.228 -22.967 -14.658  0.00  0.00    +0.169 C 
ATOM      6  C   UNL     1      36.176 -22.757 -15.659  0.00  0.00    +0.040 C 
ENDROOT
BRANCH   2   9
ATOM      7  O   UNL     1      31.532 -22.365 -17.304  0.00  0.00    -0.126 OA
ATOM      8  O   UNL     1      31.538 -24.326 -16.317  0.00  0.00    -0.126 OA
ATOM      9  N   UNL     1      32.117 -23.272 -16.668  0.00  0.00    +0.061 N 
ENDBRANCH   2   9
BRANCH   4  10
ATOM     10  O   UNL     1      32.968 -23.341 -14.004  0.00  0.00    -0.502 OA
ATOM     11  H   UNL     1      32.926 -22.753 -13.276  0.00  0.00    +0.292 HD
ENDBRANCH   4  10
BRANCH   5  12
ATOM     12  O   UNL     1      35.628 -23.002 -13.356  0.00  0.00    -0.503 OA
ATOM     13  H   UNL     1      35.850 -22.208 -12.912  0.00  0.00    +0.292 HD
ENDBRANCH   5  12
BRANCH   1  15
ATOM     14  O   UNL     1      33.702 -23.899 -19.272  0.00  0.00    -0.287 OA
ATOM     15  C   UNL     1      34.067 -22.839 -18.742  0.00  0.00    +0.197 C 
BRANCH  15  16
ATOM     16  C   UNL     1      34.113 -21.610 -19.518  0.00  0.00    +0.039 C 
ATOM     17  C   UNL     1      32.931 -20.942 -19.837  0.00  0.00    +0.003 C 
ATOM     18  C   UNL     1      35.339 -21.099 -19.943  0.00  0.00    +0.003 C 
ATOM     19  C   UNL     1      32.974 -19.763 -20.582  0.00  0.00    +0.000 C 
ATOM     20  C   UNL     1      35.383 -19.921 -20.687  0.00  0.00    +0.000 C 
ATOM     21  C   UNL     1      34.201 -19.253 -21.008  0.00  0.00    +0.000 C 
ENDBRANCH  15  16
ENDBRANCH   1  15
TORSDOF 5
ENDMDL
MODEL 9
REMARK VINA RESULT:      -8.4      2.920      6.047
REMARK  Name = 6914595
REMARK  5 active torsions:
REMARK  status: ('A' for Active; 'I' for Inactive)
REMARK    1  A    between atoms: C_1  and  C_15
REMARK    2  A    between atoms: C_2  and  N_9
REMARK    3  A    between atoms: C_4  and  O_10
REMARK    4  A    between atoms: C_5  and  O_12
REMARK    5  A    between atoms: C_15  and  C_16
REMARK                            x       y       z     vdW  Elec       q    Type
REMARK                         _______ _______ _______ _____ _____    ______ ____
ROOT
ATOM      1  C   UNL     1      34.454 -19.351 -20.709  0.00  0.00    +0.065 C 
ATOM      2  C   UNL     1      35.385 -20.193 -20.145  0.00  0.00    +0.182 C 
ATOM      3  C   UNL     1      33.108 -19.649 -20.744  0.00  0.00    +0.008 C 
ATOM      4  C   UNL     1      34.950 -21.395 -19.586  0.00  0.00    +0.190 C 
ATOM      5  C   UNL     1      33.595 -21.723 -19.606  0.00  0.00    +0.169 C 
ATOM      6  C   UNL     1      32.674 -20.850 -20.185  0.00  0.00    +0.040 C 
ENDROOT
BRANCH   2   9
ATOM      7  O   UNL     1      37.355 -19.786 -19.017  0.00  0.00    -0.126 OA
ATOM      8  O   UNL     1      37.361 -19.661 -21.208  0.00  0.00    -0.126 OA
ATOM      9  N   UNL     1      36.771 -19.864 -20.122  0.00  0.00    +0.061 N 
ENDBRANCH   2   9
BRANCH   4  10
ATOM     10  O   UNL     1      35.840 -22.259 -19.016  0.00  0.00    -0.502 OA
ATOM     11  H   UNL     1      35.531 -22.978 -18.502  0.00  0.00    +0.292 HD
ENDBRANCH   4  10
BRANCH   5  12
ATOM     12  O   UNL     1      33.156 -22.894 -19.064  0.00  0.00    -0.503 OA
ATOM     13  H   UNL     1      32.247 -23.012 -18.876  0.00  0.00    +0.292 HD
ENDBRANCH   5  12
BRANCH   1  15
ATOM     14  O   UNL     1      35.338 -17.191 -20.560  0.00  0.00    -0.287 OA
ATOM     15  C   UNL     1      34.877 -18.055 -21.320  0.00  0.00    +0.197 C 
BRANCH  15  16
ATOM     16  C   UNL     1      34.765 -17.791 -22.746  0.00  0.00    +0.039 C 
ATOM     17  C   UNL     1      34.696 -18.852 -23.648  0.00  0.00    +0.003 C 
ATOM     18  C   UNL     1      34.727 -16.477 -23.212  0.00  0.00    +0.003 C 
ATOM     19  C   UNL     1      34.590 -18.601 -25.016  0.00  0.00    +0.000 C 
ATOM     20  C   UNL     1      34.619 -16.225 -24.579  0.00  0.00    +0.000 C 
ATOM     21  C   UNL     1      34.551 -17.286 -25.481  0.00  0.00    +0.000 C 
ENDBRANCH  15  16
ENDBRANCH   1  15
TORSDOF 5
ENDMDL
