MODEL 1
REMARK VINA RESULT:      -9.5      0.000      0.000
REMARK  Name = 3000663
REMARK  8 active torsions:
REMARK  status: ('A' for Active; 'I' for Inactive)
REMARK    1  A    between atoms: C_1  and  C_4
REMARK    2  A    between atoms: C_2  and  N_17
REMARK    3  A    between atoms: C_5  and  O_15
REMARK    4  A    between atoms: C_6  and  O_13
REMARK    5  A    between atoms: C_7  and  C_11
REMARK    6  A    between atoms: N_17  and  C_20
REMARK    7  A    between atoms: C_20  and  N_21
REMARK    8  A    between atoms: C_27  and  C_30
REMARK                            x       y       z     vdW  Elec       q    Type
REMARK                         _______ _______ _______ _____ _____    ______ ____
ROOT
ATOM      1  C   UNL     1      34.856 -15.059 -21.250  0.00  0.00    +0.048 C 
ATOM      2  C   UNL     1      35.004 -16.542 -21.135  0.00  0.00    +0.075 C 
ATOM      3  C   UNL     1      34.270 -15.773 -20.075  0.00  0.00    +0.026 C 
ENDROOT
BRANCH   1   4
ATOM      4  C   UNL     1      33.942 -14.499 -22.292  0.00  0.00    +0.047 C 
ATOM      5  C   UNL     1      34.166 -14.776 -23.640  0.00  0.00    +0.135 C 
ATOM      6  C   UNL     1      32.864 -13.699 -21.914  0.00  0.00    +0.138 C 
ATOM      7  C   UNL     1      33.311 -14.253 -24.611  0.00  0.00    +0.068 C 
ATOM      8  C   UNL     1      32.009 -13.177 -22.884  0.00  0.00    +0.037 C 
ATOM      9  C   UNL     1      32.233 -13.453 -24.233  0.00  0.00    +0.009 C 
BRANCH   7  11
ATOM     10  O   UNL     1      33.823 -15.670 -26.426  0.00  0.00    -0.291 OA
ATOM     11  C   UNL     1      33.525 -14.529 -26.025  0.00  0.00    +0.176 C 
ATOM     12  C   UNL     1      33.387 -13.412 -27.053  0.00  0.00    +0.077 C 
ENDBRANCH   7  11
BRANCH   6  13
ATOM     13  O   UNL     1      32.628 -13.417 -20.601  0.00  0.00    -0.472 OA
ATOM     14  C   UNL     1      31.878 -12.239 -20.317  0.00  0.00    +0.252 C 
ENDBRANCH   6  13
BRANCH   5  15
ATOM     15  O   UNL     1      35.220 -15.559 -24.011  0.00  0.00    -0.506 OA
ATOM     16  H   UNL     1      35.676 -16.066 -23.367  0.00  0.00    +0.292 HD
ENDBRANCH   5  15
ENDBRANCH   1   4
BRANCH   2  17
ATOM     17  N   UNL     1      34.313 -17.413 -22.023  0.00  0.00    -0.317 N 
ATOM     18  H   UNL     1      33.404 -17.144 -22.291  0.00  0.00    +0.148 HD
BRANCH  17  20
ATOM     19  S   UNL     1      34.725 -19.009 -24.188  0.00  0.00    -0.019 S 
ATOM     20  C   UNL     1      34.790 -18.608 -22.552  0.00  0.00    +0.136 C 
BRANCH  20  21
ATOM     21  N   UNL     1      35.412 -19.496 -21.697  0.00  0.00    -0.281 N 
ATOM     22  N   UNL     1      33.563 -20.325 -20.476  0.00  0.00    -0.228 NA
ATOM     23  C   UNL     1      34.888 -20.359 -20.702  0.00  0.00    +0.133 C 
ATOM     24  C   UNL     1      35.787 -21.169 -20.044  0.00  0.00    +0.035 C 
ATOM     25  C   UNL     1      35.282 -22.020 -19.066  0.00  0.00    +0.015 C 
ATOM     26  C   UNL     1      33.110 -21.165 -19.519  0.00  0.00    +0.111 C 
ATOM     27  C   UNL     1      33.919 -22.023 -18.793  0.00  0.00    +0.088 C 
ATOM     28  H   UNL     1      36.392 -19.537 -21.795  0.00  0.00    +0.155 HD
BRANCH  27  30
ATOM     29  N   UNL     1      32.923 -23.588 -16.983  0.00  0.00    -0.191 NA
ATOM     30  C   UNL     1      33.370 -22.885 -17.796  0.00  0.00    +0.102 C 
ENDBRANCH  27  30
ENDBRANCH  20  21
ENDBRANCH  17  20
ENDBRANCH   2  17
TORSDOF 8
ENDMDL
MODEL 2
REMARK VINA RESULT:      -9.2      4.876      9.487
REMARK  Name = 3000663
REMARK  8 active torsions:
REMARK  status: ('A' for Active; 'I' for Inactive)
REMARK    1  A    between atoms: C_1  and  C_4
REMARK    2  A    between atoms: C_2  and  N_17
REMARK    3  A    between atoms: C_5  and  O_15
REMARK    4  A    between atoms: C_6  and  O_13
REMARK    5  A    between atoms: C_7  and  C_11
REMARK    6  A    between atoms: N_17  and  C_20
REMARK    7  A    between atoms: C_20  and  N_21
REMARK    8  A    between atoms: C_27  and  C_30
REMARK                            x       y       z     vdW  Elec       q    Type
REMARK                         _______ _______ _______ _____ _____    ______ ____
ROOT
ATOM      1  C   UNL     1      32.258 -13.890 -22.615  0.00  0.00    +0.048 C 
ATOM      2  C   UNL     1      32.697 -12.477 -22.830  0.00  0.00    +0.075 C 
ATOM      3  C   UNL     1      32.610 -13.037 -21.440  0.00  0.00    +0.026 C 
ENDROOT
BRANCH   1   4
ATOM      4  C   UNL     1      33.176 -15.003 -23.008  0.00  0.00    +0.047 C 
ATOM      5  C   UNL     1      33.753 -15.811 -22.028  0.00  0.00    +0.135 C 
ATOM      6  C   UNL     1      33.455 -15.232 -24.355  0.00  0.00    +0.138 C 
ATOM      7  C   UNL     1      34.609 -16.850 -22.397  0.00  0.00    +0.068 C 
ATOM      8  C   UNL     1      34.310 -16.269 -24.723  0.00  0.00    +0.037 C 
ATOM      9  C   UNL     1      34.888 -17.078 -23.745  0.00  0.00    +0.009 C 
BRANCH   7  11
ATOM     10  O   UNL     1      35.606 -17.253 -20.298  0.00  0.00    -0.291 OA
ATOM     11  C   UNL     1      35.223 -17.707 -21.393  0.00  0.00    +0.176 C 
ATOM     12  C   UNL     1      35.412 -19.195 -21.667  0.00  0.00    +0.077 C 
ENDBRANCH   7  11
BRANCH   6  13
ATOM     13  O   UNL     1      32.901 -14.452 -25.326  0.00  0.00    -0.472 OA
ATOM     14  C   UNL     1      32.916 -14.966 -26.656  0.00  0.00    +0.252 C 
ENDBRANCH   6  13
BRANCH   5  15
ATOM     15  O   UNL     1      33.480 -15.589 -20.710  0.00  0.00    -0.506 OA
ATOM     16  H   UNL     1      34.156 -15.693 -20.069  0.00  0.00    +0.292 HD
ENDBRANCH   5  15
ENDBRANCH   1   4
BRANCH   2  17
ATOM     17  N   UNL     1      33.956 -12.188 -23.429  0.00  0.00    -0.317 N 
ATOM     18  H   UNL     1      34.721 -12.735 -23.136  0.00  0.00    +0.148 HD
BRANCH  17  20
ATOM     19  S   UNL     1      34.225 -11.498 -26.047  0.00  0.00    -0.019 S 
ATOM     20  C   UNL     1      34.215 -11.213 -24.385  0.00  0.00    +0.136 C 
BRANCH  20  21
ATOM     21  N   UNL     1      34.417  -9.916 -23.954  0.00  0.00    -0.281 N 
ATOM     22  N   UNL     1      32.189  -9.196 -23.620  0.00  0.00    -0.228 NA
ATOM     23  C   UNL     1      33.501  -8.912 -23.554  0.00  0.00    +0.133 C 
ATOM     24  C   UNL     1      34.036  -7.717 -23.125  0.00  0.00    +0.035 C 
ATOM     25  C   UNL     1      33.145  -6.724 -22.729  0.00  0.00    +0.015 C 
ATOM     26  C   UNL     1      31.354  -8.207 -23.228  0.00  0.00    +0.111 C 
ATOM     27  C   UNL     1      31.778  -6.967 -22.779  0.00  0.00    +0.088 C 
ATOM     28  H   UNL     1      35.362  -9.641 -23.919  0.00  0.00    +0.155 HD
BRANCH  27  30
ATOM     29  N   UNL     1      30.073  -5.155 -22.053  0.00  0.00    -0.191 NA
ATOM     30  C   UNL     1      30.838  -5.969 -22.379  0.00  0.00    +0.102 C 
ENDBRANCH  27  30
ENDBRANCH  20  21
ENDBRANCH  17  20
ENDBRANCH   2  17
TORSDOF 8
ENDMDL
MODEL 3
REMARK VINA RESULT:      -8.4      9.148     11.717
REMARK  Name = 3000663
REMARK  8 active torsions:
REMARK  status: ('A' for Active; 'I' for Inactive)
REMARK    1  A    between atoms: C_1  and  C_4
REMARK    2  A    between atoms: C_2  and  N_17
REMARK    3  A    between atoms: C_5  and  O_15
REMARK    4  A    between atoms: C_6  and  O_13
REMARK    5  A    between atoms: C_7  and  C_11
REMARK    6  A    between atoms: N_17  and  C_20
REMARK    7  A    between atoms: C_20  and  N_21
REMARK    8  A    between atoms: C_27  and  C_30
REMARK                            x       y       z     vdW  Elec       q    Type
REMARK                         _______ _______ _______ _____ _____    ______ ____
ROOT
ATOM      1  C   UNL     1      37.093 -22.253 -15.028  0.00  0.00    +0.048 C 
ATOM      2  C   UNL     1      35.842 -22.225 -15.846  0.00  0.00    +0.075 C 
ATOM      3  C   UNL     1      37.181 -22.092 -16.512  0.00  0.00    +0.026 C 
ENDROOT
BRANCH   1   4
ATOM      4  C   UNL     1      37.526 -23.543 -14.410  0.00  0.00    +0.047 C 
ATOM      5  C   UNL     1      38.663 -24.198 -14.883  0.00  0.00    +0.135 C 
ATOM      6  C   UNL     1      36.793 -24.091 -13.358  0.00  0.00    +0.138 C 
ATOM      7  C   UNL     1      39.066 -25.402 -14.303  0.00  0.00    +0.068 C 
ATOM      8  C   UNL     1      37.196 -25.294 -12.778  0.00  0.00    +0.037 C 
ATOM      9  C   UNL     1      38.332 -25.950 -13.251  0.00  0.00    +0.009 C 
BRANCH   7  11
ATOM     10  O   UNL     1      40.587 -26.068 -15.978  0.00  0.00    -0.291 OA
ATOM     11  C   UNL     1      40.250 -26.104 -14.780  0.00  0.00    +0.176 C 
ATOM     12  C   UNL     1      41.107 -26.908 -13.809  0.00  0.00    +0.077 C 
ENDBRANCH   7  11
BRANCH   6  13
ATOM     13  O   UNL     1      35.679 -23.465 -12.881  0.00  0.00    -0.472 OA
ATOM     14  C   UNL     1      34.509 -24.263 -12.717  0.00  0.00    +0.252 C 
ENDBRANCH   6  13
BRANCH   5  15
ATOM     15  O   UNL     1      39.382 -23.663 -15.911  0.00  0.00    -0.506 OA
ATOM     16  H   UNL     1      40.311 -23.566 -15.832  0.00  0.00    +0.292 HD
ENDBRANCH   5  15
ENDBRANCH   1   4
BRANCH   2  17
ATOM     17  N   UNL     1      35.052 -23.398 -16.009  0.00  0.00    -0.317 N 
ATOM     18  H   UNL     1      35.423 -24.235 -15.648  0.00  0.00    +0.148 HD
BRANCH  17  20
ATOM     19  S   UNL     1      33.537 -23.114 -18.251  0.00  0.00    -0.019 S 
ATOM     20  C   UNL     1      33.809 -23.482 -16.629  0.00  0.00    +0.136 C 
BRANCH  20  21
ATOM     21  N   UNL     1      32.744 -23.955 -15.889  0.00  0.00    -0.281 N 
ATOM     22  N   UNL     1      30.990 -22.585 -16.688  0.00  0.00    -0.228 NA
ATOM     23  C   UNL     1      31.375 -23.590 -15.883  0.00  0.00    +0.133 C 
ATOM     24  C   UNL     1      30.545 -24.302 -15.045  0.00  0.00    +0.035 C 
ATOM     25  C   UNL     1      29.198 -23.951 -15.032  0.00  0.00    +0.015 C 
ATOM     26  C   UNL     1      29.675 -22.273 -16.648  0.00  0.00    +0.111 C 
ATOM     27  C   UNL     1      28.748 -22.918 -15.846  0.00  0.00    +0.088 C 
ATOM     28  H   UNL     1      32.976 -24.672 -15.254  0.00  0.00    +0.155 HD
BRANCH  27  30
ATOM     29  N   UNL     1      26.252 -22.222 -15.863  0.00  0.00    -0.191 NA
ATOM     30  C   UNL     1      27.373 -22.535 -15.855  0.00  0.00    +0.102 C 
ENDBRANCH  27  30
ENDBRANCH  20  21
ENDBRANCH  17  20
ENDBRANCH   2  17
TORSDOF 8
ENDMDL
MODEL 4
REMARK VINA RESULT:      -8.2      5.031      9.151
REMARK  Name = 3000663
REMARK  8 active torsions:
REMARK  status: ('A' for Active; 'I' for Inactive)
REMARK    1  A    between atoms: C_1  and  C_4
REMARK    2  A    between atoms: C_2  and  N_17
REMARK    3  A    between atoms: C_5  and  O_15
REMARK    4  A    between atoms: C_6  and  O_13
REMARK    5  A    between atoms: C_7  and  C_11
REMARK    6  A    between atoms: N_17  and  C_20
REMARK    7  A    between atoms: C_20  and  N_21
REMARK    8  A    between atoms: C_27  and  C_30
REMARK                            x       y       z     vdW  Elec       q    Type
REMARK                         _______ _______ _______ _____ _____    ______ ____
ROOT
ATOM      1  C   UNL     1      32.223 -13.518 -22.929  0.00  0.00    +0.048 C 
ATOM      2  C   UNL     1      32.715 -12.229 -23.505  0.00  0.00    +0.075 C 
ATOM      3  C   UNL     1      32.408 -12.331 -22.039  0.00  0.00    +0.026 C 
ENDROOT
BRANCH   1   4
ATOM      4  C   UNL     1      33.170 -14.669 -22.813  0.00  0.00    +0.047 C 
ATOM      5  C   UNL     1      33.540 -15.387 -23.950  0.00  0.00    +0.135 C 
ATOM      6  C   UNL     1      33.684 -15.024 -21.566  0.00  0.00    +0.138 C 
ATOM      7  C   UNL     1      34.424 -16.461 -23.839  0.00  0.00    +0.068 C 
ATOM      8  C   UNL     1      34.567 -16.097 -21.456  0.00  0.00    +0.037 C 
ATOM      9  C   UNL     1      34.937 -16.816 -22.592  0.00  0.00    +0.009 C 
BRANCH   7  11
ATOM     10  O   UNL     1      35.223 -16.662 -26.049  0.00  0.00    -0.291 OA
ATOM     11  C   UNL     1      34.825 -17.225 -25.012  0.00  0.00    +0.176 C 
ATOM     12  C   UNL     1      34.762 -18.749 -24.993  0.00  0.00    +0.077 C 
ENDBRANCH   7  11
BRANCH   6  13
ATOM     13  O   UNL     1      33.334 -14.334 -20.443  0.00  0.00    -0.472 OA
ATOM     14  C   UNL     1      32.330 -14.913 -19.614  0.00  0.00    +0.252 C 
ENDBRANCH   6  13
BRANCH   5  15
ATOM     15  O   UNL     1      33.038 -15.040 -25.171  0.00  0.00    -0.506 OA
ATOM     16  H   UNL     1      32.746 -15.706 -25.763  0.00  0.00    +0.292 HD
ENDBRANCH   5  15
ENDBRANCH   1   4
BRANCH   2  17
ATOM     17  N   UNL     1      34.055 -12.103 -23.969  0.00  0.00    -0.317 N 
ATOM     18  H   UNL     1      34.671 -12.839 -23.747  0.00  0.00    +0.148 HD
BRANCH  17  20
ATOM     19  S   UNL     1      34.996 -11.142 -26.333  0.00  0.00    -0.019 S 
ATOM     20  C   UNL     1      34.584 -11.046 -24.702  0.00  0.00    +0.136 C 
BRANCH  20  21
ATOM     21  N   UNL     1      34.722  -9.823 -24.074  0.00  0.00    -0.281 N 
ATOM     22  N   UNL     1      32.466  -9.130 -23.923  0.00  0.00    -0.228 NA
ATOM     23  C   UNL     1      33.758  -8.873 -23.656  0.00  0.00    +0.133 C 
ATOM     24  C   UNL     1      34.228  -7.755 -23.003  0.00  0.00    +0.035 C 
ATOM     25  C   UNL     1      33.289  -6.816 -22.588  0.00  0.00    +0.015 C 
ATOM     26  C   UNL     1      31.583  -8.196 -23.505  0.00  0.00    +0.111 C 
ATOM     27  C   UNL     1      31.940  -7.034 -22.840  0.00  0.00    +0.088 C 
ATOM     28  H   UNL     1      35.654  -9.567 -23.884  0.00  0.00    +0.155 HD
BRANCH  27  30
ATOM     29  N   UNL     1      30.147  -5.320 -22.089  0.00  0.00    -0.191 NA
ATOM     30  C   UNL     1      30.952  -6.090 -22.426  0.00  0.00    +0.102 C 
ENDBRANCH  27  30
ENDBRANCH  20  21
ENDBRANCH  17  20
ENDBRANCH   2  17
TORSDOF 8
ENDMDL
MODEL 5
REMARK VINA RESULT:      -8.1      6.123      8.535
REMARK  Name = 3000663
REMARK  8 active torsions:
REMARK  status: ('A' for Active; 'I' for Inactive)
REMARK    1  A    between atoms: C_1  and  C_4
REMARK    2  A    between atoms: C_2  and  N_17
REMARK    3  A    between atoms: C_5  and  O_15
REMARK    4  A    between atoms: C_6  and  O_13
REMARK    5  A    between atoms: C_7  and  C_11
REMARK    6  A    between atoms: N_17  and  C_20
REMARK    7  A    between atoms: C_20  and  N_21
REMARK    8  A    between atoms: C_27  and  C_30
REMARK                            x       y       z     vdW  Elec       q    Type
REMARK                         _______ _______ _______ _____ _____    ______ ____
ROOT
ATOM      1  C   UNL     1      33.199  -7.345 -21.455  0.00  0.00    +0.048 C 
ATOM      2  C   UNL     1      32.652  -8.714 -21.205  0.00  0.00    +0.075 C 
ATOM      3  C   UNL     1      31.881  -7.502 -20.769  0.00  0.00    +0.026 C 
ENDROOT
BRANCH   1   4
ATOM      4  C   UNL     1      33.233  -6.822 -22.856  0.00  0.00    +0.047 C 
ATOM      5  C   UNL     1      32.364  -5.802 -23.243  0.00  0.00    +0.135 C 
ATOM      6  C   UNL     1      34.136  -7.356 -23.775  0.00  0.00    +0.138 C 
ATOM      7  C   UNL     1      32.398  -5.316 -24.550  0.00  0.00    +0.068 C 
ATOM      8  C   UNL     1      34.170  -6.869 -25.081  0.00  0.00    +0.037 C 
ATOM      9  C   UNL     1      33.301  -5.850 -25.469  0.00  0.00    +0.009 C 
BRANCH   7  11
ATOM     10  O   UNL     1      30.340  -4.164 -24.533  0.00  0.00    -0.291 OA
ATOM     11  C   UNL     1      31.501  -4.252 -24.977  0.00  0.00    +0.176 C 
ATOM     12  C   UNL     1      31.971  -3.212 -25.989  0.00  0.00    +0.077 C 
ENDBRANCH   7  11
BRANCH   6  13
ATOM     13  O   UNL     1      34.994  -8.352 -23.416  0.00  0.00    -0.472 OA
ATOM     14  C   UNL     1      35.066  -9.486 -24.278  0.00  0.00    +0.252 C 
ENDBRANCH   6  13
BRANCH   5  15
ATOM     15  O   UNL     1      31.481  -5.280 -22.343  0.00  0.00    -0.506 OA
ATOM     16  H   UNL     1      31.787  -4.717 -21.659  0.00  0.00    +0.292 HD
ENDBRANCH   5  15
ENDBRANCH   1   4
BRANCH   2  17
ATOM     17  N   UNL     1      32.199  -9.526 -22.283  0.00  0.00    -0.317 N 
ATOM     18  H   UNL     1      32.179  -9.107 -23.174  0.00  0.00    +0.148 HD
BRANCH  17  20
ATOM     19  S   UNL     1      30.695 -11.432 -21.056  0.00  0.00    -0.019 S 
ATOM     20  C   UNL     1      31.781 -10.850 -22.206  0.00  0.00    +0.136 C 
BRANCH  20  21
ATOM     21  N   UNL     1      32.234 -11.732 -23.167  0.00  0.00    -0.281 N 
ATOM     22  N   UNL     1      33.306 -13.358 -21.826  0.00  0.00    -0.228 NA
ATOM     23  C   UNL     1      32.945 -12.953 -23.055  0.00  0.00    +0.133 C 
ATOM     24  C   UNL     1      33.208 -13.630 -24.226  0.00  0.00    +0.035 C 
ATOM     25  C   UNL     1      33.905 -14.830 -24.126  0.00  0.00    +0.015 C 
ATOM     26  C   UNL     1      33.982 -14.528 -21.769  0.00  0.00    +0.111 C 
ATOM     27  C   UNL     1      34.303 -15.293 -22.877  0.00  0.00    +0.088 C 
ATOM     28  H   UNL     1      32.026 -11.467 -24.093  0.00  0.00    +0.155 HD
BRANCH  27  30
ATOM     29  N   UNL     1      35.603 -17.522 -22.632  0.00  0.00    -0.191 NA
ATOM     30  C   UNL     1      35.019 -16.521 -22.742  0.00  0.00    +0.102 C 
ENDBRANCH  27  30
ENDBRANCH  20  21
ENDBRANCH  17  20
ENDBRANCH   2  17
TORSDOF 8
ENDMDL
MODEL 6
REMARK VINA RESULT:      -8.1      3.626      6.196
REMARK  Name = 3000663
REMARK  8 active torsions:
REMARK  status: ('A' for Active; 'I' for Inactive)
REMARK    1  A    between atoms: C_1  and  C_4
REMARK    2  A    between atoms: C_2  and  N_17
REMARK    3  A    between atoms: C_5  and  O_15
REMARK    4  A    between atoms: C_6  and  O_13
REMARK    5  A    between atoms: C_7  and  C_11
REMARK    6  A    between atoms: N_17  and  C_20
REMARK    7  A    between atoms: C_20  and  N_21
REMARK    8  A    between atoms: C_27  and  C_30
REMARK                            x       y       z     vdW  Elec       q    Type
REMARK                         _______ _______ _______ _____ _____    ______ ____
ROOT
ATOM      1  C   UNL     1      33.529  -9.765 -24.745  0.00  0.00    +0.048 C 
ATOM      2  C   UNL     1      34.122 -11.115 -24.993  0.00  0.00    +0.075 C 
ATOM      3  C   UNL     1      34.972  -9.884 -25.112  0.00  0.00    +0.026 C 
ENDROOT
BRANCH   1   4
ATOM      4  C   UNL     1      33.162  -9.379 -23.348  0.00  0.00    +0.047 C 
ATOM      5  C   UNL     1      32.331 -10.204 -22.590  0.00  0.00    +0.135 C 
ATOM      6  C   UNL     1      33.654  -8.193 -22.803  0.00  0.00    +0.138 C 
ATOM      7  C   UNL     1      31.991  -9.841 -21.286  0.00  0.00    +0.068 C 
ATOM      8  C   UNL     1      33.314  -7.831 -21.500  0.00  0.00    +0.037 C 
ATOM      9  C   UNL     1      32.482  -8.654 -20.742  0.00  0.00    +0.009 C 
BRANCH   7  11
ATOM     10  O   UNL     1      30.197 -11.343 -20.985  0.00  0.00    -0.291 OA
ATOM     11  C   UNL     1      31.125 -10.685 -20.475  0.00  0.00    +0.176 C 
ATOM     12  C   UNL     1      31.339 -10.781 -18.969  0.00  0.00    +0.077 C 
ENDBRANCH   7  11
BRANCH   6  13
ATOM     13  O   UNL     1      34.468  -7.375 -23.528  0.00  0.00    -0.472 OA
ATOM     14  C   UNL     1      33.836  -6.454 -24.415  0.00  0.00    +0.252 C 
ENDBRANCH   6  13
BRANCH   5  15
ATOM     15  O   UNL     1      31.851 -11.365 -23.122  0.00  0.00    -0.506 OA
ATOM     16  H   UNL     1      31.418 -11.354 -23.953  0.00  0.00    +0.292 HD
ENDBRANCH   5  15
ENDBRANCH   1   4
BRANCH   2  17
ATOM     17  N   UNL     1      34.306 -12.037 -23.924  0.00  0.00    -0.317 N 
ATOM     18  H   UNL     1      34.860 -11.733 -23.169  0.00  0.00    +0.148 HD
BRANCH  17  20
ATOM     19  S   UNL     1      33.221 -14.203 -25.160  0.00  0.00    -0.019 S 
ATOM     20  C   UNL     1      33.785 -13.323 -23.838  0.00  0.00    +0.136 C 
BRANCH  20  21
ATOM     21  N   UNL     1      33.786 -13.945 -22.605  0.00  0.00    -0.281 N 
ATOM     22  N   UNL     1      34.985 -15.924 -23.092  0.00  0.00    -0.228 NA
ATOM     23  C   UNL     1      34.356 -15.169 -22.175  0.00  0.00    +0.133 C 
ATOM     24  C   UNL     1      34.216 -15.487 -20.842  0.00  0.00    +0.035 C 
ATOM     25  C   UNL     1      34.773 -16.687 -20.411  0.00  0.00    +0.015 C 
ATOM     26  C   UNL     1      35.513 -17.082 -22.636  0.00  0.00    +0.111 C 
ATOM     27  C   UNL     1      35.435 -17.505 -21.319  0.00  0.00    +0.088 C 
ATOM     28  H   UNL     1      33.306 -13.451 -21.900  0.00  0.00    +0.155 HD
BRANCH  27  30
ATOM     29  N   UNL     1      36.491 -19.750 -20.572  0.00  0.00    -0.191 NA
ATOM     30  C   UNL     1      36.017 -18.742 -20.908  0.00  0.00    +0.102 C 
ENDBRANCH  27  30
ENDBRANCH  20  21
ENDBRANCH  17  20
ENDBRANCH   2  17
TORSDOF 8
ENDMDL
MODEL 7
REMARK VINA RESULT:      -8.0      4.758      7.594
REMARK  Name = 3000663
REMARK  8 active torsions:
REMARK  status: ('A' for Active; 'I' for Inactive)
REMARK    1  A    between atoms: C_1  and  C_4
REMARK    2  A    between atoms: C_2  and  N_17
REMARK    3  A    between atoms: C_5  and  O_15
REMARK    4  A    between atoms: C_6  and  O_13
REMARK    5  A    between atoms: C_7  and  C_11
REMARK    6  A    between atoms: N_17  and  C_20
REMARK    7  A    between atoms: C_20  and  N_21
REMARK    8  A    between atoms: C_27  and  C_30
REMARK                            x       y       z     vdW  Elec       q    Type
REMARK                         _______ _______ _______ _____ _____    ______ ____
ROOT
ATOM      1  C   UNL     1      36.747 -22.008 -18.367  0.00  0.00    +0.048 C 
ATOM      2  C   UNL     1      36.515 -22.497 -16.974  0.00  0.00    +0.075 C 
ATOM      3  C   UNL     1      37.285 -21.230 -17.210  0.00  0.00    +0.026 C 
ENDROOT
BRANCH   1   4
ATOM      4  C   UNL     1      35.595 -21.455 -19.144  0.00  0.00    +0.047 C 
ATOM      5  C   UNL     1      35.729 -20.249 -19.831  0.00  0.00    +0.135 C 
ATOM      6  C   UNL     1      34.385 -22.149 -19.181  0.00  0.00    +0.138 C 
ATOM      7  C   UNL     1      34.653 -19.735 -20.555  0.00  0.00    +0.068 C 
ATOM      8  C   UNL     1      33.310 -21.635 -19.905  0.00  0.00    +0.037 C 
ATOM      9  C   UNL     1      33.443 -20.429 -20.591  0.00  0.00    +0.009 C 
BRANCH   7  11
ATOM     10  O   UNL     1      34.958 -17.400 -20.684  0.00  0.00    -0.291 OA
ATOM     11  C   UNL     1      34.769 -18.478 -21.280  0.00  0.00    +0.176 C 
ATOM     12  C   UNL     1      34.660 -18.456 -22.800  0.00  0.00    +0.077 C 
ENDBRANCH   7  11
BRANCH   6  13
ATOM     13  O   UNL     1      34.235 -23.329 -18.517  0.00  0.00    -0.472 OA
ATOM     14  C   UNL     1      33.948 -24.483 -19.304  0.00  0.00    +0.252 C 
ENDBRANCH   6  13
BRANCH   5  15
ATOM     15  O   UNL     1      36.913 -19.571 -19.795  0.00  0.00    -0.506 OA
ATOM     16  H   UNL     1      36.982 -18.730 -20.204  0.00  0.00    +0.292 HD
ENDBRANCH   5  15
ENDBRANCH   1   4
BRANCH   2  17
ATOM     17  N   UNL     1      35.213 -22.471 -16.400  0.00  0.00    -0.317 N 
ATOM     18  H   UNL     1      34.605 -21.762 -16.714  0.00  0.00    +0.148 HD
BRANCH  17  20
ATOM     19  S   UNL     1      35.473 -24.772 -14.972  0.00  0.00    -0.019 S 
ATOM     20  C   UNL     1      34.711 -23.343 -15.440  0.00  0.00    +0.136 C 
BRANCH  20  21
ATOM     21  N   UNL     1      33.549 -22.989 -14.782  0.00  0.00    -0.281 N 
ATOM     22  N   UNL     1      31.953 -23.241 -16.509  0.00  0.00    -0.228 NA
ATOM     23  C   UNL     1      32.204 -22.940 -15.223  0.00  0.00    +0.133 C 
ATOM     24  C   UNL     1      31.255 -22.584 -14.290  0.00  0.00    +0.035 C 
ATOM     25  C   UNL     1      29.931 -22.534 -14.713  0.00  0.00    +0.015 C 
ATOM     26  C   UNL     1      30.655 -23.181 -16.883  0.00  0.00    +0.111 C 
ATOM     27  C   UNL     1      29.618 -22.837 -16.033  0.00  0.00    +0.088 C 
ATOM     28  H   UNL     1      33.679 -22.724 -13.842  0.00  0.00    +0.155 HD
BRANCH  27  30
ATOM     29  N   UNL     1      27.168 -22.760 -16.876  0.00  0.00    -0.191 NA
ATOM     30  C   UNL     1      28.269 -22.794 -16.497  0.00  0.00    +0.102 C 
ENDBRANCH  27  30
ENDBRANCH  20  21
ENDBRANCH  17  20
ENDBRANCH   2  17
TORSDOF 8
ENDMDL
MODEL 8
REMARK VINA RESULT:      -7.9      1.975      2.431
REMARK  Name = 3000663
REMARK  8 active torsions:
REMARK  status: ('A' for Active; 'I' for Inactive)
REMARK    1  A    between atoms: C_1  and  C_4
REMARK    2  A    between atoms: C_2  and  N_17
REMARK    3  A    between atoms: C_5  and  O_15
REMARK    4  A    between atoms: C_6  and  O_13
REMARK    5  A    between atoms: C_7  and  C_11
REMARK    6  A    between atoms: N_17  and  C_20
REMARK    7  A    between atoms: C_20  and  N_21
REMARK    8  A    between atoms: C_27  and  C_30
REMARK                            x       y       z     vdW  Elec       q    Type
REMARK                         _______ _______ _______ _____ _____    ______ ____
ROOT
ATOM      1  C   UNL     1      33.398 -13.963 -20.764  0.00  0.00    +0.048 C 
ATOM      2  C   UNL     1      33.634 -15.351 -21.266  0.00  0.00    +0.075 C 
ATOM      3  C   UNL     1      32.420 -15.044 -20.438  0.00  0.00    +0.026 C 
ENDROOT
BRANCH   1   4
ATOM      4  C   UNL     1      33.007 -12.897 -21.737  0.00  0.00    +0.047 C 
ATOM      5  C   UNL     1      33.710 -12.748 -22.932  0.00  0.00    +0.135 C 
ATOM      6  C   UNL     1      31.936 -12.050 -21.447  0.00  0.00    +0.138 C 
ATOM      7  C   UNL     1      33.342 -11.753 -23.838  0.00  0.00    +0.068 C 
ATOM      8  C   UNL     1      31.569 -11.056 -22.353  0.00  0.00    +0.037 C 
ATOM      9  C   UNL     1      32.272 -10.907 -23.548  0.00  0.00    +0.009 C 
BRANCH   7  11
ATOM     10  O   UNL     1      33.860 -12.332 -26.065  0.00  0.00    -0.291 OA
ATOM     11  C   UNL     1      34.061 -11.579 -25.093  0.00  0.00    +0.176 C 
ATOM     12  C   UNL     1      35.086 -10.461 -25.241  0.00  0.00    +0.077 C 
ENDBRANCH   7  11
BRANCH   6  13
ATOM     13  O   UNL     1      31.237 -12.180 -20.284  0.00  0.00    -0.472 OA
ATOM     14  C   UNL     1      31.312 -11.097 -19.360  0.00  0.00    +0.252 C 
ENDBRANCH   6  13
BRANCH   5  15
ATOM     15  O   UNL     1      34.756 -13.577 -23.216  0.00  0.00    -0.506 OA
ATOM     16  H   UNL     1      34.666 -14.502 -23.099  0.00  0.00    +0.292 HD
ENDBRANCH   5  15
ENDBRANCH   1   4
BRANCH   2  17
ATOM     17  N   UNL     1      33.522 -15.653 -22.652  0.00  0.00    -0.317 N 
ATOM     18  H   UNL     1      32.793 -15.212 -23.144  0.00  0.00    +0.148 HD
BRANCH  17  20
ATOM     19  S   UNL     1      34.261 -16.688 -25.057  0.00  0.00    -0.019 S 
ATOM     20  C   UNL     1      34.338 -16.511 -23.383  0.00  0.00    +0.136 C 
BRANCH  20  21
ATOM     21  N   UNL     1      35.314 -17.215 -22.706  0.00  0.00    -0.281 N 
ATOM     22  N   UNL     1      34.013 -18.851 -21.601  0.00  0.00    -0.228 NA
ATOM     23  C   UNL     1      35.232 -18.349 -21.861  0.00  0.00    +0.133 C 
ATOM     24  C   UNL     1      36.419 -18.848 -21.371  0.00  0.00    +0.035 C 
ATOM     25  C   UNL     1      36.349 -19.963 -20.541  0.00  0.00    +0.015 C 
ATOM     26  C   UNL     1      33.984 -19.933 -20.791  0.00  0.00    +0.111 C 
ATOM     27  C   UNL     1      35.112 -20.521 -20.241  0.00  0.00    +0.088 C 
ATOM     28  H   UNL     1      36.228 -16.868 -22.833  0.00  0.00    +0.155 HD
BRANCH  27  30
ATOM     29  N   UNL     1      34.921 -22.596 -18.701  0.00  0.00    -0.191 NA
ATOM     30  C   UNL     1      35.007 -21.664 -19.392  0.00  0.00    +0.102 C 
ENDBRANCH  27  30
ENDBRANCH  20  21
ENDBRANCH  17  20
ENDBRANCH   2  17
TORSDOF 8
ENDMDL
MODEL 9
REMARK VINA RESULT:      -7.9      5.040      9.582
REMARK  Name = 3000663
REMARK  8 active torsions:
REMARK  status: ('A' for Active; 'I' for Inactive)
REMARK    1  A    between atoms: C_1  and  C_4
REMARK    2  A    between atoms: C_2  and  N_17
REMARK    3  A    between atoms: C_5  and  O_15
REMARK    4  A    between atoms: C_6  and  O_13
REMARK    5  A    between atoms: C_7  and  C_11
REMARK    6  A    between atoms: N_17  and  C_20
REMARK    7  A    between atoms: C_20  and  N_21
REMARK    8  A    between atoms: C_27  and  C_30
REMARK                            x       y       z     vdW  Elec       q    Type
REMARK                         _______ _______ _______ _____ _____    ______ ____
ROOT
ATOM      1  C   UNL     1      33.297 -14.200 -24.248  0.00  0.00    +0.048 C 
ATOM      2  C   UNL     1      33.917 -13.073 -25.010  0.00  0.00    +0.075 C 
ATOM      3  C   UNL     1      32.475 -13.427 -25.228  0.00  0.00    +0.026 C 
ENDROOT
BRANCH   1   4
ATOM      4  C   UNL     1      33.036 -14.032 -22.786  0.00  0.00    +0.047 C 
ATOM      5  C   UNL     1      32.258 -12.966 -22.333  0.00  0.00    +0.135 C 
ATOM      6  C   UNL     1      33.570 -14.942 -21.875  0.00  0.00    +0.138 C 
ATOM      7  C   UNL     1      32.015 -12.811 -20.967  0.00  0.00    +0.068 C 
ATOM      8  C   UNL     1      33.327 -14.787 -20.510  0.00  0.00    +0.037 C 
ATOM      9  C   UNL     1      32.551 -13.722 -20.057  0.00  0.00    +0.009 C 
BRANCH   7  11
ATOM     10  O   UNL     1      30.195 -11.316 -21.084  0.00  0.00    -0.291 OA
ATOM     11  C   UNL     1      31.206 -11.707 -20.471  0.00  0.00    +0.176 C 
ATOM     12  C   UNL     1      31.587 -11.000 -19.175  0.00  0.00    +0.077 C 
ENDBRANCH   7  11
BRANCH   6  13
ATOM     13  O   UNL     1      34.333 -15.990 -22.298  0.00  0.00    -0.472 OA
ATOM     14  C   UNL     1      34.886 -16.836 -21.293  0.00  0.00    +0.252 C 
ENDBRANCH   6  13
BRANCH   5  15
ATOM     15  O   UNL     1      31.733 -12.076 -23.224  0.00  0.00    -0.506 OA
ATOM     16  H   UNL     1      32.289 -11.442 -23.634  0.00  0.00    +0.292 HD
ENDBRANCH   5  15
ENDBRANCH   1   4
BRANCH   2  17
ATOM     17  N   UNL     1      34.286 -11.866 -24.351  0.00  0.00    -0.317 N 
ATOM     18  H   UNL     1      34.087 -11.808 -23.389  0.00  0.00    +0.148 HD
BRANCH  17  20
ATOM     19  S   UNL     1      35.527 -10.739 -26.494  0.00  0.00    -0.019 S 
ATOM     20  C   UNL     1      34.900 -10.760 -24.929  0.00  0.00    +0.136 C 
BRANCH  20  21
ATOM     21  N   UNL     1      34.945  -9.587 -24.202  0.00  0.00    -0.281 N 
ATOM     22  N   UNL     1      32.646  -9.049 -24.063  0.00  0.00    -0.228 NA
ATOM     23  C   UNL     1      33.912  -8.735 -23.738  0.00  0.00    +0.133 C 
ATOM     24  C   UNL     1      34.294  -7.647 -22.984  0.00  0.00    +0.035 C 
ATOM     25  C   UNL     1      33.287  -6.805 -22.523  0.00  0.00    +0.015 C 
ATOM     26  C   UNL     1      31.695  -8.208 -23.597  0.00  0.00    +0.111 C 
ATOM     27  C   UNL     1      31.960  -7.085 -22.832  0.00  0.00    +0.088 C 
ATOM     28  H   UNL     1      35.854  -9.289 -23.965  0.00  0.00    +0.155 HD
BRANCH  27  30
ATOM     29  N   UNL     1      30.044  -5.552 -21.999  0.00  0.00    -0.191 NA
ATOM     30  C   UNL     1      30.905  -6.240 -22.373  0.00  0.00    +0.102 C 
ENDBRANCH  27  30
ENDBRANCH  20  21
ENDBRANCH  17  20
ENDBRANCH   2  17
TORSDOF 8
ENDMDL
