MODEL 1
REMARK VINA RESULT:      -5.4      0.000      0.000
REMARK  Name = 444599
REMARK  4 active torsions:
REMARK  status: ('A' for Active; 'I' for Inactive)
REMARK    1  A    between atoms: C_1  and  C_4
REMARK    2  A    between atoms: C_1  and  N_8
REMARK    3  A    between atoms: C_1  and  C_12
REMARK    4  A    between atoms: N_3  and  O_6
REMARK                            x       y       z     vdW  Elec       q    Type
REMARK                         _______ _______ _______ _____ _____    ______ ____
ROOT
ATOM      1  C   UNL     1      29.594 -24.407 -15.711  0.00  0.00    +0.015 C 
ENDROOT
BRANCH   1   4
ATOM      2  O   UNL     1      27.823 -24.359 -17.374  0.00  0.00    -0.275 OA
ATOM      3  N   UNL     1      28.437 -22.388 -16.344  0.00  0.00    -0.199 N 
ATOM      4  C   UNL     1      28.518 -23.742 -16.568  0.00  0.00    +0.224 C 
ATOM      5  H   UNL     1      29.013 -21.932 -15.689  0.00  0.00    +0.182 HD
BRANCH   3   6
ATOM      6  O   UNL     1      27.484 -21.697 -17.103  0.00  0.00    -0.295 OA
ATOM      7  H   UNL     1      27.088 -20.995 -16.563  0.00  0.00    +0.241 HD
ENDBRANCH   3   6
ENDBRANCH   1   4
BRANCH   1   8
ATOM      8  N   UNL     1      28.925 -25.178 -14.664  0.00  0.00    +0.387 N 
ATOM      9  H   UNL     1      29.305 -26.124 -14.643  0.00  0.00    -0.089 HD
ATOM     10  H   UNL     1      27.925 -25.217 -14.857  0.00  0.00    -0.089 HD
ATOM     11  H   UNL     1      29.080 -24.730 -13.761  0.00  0.00    -0.089 HD
ENDBRANCH   1   8
BRANCH   1  12
ATOM     12  C   UNL     1      30.599 -23.364 -15.163  0.00  0.00    -0.011 C 
ATOM     13  C   UNL     1      30.909 -23.606 -13.682  0.00  0.00    -0.002 C 
ATOM     14  C   UNL     1      31.907 -23.306 -15.961  0.00  0.00    -0.002 C 
ENDBRANCH   1  12
TORSDOF 4
ENDMDL
MODEL 2
REMARK VINA RESULT:      -5.3      8.017      8.670
REMARK  Name = 444599
REMARK  4 active torsions:
REMARK  status: ('A' for Active; 'I' for Inactive)
REMARK    1  A    between atoms: C_1  and  C_4
REMARK    2  A    between atoms: C_1  and  N_8
REMARK    3  A    between atoms: C_1  and  C_12
REMARK    4  A    between atoms: N_3  and  O_6
REMARK                            x       y       z     vdW  Elec       q    Type
REMARK                         _______ _______ _______ _____ _____    ______ ____
ROOT
ATOM      1  C   UNL     1      36.888 -25.690 -13.537  0.00  0.00    +0.015 C 
ENDROOT
BRANCH   1   4
ATOM      2  O   UNL     1      38.507 -27.069 -14.714  0.00  0.00    -0.275 OA
ATOM      3  N   UNL     1      36.397 -26.815 -15.612  0.00  0.00    -0.199 N 
ATOM      4  C   UNL     1      37.370 -26.601 -14.664  0.00  0.00    +0.224 C 
ATOM      5  H   UNL     1      35.498 -26.421 -15.535  0.00  0.00    +0.182 HD
BRANCH   3   6
ATOM      6  O   UNL     1      36.762 -27.629 -16.692  0.00  0.00    -0.295 OA
ATOM      7  H   UNL     1      37.460 -27.191 -17.205  0.00  0.00    +0.241 HD
ENDBRANCH   3   6
ENDBRANCH   1   4
BRANCH   1   8
ATOM      8  N   UNL     1      35.477 -25.386 -13.773  0.00  0.00    +0.387 N 
ATOM      9  H   UNL     1      35.403 -24.592 -14.409  0.00  0.00    -0.089 HD
ATOM     10  H   UNL     1      35.027 -25.155 -12.887  0.00  0.00    -0.089 HD
ATOM     11  H   UNL     1      35.019 -26.197 -14.187  0.00  0.00    -0.089 HD
ENDBRANCH   1   8
BRANCH   1  12
ATOM     12  C   UNL     1      37.779 -24.429 -13.414  0.00  0.00    -0.011 C 
ATOM     13  C   UNL     1      37.223 -23.265 -14.243  0.00  0.00    -0.002 C 
ATOM     14  C   UNL     1      37.990 -23.976 -11.965  0.00  0.00    -0.002 C 
ENDBRANCH   1  12
TORSDOF 4
ENDMDL
MODEL 3
REMARK VINA RESULT:      -5.1      8.720      9.565
REMARK  Name = 444599
REMARK  4 active torsions:
REMARK  status: ('A' for Active; 'I' for Inactive)
REMARK    1  A    between atoms: C_1  and  C_4
REMARK    2  A    between atoms: C_1  and  N_8
REMARK    3  A    between atoms: C_1  and  C_12
REMARK    4  A    between atoms: N_3  and  O_6
REMARK                            x       y       z     vdW  Elec       q    Type
REMARK                         _______ _______ _______ _____ _____    ______ ____
ROOT
ATOM      1  C   UNL     1      37.258 -25.012 -14.243  0.00  0.00    +0.015 C 
ENDROOT
BRANCH   1   4
ATOM      2  O   UNL     1      38.398 -27.124 -14.628  0.00  0.00    -0.275 OA
ATOM      3  N   UNL     1      39.342 -25.184 -15.444  0.00  0.00    -0.199 N 
ATOM      4  C   UNL     1      38.374 -25.904 -14.785  0.00  0.00    +0.224 C 
ATOM      5  H   UNL     1      39.286 -24.207 -15.548  0.00  0.00    +0.182 HD
BRANCH   3   6
ATOM      6  O   UNL     1      40.413 -25.925 -15.959  0.00  0.00    -0.295 OA
ATOM      7  H   UNL     1      41.249 -25.555 -15.634  0.00  0.00    +0.241 HD
ENDBRANCH   3   6
ENDBRANCH   1   4
BRANCH   1   8
ATOM      8  N   UNL     1      37.467 -23.661 -14.762  0.00  0.00    +0.387 N 
ATOM      9  H   UNL     1      38.452 -23.411 -14.672  0.00  0.00    -0.089 HD
ATOM     10  H   UNL     1      36.899 -23.001 -14.231  0.00  0.00    -0.089 HD
ATOM     11  H   UNL     1      37.197 -23.628 -15.745  0.00  0.00    -0.089 HD
ENDBRANCH   1   8
BRANCH   1  12
ATOM     12  C   UNL     1      37.190 -25.075 -12.698  0.00  0.00    -0.011 C 
ATOM     13  C   UNL     1      38.239 -24.165 -12.050  0.00  0.00    -0.002 C 
ATOM     14  C   UNL     1      35.801 -24.741 -12.139  0.00  0.00    -0.002 C 
ENDBRANCH   1  12
TORSDOF 4
ENDMDL
MODEL 4
REMARK VINA RESULT:      -5.1      8.776      9.747
REMARK  Name = 444599
REMARK  4 active torsions:
REMARK  status: ('A' for Active; 'I' for Inactive)
REMARK    1  A    between atoms: C_1  and  C_4
REMARK    2  A    between atoms: C_1  and  N_8
REMARK    3  A    between atoms: C_1  and  C_12
REMARK    4  A    between atoms: N_3  and  O_6
REMARK                            x       y       z     vdW  Elec       q    Type
REMARK                         _______ _______ _______ _____ _____    ______ ____
ROOT
ATOM      1  C   UNL     1      35.079 -18.807 -21.057  0.00  0.00    +0.015 C 
ENDROOT
BRANCH   1   4
ATOM      2  O   UNL     1      34.732 -18.948 -23.458  0.00  0.00    -0.275 OA
ATOM      3  N   UNL     1      35.631 -17.017 -22.574  0.00  0.00    -0.199 N 
ATOM      4  C   UNL     1      35.113 -18.288 -22.493  0.00  0.00    +0.224 C 
ATOM      5  H   UNL     1      35.926 -16.521 -21.776  0.00  0.00    +0.182 HD
BRANCH   3   6
ATOM      6  O   UNL     1      35.714 -16.470 -23.861  0.00  0.00    -0.295 OA
ATOM      7  H   UNL     1      36.461 -15.851 -23.902  0.00  0.00    +0.241 HD
ENDBRANCH   3   6
ENDBRANCH   1   4
BRANCH   1   8
ATOM      8  N   UNL     1      36.459 -19.005 -20.615  0.00  0.00    +0.387 N 
ATOM      9  H   UNL     1      36.694 -18.303 -19.913  0.00  0.00    -0.089 HD
ATOM     10  H   UNL     1      37.088 -18.912 -21.412  0.00  0.00    -0.089 HD
ATOM     11  H   UNL     1      36.556 -19.936 -20.210  0.00  0.00    -0.089 HD
ENDBRANCH   1   8
BRANCH   1  12
ATOM     12  C   UNL     1      34.206 -20.081 -20.942  0.00  0.00    -0.011 C 
ATOM     13  C   UNL     1      34.778 -21.064 -19.914  0.00  0.00    -0.002 C 
ATOM     14  C   UNL     1      32.739 -19.783 -20.610  0.00  0.00    -0.002 C 
ENDBRANCH   1  12
TORSDOF 4
ENDMDL
MODEL 5
REMARK VINA RESULT:      -5.1      7.087      8.161
REMARK  Name = 444599
REMARK  4 active torsions:
REMARK  status: ('A' for Active; 'I' for Inactive)
REMARK    1  A    between atoms: C_1  and  C_4
REMARK    2  A    between atoms: C_1  and  N_8
REMARK    3  A    between atoms: C_1  and  C_12
REMARK    4  A    between atoms: N_3  and  O_6
REMARK                            x       y       z     vdW  Elec       q    Type
REMARK                         _______ _______ _______ _____ _____    ______ ____
ROOT
ATOM      1  C   UNL     1      34.742 -20.234 -20.913  0.00  0.00    +0.015 C 
ENDROOT
BRANCH   1   4
ATOM      2  O   UNL     1      32.449 -20.075 -20.124  0.00  0.00    -0.275 OA
ATOM      3  N   UNL     1      33.760 -21.826 -19.391  0.00  0.00    -0.199 N 
ATOM      4  C   UNL     1      33.518 -20.684 -20.118  0.00  0.00    +0.224 C 
ATOM      5  H   UNL     1      34.632 -22.283 -19.413  0.00  0.00    +0.182 HD
BRANCH   3   6
ATOM      6  O   UNL     1      32.693 -22.298 -18.618  0.00  0.00    -0.295 OA
ATOM      7  H   UNL     1      32.927 -23.159 -18.234  0.00  0.00    +0.241 HD
ENDBRANCH   3   6
ENDBRANCH   1   4
BRANCH   1   8
ATOM      8  N   UNL     1      35.861 -20.095 -19.981  0.00  0.00    +0.387 N 
ATOM      9  H   UNL     1      35.546 -19.609 -19.142  0.00  0.00    -0.089 HD
ATOM     10  H   UNL     1      36.608 -19.560 -20.425  0.00  0.00    -0.089 HD
ATOM     11  H   UNL     1      36.209 -21.020 -19.728  0.00  0.00    -0.089 HD
ENDBRANCH   1   8
BRANCH   1  12
ATOM     12  C   UNL     1      34.446 -18.944 -21.717  0.00  0.00    -0.011 C 
ATOM     13  C   UNL     1      35.190 -17.736 -21.137  0.00  0.00    -0.002 C 
ATOM     14  C   UNL     1      34.763 -19.076 -23.211  0.00  0.00    -0.002 C 
ENDBRANCH   1  12
TORSDOF 4
ENDMDL
MODEL 6
REMARK VINA RESULT:      -5.1      8.084      8.767
REMARK  Name = 444599
REMARK  4 active torsions:
REMARK  status: ('A' for Active; 'I' for Inactive)
REMARK    1  A    between atoms: C_1  and  C_4
REMARK    2  A    between atoms: C_1  and  N_8
REMARK    3  A    between atoms: C_1  and  C_12
REMARK    4  A    between atoms: N_3  and  O_6
REMARK                            x       y       z     vdW  Elec       q    Type
REMARK                         _______ _______ _______ _____ _____    ______ ____
ROOT
ATOM      1  C   UNL     1      36.815 -23.651 -13.060  0.00  0.00    +0.015 C 
ENDROOT
BRANCH   1   4
ATOM      2  O   UNL     1      37.257 -22.833 -10.815  0.00  0.00    -0.275 OA
ATOM      3  N   UNL     1      35.661 -24.472 -11.109  0.00  0.00    -0.199 N 
ATOM      4  C   UNL     1      36.617 -23.586 -11.547  0.00  0.00    +0.224 C 
ATOM      5  H   UNL     1      35.170 -25.059 -11.728  0.00  0.00    +0.182 HD
BRANCH   3   6
ATOM      6  O   UNL     1      35.427 -24.488  -9.728  0.00  0.00    -0.295 OA
ATOM      7  H   UNL     1      34.724 -25.125  -9.526  0.00  0.00    +0.241 HD
ENDBRANCH   3   6
ENDBRANCH   1   4
BRANCH   1   8
ATOM      8  N   UNL     1      35.587 -23.178 -13.698  0.00  0.00    +0.387 N 
ATOM      9  H   UNL     1      34.866 -23.042 -12.990  0.00  0.00    -0.089 HD
ATOM     10  H   UNL     1      35.270 -23.869 -14.378  0.00  0.00    -0.089 HD
ATOM     11  H   UNL     1      35.769 -22.294 -14.172  0.00  0.00    -0.089 HD
ENDBRANCH   1   8
BRANCH   1  12
ATOM     12  C   UNL     1      37.237 -25.072 -13.510  0.00  0.00    -0.011 C 
ATOM     13  C   UNL     1      36.903 -25.316 -14.986  0.00  0.00    -0.002 C 
ATOM     14  C   UNL     1      38.719 -25.371 -13.260  0.00  0.00    -0.002 C 
ENDBRANCH   1  12
TORSDOF 4
ENDMDL
MODEL 7
REMARK VINA RESULT:      -5.1      8.250      9.163
REMARK  Name = 444599
REMARK  4 active torsions:
REMARK  status: ('A' for Active; 'I' for Inactive)
REMARK    1  A    between atoms: C_1  and  C_4
REMARK    2  A    between atoms: C_1  and  N_8
REMARK    3  A    between atoms: C_1  and  C_12
REMARK    4  A    between atoms: N_3  and  O_6
REMARK                            x       y       z     vdW  Elec       q    Type
REMARK                         _______ _______ _______ _____ _____    ______ ____
ROOT
ATOM      1  C   UNL     1      37.027 -25.383 -14.146  0.00  0.00    +0.015 C 
ENDROOT
BRANCH   1   4
ATOM      2  O   UNL     1      38.433 -27.291 -14.683  0.00  0.00    -0.275 OA
ATOM      3  N   UNL     1      39.104 -25.189 -15.356  0.00  0.00    -0.199 N 
ATOM      4  C   UNL     1      38.246 -26.077 -14.751  0.00  0.00    +0.224 C 
ATOM      5  H   UNL     1      38.917 -24.223 -15.389  0.00  0.00    +0.182 HD
BRANCH   3   6
ATOM      6  O   UNL     1      40.258 -25.742 -15.924  0.00  0.00    -0.295 OA
ATOM      7  H   UNL     1      40.388 -25.377 -16.814  0.00  0.00    +0.241 HD
ENDBRANCH   3   6
ENDBRANCH   1   4
BRANCH   1   8
ATOM      8  N   UNL     1      35.845 -25.814 -14.890  0.00  0.00    +0.387 N 
ATOM      9  H   UNL     1      35.109 -25.114 -14.795  0.00  0.00    -0.089 HD
ATOM     10  H   UNL     1      35.516 -26.705 -14.520  0.00  0.00    -0.089 HD
ATOM     11  H   UNL     1      36.084 -25.922 -15.875  0.00  0.00    -0.089 HD
ENDBRANCH   1   8
BRANCH   1  12
ATOM     12  C   UNL     1      37.213 -23.846 -14.119  0.00  0.00    -0.011 C 
ATOM     13  C   UNL     1      36.126 -23.134 -14.933  0.00  0.00    -0.002 C 
ATOM     14  C   UNL     1      37.257 -23.266 -12.700  0.00  0.00    -0.002 C 
ENDBRANCH   1  12
TORSDOF 4
ENDMDL
MODEL 8
REMARK VINA RESULT:      -5.0      9.007     10.103
REMARK  Name = 444599
REMARK  4 active torsions:
REMARK  status: ('A' for Active; 'I' for Inactive)
REMARK    1  A    between atoms: C_1  and  C_4
REMARK    2  A    between atoms: C_1  and  N_8
REMARK    3  A    between atoms: C_1  and  C_12
REMARK    4  A    between atoms: N_3  and  O_6
REMARK                            x       y       z     vdW  Elec       q    Type
REMARK                         _______ _______ _______ _____ _____    ______ ____
ROOT
ATOM      1  C   UNL     1      35.366 -19.076 -22.047  0.00  0.00    +0.015 C 
ENDROOT
BRANCH   1   4
ATOM      2  O   UNL     1      35.118 -16.851 -21.101  0.00  0.00    -0.275 OA
ATOM      3  N   UNL     1      35.531 -17.061 -23.361  0.00  0.00    -0.199 N 
ATOM      4  C   UNL     1      35.327 -17.550 -22.092  0.00  0.00    +0.224 C 
ATOM      5  H   UNL     1      35.695 -17.655 -24.129  0.00  0.00    +0.182 HD
BRANCH   3   6
ATOM      6  O   UNL     1      35.494 -15.667 -23.494  0.00  0.00    -0.295 OA
ATOM      7  H   UNL     1      36.247 -15.277 -23.022  0.00  0.00    +0.241 HD
ENDBRANCH   3   6
ENDBRANCH   1   4
BRANCH   1   8
ATOM      8  N   UNL     1      34.709 -19.581 -23.252  0.00  0.00    +0.387 N 
ATOM      9  H   UNL     1      34.057 -18.880 -23.603  0.00  0.00    -0.089 HD
ATOM     10  H   UNL     1      34.202 -20.437 -23.029  0.00  0.00    -0.089 HD
ATOM     11  H   UNL     1      35.412 -19.778 -23.965  0.00  0.00    -0.089 HD
ENDBRANCH   1   8
BRANCH   1  12
ATOM     12  C   UNL     1      34.746 -19.615 -20.735  0.00  0.00    -0.011 C 
ATOM     13  C   UNL     1      33.263 -19.961 -20.914  0.00  0.00    -0.002 C 
ATOM     14  C   UNL     1      35.493 -20.827 -20.165  0.00  0.00    -0.002 C 
ENDBRANCH   1  12
TORSDOF 4
ENDMDL
MODEL 9
REMARK VINA RESULT:      -5.0     14.774     15.815
REMARK  Name = 444599
REMARK  4 active torsions:
REMARK  status: ('A' for Active; 'I' for Inactive)
REMARK    1  A    between atoms: C_1  and  C_4
REMARK    2  A    between atoms: C_1  and  N_8
REMARK    3  A    between atoms: C_1  and  C_12
REMARK    4  A    between atoms: N_3  and  O_6
REMARK                            x       y       z     vdW  Elec       q    Type
REMARK                         _______ _______ _______ _____ _____    ______ ____
ROOT
ATOM      1  C   UNL     1      41.280 -14.271 -16.637  0.00  0.00    +0.015 C 
ENDROOT
BRANCH   1   4
ATOM      2  O   UNL     1      40.934 -15.578 -14.617  0.00  0.00    -0.275 OA
ATOM      3  N   UNL     1      41.060 -13.280 -14.449  0.00  0.00    -0.199 N 
ATOM      4  C   UNL     1      41.078 -14.471 -15.136  0.00  0.00    +0.224 C 
ATOM      5  H   UNL     1      41.179 -12.415 -14.903  0.00  0.00    +0.182 HD
BRANCH   3   6
ATOM      6  O   UNL     1      40.862 -13.373 -13.066  0.00  0.00    -0.295 OA
ATOM      7  H   UNL     1      41.126 -12.540 -12.645  0.00  0.00    +0.241 HD
ENDBRANCH   3   6
ENDBRANCH   1   4
BRANCH   1   8
ATOM      8  N   UNL     1      41.331 -15.590 -17.266  0.00  0.00    +0.387 N 
ATOM      9  H   UNL     1      41.297 -16.312 -16.547  0.00  0.00    -0.089 HD
ATOM     10  H   UNL     1      42.197 -15.679 -17.798  0.00  0.00    -0.089 HD
ATOM     11  H   UNL     1      40.534 -15.698 -17.893  0.00  0.00    -0.089 HD
ENDBRANCH   1   8
BRANCH   1  12
ATOM     12  C   UNL     1      42.529 -13.402 -16.924  0.00  0.00    -0.011 C 
ATOM     13  C   UNL     1      43.568 -14.167 -17.751  0.00  0.00    -0.002 C 
ATOM     14  C   UNL     1      42.197 -12.074 -17.614  0.00  0.00    -0.002 C 
ENDBRANCH   1  12
TORSDOF 4
ENDMDL
