MODEL 1
REMARK VINA RESULT:      -8.5      0.000      0.000
REMARK  Name = 2763754
REMARK  3 active torsions:
REMARK  status: ('A' for Active; 'I' for Inactive)
REMARK    1  A    between atoms: N_1  and  C_9
REMARK    2  A    between atoms: C_6  and  C_16
REMARK    3  A    between atoms: C_16  and  O_17
REMARK                            x       y       z     vdW  Elec       q    Type
REMARK                         _______ _______ _______ _____ _____    ______ ____
ROOT
ATOM      1  N   UNL     1      34.851 -19.657 -20.780  0.00  0.00    -0.156 N 
ATOM      2  N   UNL     1      33.747 -20.336 -20.419  0.00  0.00    -0.100 NA
ATOM      3  N   UNL     1      35.639 -21.336 -19.608  0.00  0.00    -0.331 NA
ATOM      4  C   UNL     1      35.972 -20.263 -20.289  0.00  0.00    +0.195 C 
ATOM      5  C   UNL     1      37.337 -19.752 -20.519  0.00  0.00    +0.087 C 
ATOM      6  C   UNL     1      34.278 -21.338 -19.714  0.00  0.00    +0.181 C 
ENDROOT
BRANCH   1   9
ATOM      7 CL   UNL     1      34.511 -14.564 -20.927  0.00  0.00    -0.082 Cl
ATOM      8 CL   UNL     1      34.694 -17.539 -25.425  0.00  0.00    -0.082 Cl
ATOM      9  C   UNL     1      34.772 -18.507 -21.545  0.00  0.00    +0.079 C 
ATOM     10  C   UNL     1      34.774 -18.593 -22.937  0.00  0.00    +0.028 C 
ATOM     11  C   UNL     1      34.691 -17.261 -20.923  0.00  0.00    +0.028 C 
ATOM     12  C   UNL     1      34.612 -16.101 -21.694  0.00  0.00    +0.060 C 
ATOM     13  C   UNL     1      34.694 -17.434 -23.708  0.00  0.00    +0.060 C 
ATOM     14  C   UNL     1      34.613 -16.188 -23.086  0.00  0.00    +0.023 C 
ENDBRANCH   1   9
BRANCH   6  16
ATOM     15  O   UNL     1      32.415 -22.177 -18.460  0.00  0.00    -0.232 OA
ATOM     16  C   UNL     1      33.460 -22.348 -19.111  0.00  0.00    +0.416 C 
BRANCH  16  17
ATOM     17  O   UNL     1      33.941 -23.615 -19.315  0.00  0.00    -0.469 OA
ATOM     18  H   UNL     1      33.449 -24.226 -19.830  0.00  0.00    +0.296 HD
ENDBRANCH  16  17
ENDBRANCH   6  16
TORSDOF 3
ENDMDL
MODEL 2
REMARK VINA RESULT:      -8.5      0.006      2.191
REMARK  Name = 2763754
REMARK  3 active torsions:
REMARK  status: ('A' for Active; 'I' for Inactive)
REMARK    1  A    between atoms: N_1  and  C_9
REMARK    2  A    between atoms: C_6  and  C_16
REMARK    3  A    between atoms: C_16  and  O_17
REMARK                            x       y       z     vdW  Elec       q    Type
REMARK                         _______ _______ _______ _____ _____    ______ ____
ROOT
ATOM      1  N   UNL     1      34.851 -19.657 -20.776  0.00  0.00    -0.156 N 
ATOM      2  N   UNL     1      33.748 -20.335 -20.412  0.00  0.00    -0.100 NA
ATOM      3  N   UNL     1      35.641 -21.337 -19.608  0.00  0.00    -0.331 NA
ATOM      4  C   UNL     1      35.972 -20.264 -20.289  0.00  0.00    +0.195 C 
ATOM      5  C   UNL     1      37.338 -19.753 -20.522  0.00  0.00    +0.087 C 
ATOM      6  C   UNL     1      34.280 -21.339 -19.710  0.00  0.00    +0.181 C 
ENDROOT
BRANCH   1   9
ATOM      7 CL   UNL     1      34.696 -17.537 -25.419  0.00  0.00    -0.082 Cl
ATOM      8 CL   UNL     1      34.504 -14.563 -20.920  0.00  0.00    -0.082 Cl
ATOM      9  C   UNL     1      34.770 -18.506 -21.539  0.00  0.00    +0.079 C 
ATOM     10  C   UNL     1      34.687 -17.261 -20.917  0.00  0.00    +0.028 C 
ATOM     11  C   UNL     1      34.773 -18.591 -22.931  0.00  0.00    +0.028 C 
ATOM     12  C   UNL     1      34.692 -17.431 -23.702  0.00  0.00    +0.060 C 
ATOM     13  C   UNL     1      34.606 -16.100 -21.687  0.00  0.00    +0.060 C 
ATOM     14  C   UNL     1      34.609 -16.185 -23.079  0.00  0.00    +0.023 C 
ENDBRANCH   1   9
BRANCH   6  16
ATOM     15  O   UNL     1      32.420 -22.178 -18.452  0.00  0.00    -0.232 OA
ATOM     16  C   UNL     1      33.463 -22.348 -19.106  0.00  0.00    +0.416 C 
BRANCH  16  17
ATOM     17  O   UNL     1      33.942 -23.616 -19.314  0.00  0.00    -0.469 OA
ATOM     18  H   UNL     1      33.462 -24.216 -19.851  0.00  0.00    +0.296 HD
ENDBRANCH  16  17
ENDBRANCH   6  16
TORSDOF 3
ENDMDL
MODEL 3
REMARK VINA RESULT:      -8.4      6.917      8.756
REMARK  Name = 2763754
REMARK  3 active torsions:
REMARK  status: ('A' for Active; 'I' for Inactive)
REMARK    1  A    between atoms: N_1  and  C_9
REMARK    2  A    between atoms: C_6  and  C_16
REMARK    3  A    between atoms: C_16  and  O_17
REMARK                            x       y       z     vdW  Elec       q    Type
REMARK                         _______ _______ _______ _____ _____    ______ ____
ROOT
ATOM      1  N   UNL     1      29.786 -23.188 -16.147  0.00  0.00    -0.156 N 
ATOM      2  N   UNL     1      29.094 -22.174 -16.698  0.00  0.00    -0.100 NA
ATOM      3  N   UNL     1      27.693 -23.744 -15.799  0.00  0.00    -0.331 NA
ATOM      4  C   UNL     1      28.938 -24.116 -15.614  0.00  0.00    +0.195 C 
ATOM      5  C   UNL     1      29.402 -25.345 -14.940  0.00  0.00    +0.087 C 
ATOM      6  C   UNL     1      27.838 -22.558 -16.460  0.00  0.00    +0.181 C 
ENDROOT
BRANCH   1   9
ATOM      7 CL   UNL     1      34.136 -23.895 -13.568  0.00  0.00    -0.082 Cl
ATOM      8 CL   UNL     1      34.107 -22.602 -18.807  0.00  0.00    -0.082 Cl
ATOM      9  C   UNL     1      31.169 -23.208 -16.161  0.00  0.00    +0.079 C 
ATOM     10  C   UNL     1      31.859 -22.928 -17.340  0.00  0.00    +0.028 C 
ATOM     11  C   UNL     1      31.873 -23.507 -14.994  0.00  0.00    +0.028 C 
ATOM     12  C   UNL     1      33.268 -23.527 -15.007  0.00  0.00    +0.060 C 
ATOM     13  C   UNL     1      33.254 -22.948 -17.353  0.00  0.00    +0.060 C 
ATOM     14  C   UNL     1      33.958 -23.247 -16.187  0.00  0.00    +0.023 C 
ENDBRANCH   1   9
BRANCH   6  16
ATOM     15  O   UNL     1      26.680 -20.962 -17.824  0.00  0.00    -0.232 OA
ATOM     16  C   UNL     1      26.719 -21.768 -16.878  0.00  0.00    +0.416 C 
BRANCH  16  17
ATOM     17  O   UNL     1      25.604 -21.973 -16.107  0.00  0.00    -0.469 OA
ATOM     18  H   UNL     1      25.641 -22.558 -15.375  0.00  0.00    +0.296 HD
ENDBRANCH  16  17
ENDBRANCH   6  16
TORSDOF 3
ENDMDL
MODEL 4
REMARK VINA RESULT:      -8.4      6.925      8.947
REMARK  Name = 2763754
REMARK  3 active torsions:
REMARK  status: ('A' for Active; 'I' for Inactive)
REMARK    1  A    between atoms: N_1  and  C_9
REMARK    2  A    between atoms: C_6  and  C_16
REMARK    3  A    between atoms: C_16  and  O_17
REMARK                            x       y       z     vdW  Elec       q    Type
REMARK                         _______ _______ _______ _____ _____    ______ ____
ROOT
ATOM      1  N   UNL     1      29.781 -23.183 -16.134  0.00  0.00    -0.156 N 
ATOM      2  N   UNL     1      29.089 -22.171 -16.689  0.00  0.00    -0.100 NA
ATOM      3  N   UNL     1      27.687 -23.734 -15.778  0.00  0.00    -0.331 NA
ATOM      4  C   UNL     1      28.933 -24.107 -15.593  0.00  0.00    +0.195 C 
ATOM      5  C   UNL     1      29.396 -25.332 -14.913  0.00  0.00    +0.087 C 
ATOM      6  C   UNL     1      27.833 -22.553 -16.448  0.00  0.00    +0.181 C 
ENDROOT
BRANCH   1   9
ATOM      7 CL   UNL     1      34.095 -22.615 -18.806  0.00  0.00    -0.082 Cl
ATOM      8 CL   UNL     1      34.137 -23.890 -13.563  0.00  0.00    -0.082 Cl
ATOM      9  C   UNL     1      31.164 -23.205 -16.150  0.00  0.00    +0.079 C 
ATOM     10  C   UNL     1      31.870 -23.501 -14.984  0.00  0.00    +0.028 C 
ATOM     11  C   UNL     1      31.852 -22.930 -17.332  0.00  0.00    +0.028 C 
ATOM     12  C   UNL     1      33.247 -22.952 -17.348  0.00  0.00    +0.060 C 
ATOM     13  C   UNL     1      33.265 -23.523 -15.000  0.00  0.00    +0.060 C 
ATOM     14  C   UNL     1      33.953 -23.249 -16.182  0.00  0.00    +0.023 C 
ENDBRANCH   1   9
BRANCH   6  16
ATOM     15  O   UNL     1      26.678 -20.957 -17.814  0.00  0.00    -0.232 OA
ATOM     16  C   UNL     1      26.715 -21.763 -16.868  0.00  0.00    +0.416 C 
BRANCH  16  17
ATOM     17  O   UNL     1      25.597 -21.971 -16.101  0.00  0.00    -0.469 OA
ATOM     18  H   UNL     1      25.677 -22.358 -15.251  0.00  0.00    +0.296 HD
ENDBRANCH  16  17
ENDBRANCH   6  16
TORSDOF 3
ENDMDL
MODEL 5
REMARK VINA RESULT:      -8.1      7.576      9.324
REMARK  Name = 2763754
REMARK  3 active torsions:
REMARK  status: ('A' for Active; 'I' for Inactive)
REMARK    1  A    between atoms: N_1  and  C_9
REMARK    2  A    between atoms: C_6  and  C_16
REMARK    3  A    between atoms: C_16  and  O_17
REMARK                            x       y       z     vdW  Elec       q    Type
REMARK                         _______ _______ _______ _____ _____    ______ ____
ROOT
ATOM      1  N   UNL     1      37.105 -24.427 -14.343  0.00  0.00    -0.156 N 
ATOM      2  N   UNL     1      37.947 -25.197 -15.056  0.00  0.00    -0.100 NA
ATOM      3  N   UNL     1      38.917 -24.490 -13.108  0.00  0.00    -0.331 NA
ATOM      4  C   UNL     1      37.696 -24.013 -13.184  0.00  0.00    +0.195 C 
ATOM      5  C   UNL     1      37.021 -23.154 -12.192  0.00  0.00    +0.087 C 
ATOM      6  C   UNL     1      39.024 -25.203 -14.267  0.00  0.00    +0.181 C 
ENDROOT
BRANCH   1   9
ATOM      7 CL   UNL     1      32.068 -24.671 -13.540  0.00  0.00    -0.082 Cl
ATOM      8 CL   UNL     1      34.140 -22.412 -17.981  0.00  0.00    -0.082 Cl
ATOM      9  C   UNL     1      35.829 -24.144 -14.795  0.00  0.00    +0.079 C 
ATOM     10  C   UNL     1      35.649 -23.496 -16.017  0.00  0.00    +0.028 C 
ATOM     11  C   UNL     1      34.722 -24.507 -14.029  0.00  0.00    +0.028 C 
ATOM     12  C   UNL     1      33.434 -24.222 -14.485  0.00  0.00    +0.060 C 
ATOM     13  C   UNL     1      34.362 -23.211 -16.473  0.00  0.00    +0.060 C 
ATOM     14  C   UNL     1      33.255 -23.574 -15.707  0.00  0.00    +0.023 C 
ENDBRANCH   1   9
BRANCH   6  16
ATOM     15  O   UNL     1      41.001 -26.496 -13.858  0.00  0.00    -0.232 OA
ATOM     16  C   UNL     1      40.213 -25.918 -14.625  0.00  0.00    +0.416 C 
BRANCH  16  17
ATOM     17  O   UNL     1      40.443 -25.926 -15.977  0.00  0.00    -0.469 OA
ATOM     18  H   UNL     1      40.285 -26.705 -16.474  0.00  0.00    +0.296 HD
ENDBRANCH  16  17
ENDBRANCH   6  16
TORSDOF 3
ENDMDL
MODEL 6
REMARK VINA RESULT:      -8.1      7.575      9.443
REMARK  Name = 2763754
REMARK  3 active torsions:
REMARK  status: ('A' for Active; 'I' for Inactive)
REMARK    1  A    between atoms: N_1  and  C_9
REMARK    2  A    between atoms: C_6  and  C_16
REMARK    3  A    between atoms: C_16  and  O_17
REMARK                            x       y       z     vdW  Elec       q    Type
REMARK                         _______ _______ _______ _____ _____    ______ ____
ROOT
ATOM      1  N   UNL     1      37.107 -24.427 -14.343  0.00  0.00    -0.156 N 
ATOM      2  N   UNL     1      37.949 -25.197 -15.055  0.00  0.00    -0.100 NA
ATOM      3  N   UNL     1      38.918 -24.490 -13.107  0.00  0.00    -0.331 NA
ATOM      4  C   UNL     1      37.697 -24.013 -13.183  0.00  0.00    +0.195 C 
ATOM      5  C   UNL     1      37.021 -23.153 -12.191  0.00  0.00    +0.087 C 
ATOM      6  C   UNL     1      39.026 -25.203 -14.266  0.00  0.00    +0.181 C 
ENDROOT
BRANCH   1   9
ATOM      7 CL   UNL     1      34.147 -22.407 -17.981  0.00  0.00    -0.082 Cl
ATOM      8 CL   UNL     1      32.068 -24.668 -13.544  0.00  0.00    -0.082 Cl
ATOM      9  C   UNL     1      35.831 -24.144 -14.795  0.00  0.00    +0.079 C 
ATOM     10  C   UNL     1      34.723 -24.507 -14.031  0.00  0.00    +0.028 C 
ATOM     11  C   UNL     1      35.653 -23.494 -16.017  0.00  0.00    +0.028 C 
ATOM     12  C   UNL     1      34.366 -23.208 -16.475  0.00  0.00    +0.060 C 
ATOM     13  C   UNL     1      33.436 -24.221 -14.488  0.00  0.00    +0.060 C 
ATOM     14  C   UNL     1      33.258 -23.572 -15.709  0.00  0.00    +0.023 C 
ENDBRANCH   1   9
BRANCH   6  16
ATOM     15  O   UNL     1      41.004 -26.494 -13.856  0.00  0.00    -0.232 OA
ATOM     16  C   UNL     1      40.214 -25.917 -14.623  0.00  0.00    +0.416 C 
BRANCH  16  17
ATOM     17  O   UNL     1      40.444 -25.928 -15.975  0.00  0.00    -0.469 OA
ATOM     18  H   UNL     1      39.843 -26.363 -16.549  0.00  0.00    +0.296 HD
ENDBRANCH  16  17
ENDBRANCH   6  16
TORSDOF 3
ENDMDL
MODEL 7
REMARK VINA RESULT:      -8.0      7.347      8.917
REMARK  Name = 2763754
REMARK  3 active torsions:
REMARK  status: ('A' for Active; 'I' for Inactive)
REMARK    1  A    between atoms: N_1  and  C_9
REMARK    2  A    between atoms: C_6  and  C_16
REMARK    3  A    between atoms: C_16  and  O_17
REMARK                            x       y       z     vdW  Elec       q    Type
REMARK                         _______ _______ _______ _____ _____    ______ ____
ROOT
ATOM      1  N   UNL     1      35.561 -24.032 -14.269  0.00  0.00    -0.156 N 
ATOM      2  N   UNL     1      35.987 -23.153 -13.344  0.00  0.00    -0.100 NA
ATOM      3  N   UNL     1      37.387 -24.957 -13.481  0.00  0.00    -0.331 NA
ATOM      4  C   UNL     1      36.405 -25.102 -14.342  0.00  0.00    +0.195 C 
ATOM      5  C   UNL     1      36.202 -26.235 -15.266  0.00  0.00    +0.087 C 
ATOM      6  C   UNL     1      37.090 -23.758 -12.899  0.00  0.00    +0.181 C 
ENDROOT
BRANCH   1   9
ATOM      7 CL   UNL     1      30.461 -24.154 -14.498  0.00  0.00    -0.082 Cl
ATOM      8 CL   UNL     1      33.462 -22.480 -18.659  0.00  0.00    -0.082 Cl
ATOM      9  C   UNL     1      34.413 -23.803 -15.006  0.00  0.00    +0.079 C 
ATOM     10  C   UNL     1      34.506 -23.313 -16.308  0.00  0.00    +0.028 C 
ATOM     11  C   UNL     1      33.162 -24.063 -14.446  0.00  0.00    +0.028 C 
ATOM     12  C   UNL     1      32.003 -23.833 -15.189  0.00  0.00    +0.060 C 
ATOM     13  C   UNL     1      33.348 -23.083 -17.052  0.00  0.00    +0.060 C 
ATOM     14  C   UNL     1      32.097 -23.343 -16.492  0.00  0.00    +0.023 C 
ENDBRANCH   1   9
BRANCH   6  16
ATOM     15  O   UNL     1      39.123 -23.345 -11.698  0.00  0.00    -0.232 OA
ATOM     16  C   UNL     1      37.905 -23.177 -11.875  0.00  0.00    +0.416 C 
BRANCH  16  17
ATOM     17  O   UNL     1      37.198 -22.355 -11.035  0.00  0.00    -0.469 OA
ATOM     18  H   UNL     1      37.354 -21.430 -11.044  0.00  0.00    +0.296 HD
ENDBRANCH  16  17
ENDBRANCH   6  16
TORSDOF 3
ENDMDL
MODEL 8
REMARK VINA RESULT:      -8.0      7.339      9.037
REMARK  Name = 2763754
REMARK  3 active torsions:
REMARK  status: ('A' for Active; 'I' for Inactive)
REMARK    1  A    between atoms: N_1  and  C_9
REMARK    2  A    between atoms: C_6  and  C_16
REMARK    3  A    between atoms: C_16  and  O_17
REMARK                            x       y       z     vdW  Elec       q    Type
REMARK                         _______ _______ _______ _____ _____    ______ ____
ROOT
ATOM      1  N   UNL     1      35.567 -24.027 -14.278  0.00  0.00    -0.156 N 
ATOM      2  N   UNL     1      35.988 -23.151 -13.347  0.00  0.00    -0.100 NA
ATOM      3  N   UNL     1      37.395 -24.950 -13.489  0.00  0.00    -0.331 NA
ATOM      4  C   UNL     1      36.416 -25.094 -14.353  0.00  0.00    +0.195 C 
ATOM      5  C   UNL     1      36.219 -26.222 -15.283  0.00  0.00    +0.087 C 
ATOM      6  C   UNL     1      37.092 -23.755 -12.902  0.00  0.00    +0.181 C 
ENDROOT
BRANCH   1   9
ATOM      7 CL   UNL     1      33.482 -22.493 -18.679  0.00  0.00    -0.082 Cl
ATOM      8 CL   UNL     1      30.467 -24.126 -14.512  0.00  0.00    -0.082 Cl
ATOM      9  C   UNL     1      34.421 -23.798 -15.017  0.00  0.00    +0.079 C 
ATOM     10  C   UNL     1      33.169 -24.049 -14.457  0.00  0.00    +0.028 C 
ATOM     11  C   UNL     1      34.518 -23.317 -16.322  0.00  0.00    +0.028 C 
ATOM     12  C   UNL     1      33.362 -23.087 -17.069  0.00  0.00    +0.060 C 
ATOM     13  C   UNL     1      32.012 -23.818 -15.202  0.00  0.00    +0.060 C 
ATOM     14  C   UNL     1      32.109 -23.337 -16.508  0.00  0.00    +0.023 C 
ENDBRANCH   1   9
BRANCH   6  16
ATOM     15  O   UNL     1      39.120 -23.340 -11.693  0.00  0.00    -0.232 OA
ATOM     16  C   UNL     1      37.901 -23.175 -11.872  0.00  0.00    +0.416 C 
BRANCH  16  17
ATOM     17  O   UNL     1      37.189 -22.361 -11.029  0.00  0.00    -0.469 OA
ATOM     18  H   UNL     1      36.344 -22.045 -11.286  0.00  0.00    +0.296 HD
ENDBRANCH  16  17
ENDBRANCH   6  16
TORSDOF 3
ENDMDL
MODEL 9
REMARK VINA RESULT:      -8.0      5.206      6.978
REMARK  Name = 2763754
REMARK  3 active torsions:
REMARK  status: ('A' for Active; 'I' for Inactive)
REMARK    1  A    between atoms: N_1  and  C_9
REMARK    2  A    between atoms: C_6  and  C_16
REMARK    3  A    between atoms: C_16  and  O_17
REMARK                            x       y       z     vdW  Elec       q    Type
REMARK                         _______ _______ _______ _____ _____    ______ ____
ROOT
ATOM      1  N   UNL     1      33.620 -14.456 -24.356  0.00  0.00    -0.156 N 
ATOM      2  N   UNL     1      34.253 -15.364 -23.590  0.00  0.00    -0.100 NA
ATOM      3  N   UNL     1      33.791 -16.208 -25.667  0.00  0.00    -0.331 NA
ATOM      4  C   UNL     1      33.352 -14.972 -25.592  0.00  0.00    +0.195 C 
ATOM      5  C   UNL     1      32.664 -14.214 -26.656  0.00  0.00    +0.087 C 
ATOM      6  C   UNL     1      34.331 -16.401 -24.427  0.00  0.00    +0.181 C 
ENDROOT
BRANCH   1   9
ATOM      7 CL   UNL     1      34.610  -9.448 -24.440  0.00  0.00    -0.082 Cl
ATOM      8 CL   UNL     1      30.766 -11.541 -21.284  0.00  0.00    -0.082 Cl
ATOM      9  C   UNL     1      33.322 -13.193 -23.880  0.00  0.00    +0.079 C 
ATOM     10  C   UNL     1      32.312 -13.024 -22.934  0.00  0.00    +0.028 C 
ATOM     11  C   UNL     1      34.033 -12.087 -24.346  0.00  0.00    +0.028 C 
ATOM     12  C   UNL     1      33.733 -10.812 -23.866  0.00  0.00    +0.060 C 
ATOM     13  C   UNL     1      32.012 -11.750 -22.452  0.00  0.00    +0.060 C 
ATOM     14  C   UNL     1      32.722 -10.644 -22.919  0.00  0.00    +0.023 C 
ENDBRANCH   1   9
BRANCH   6  16
ATOM     15  O   UNL     1      34.608 -18.782 -24.378  0.00  0.00    -0.232 OA
ATOM     16  C   UNL     1      34.946 -17.635 -24.039  0.00  0.00    +0.416 C 
BRANCH  16  17
ATOM     17  O   UNL     1      36.018 -17.456 -23.202  0.00  0.00    -0.469 OA
ATOM     18  H   UNL     1      36.887 -17.619 -23.514  0.00  0.00    +0.296 HD
ENDBRANCH  16  17
ENDBRANCH   6  16
TORSDOF 3
ENDMDL
