MODEL 1
REMARK VINA RESULT:      -3.5      0.000      0.000
REMARK  Name = 8019
REMARK  3 active torsions:
REMARK  status: ('A' for Active; 'I' for Inactive)
REMARK    1  A    between atoms: C_1  and  O_2
REMARK    2  A    between atoms: C_1  and  C_4
REMARK    3  A    between atoms: C_4  and  O_5
REMARK                            x       y       z     vdW  Elec       q    Type
REMARK                         _______ _______ _______ _____ _____    ______ ____
ROOT
ATOM      1  C   UNL     1      38.915 -25.742 -14.193  0.00  0.00    +0.174 C 
ENDROOT
BRANCH   1   2
ATOM      2  O   UNL     1      38.371 -26.933 -14.749  0.00  0.00    -0.348 OA
ATOM      3  C   UNL     1      37.013 -26.755 -15.130  0.00  0.00    +0.174 C 
ENDBRANCH   1   2
BRANCH   1   4
ATOM      4  C   UNL     1      40.342 -25.576 -14.679  0.00  0.00    +0.169 C 
BRANCH   4   5
ATOM      5  O   UNL     1      40.415 -25.962 -16.046  0.00  0.00    -0.379 OA
ATOM      6  H   UNL     1      41.191 -26.528 -16.182  0.00  0.00    +0.211 HD
ENDBRANCH   4   5
ENDBRANCH   1   4
TORSDOF 3
ENDMDL
MODEL 2
REMARK VINA RESULT:      -3.4      1.185      2.908
REMARK  Name = 8019
REMARK  3 active torsions:
REMARK  status: ('A' for Active; 'I' for Inactive)
REMARK    1  A    between atoms: C_1  and  O_2
REMARK    2  A    between atoms: C_1  and  C_4
REMARK    3  A    between atoms: C_4  and  O_5
REMARK                            x       y       z     vdW  Elec       q    Type
REMARK                         _______ _______ _______ _____ _____    ______ ____
ROOT
ATOM      1  C   UNL     1      37.930 -25.806 -14.819  0.00  0.00    +0.174 C 
ENDROOT
BRANCH   1   2
ATOM      2  O   UNL     1      39.059 -26.663 -14.708  0.00  0.00    -0.348 OA
ATOM      3  C   UNL     1      40.268 -25.921 -14.617  0.00  0.00    +0.174 C 
ENDBRANCH   1   2
BRANCH   1   4
ATOM      4  C   UNL     1      36.703 -26.642 -15.135  0.00  0.00    +0.169 C 
BRANCH   4   5
ATOM      5  O   UNL     1      36.916 -27.335 -16.358  0.00  0.00    -0.379 OA
ATOM      6  H   UNL     1      37.419 -26.771 -16.966  0.00  0.00    +0.211 HD
ENDBRANCH   4   5
ENDBRANCH   1   4
TORSDOF 3
ENDMDL
MODEL 3
REMARK VINA RESULT:      -3.2     11.861     13.058
REMARK  Name = 8019
REMARK  3 active torsions:
REMARK  status: ('A' for Active; 'I' for Inactive)
REMARK    1  A    between atoms: C_1  and  O_2
REMARK    2  A    between atoms: C_1  and  C_4
REMARK    3  A    between atoms: C_4  and  O_5
REMARK                            x       y       z     vdW  Elec       q    Type
REMARK                         _______ _______ _______ _____ _____    ______ ____
ROOT
ATOM      1  C   UNL     1      27.171 -22.251 -17.492  0.00  0.00    +0.174 C 
ENDROOT
BRANCH   1   2
ATOM      2  O   UNL     1      28.253 -21.843 -16.664  0.00  0.00    -0.348 OA
ATOM      3  C   UNL     1      28.634 -22.872 -15.761  0.00  0.00    +0.174 C 
ENDBRANCH   1   2
BRANCH   1   4
ATOM      4  C   UNL     1      25.974 -21.362 -17.215  0.00  0.00    +0.169 C 
BRANCH   4   5
ATOM      5  O   UNL     1      26.056 -20.203 -18.036  0.00  0.00    -0.379 OA
ATOM      6  H   UNL     1      25.878 -20.447 -18.958  0.00  0.00    +0.211 HD
ENDBRANCH   4   5
ENDBRANCH   1   4
TORSDOF 3
ENDMDL
MODEL 4
REMARK VINA RESULT:      -3.2      1.738      1.862
REMARK  Name = 8019
REMARK  3 active torsions:
REMARK  status: ('A' for Active; 'I' for Inactive)
REMARK    1  A    between atoms: C_1  and  O_2
REMARK    2  A    between atoms: C_1  and  C_4
REMARK    3  A    between atoms: C_4  and  O_5
REMARK                            x       y       z     vdW  Elec       q    Type
REMARK                         _______ _______ _______ _____ _____    ______ ____
ROOT
ATOM      1  C   UNL     1      38.848 -25.505 -14.318  0.00  0.00    +0.174 C 
ENDROOT
BRANCH   1   2
ATOM      2  O   UNL     1      38.552 -24.114 -14.280  0.00  0.00    -0.348 OA
ATOM      3  C   UNL     1      37.483 -23.786 -15.157  0.00  0.00    +0.174 C 
ENDBRANCH   1   2
BRANCH   1   4
ATOM      4  C   UNL     1      40.311 -25.690 -14.674  0.00  0.00    +0.169 C 
BRANCH   4   5
ATOM      5  O   UNL     1      40.419 -25.964 -16.065  0.00  0.00    -0.379 OA
ATOM      6  H   UNL     1      40.611 -25.143 -16.543  0.00  0.00    +0.211 HD
ENDBRANCH   4   5
ENDBRANCH   1   4
TORSDOF 3
ENDMDL
MODEL 5
REMARK VINA RESULT:      -3.2      4.279      5.293
REMARK  Name = 8019
REMARK  3 active torsions:
REMARK  status: ('A' for Active; 'I' for Inactive)
REMARK    1  A    between atoms: C_1  and  O_2
REMARK    2  A    between atoms: C_1  and  C_4
REMARK    3  A    between atoms: C_4  and  O_5
REMARK                            x       y       z     vdW  Elec       q    Type
REMARK                         _______ _______ _______ _____ _____    ______ ____
ROOT
ATOM      1  C   UNL     1      36.749 -23.548 -11.460  0.00  0.00    +0.174 C 
ENDROOT
BRANCH   1   2
ATOM      2  O   UNL     1      37.896 -24.376 -11.307  0.00  0.00    -0.348 OA
ATOM      3  C   UNL     1      38.180 -25.096 -12.499  0.00  0.00    +0.174 C 
ENDBRANCH   1   2
BRANCH   1   4
ATOM      4  C   UNL     1      35.520 -24.426 -11.597  0.00  0.00    +0.169 C 
BRANCH   4   5
ATOM      5  O   UNL     1      35.286 -25.094 -10.363  0.00  0.00    -0.379 OA
ATOM      6  H   UNL     1      35.078 -24.441  -9.677  0.00  0.00    +0.211 HD
ENDBRANCH   4   5
ENDBRANCH   1   4
TORSDOF 3
ENDMDL
MODEL 6
REMARK VINA RESULT:      -3.2     10.572     11.446
REMARK  Name = 8019
REMARK  3 active torsions:
REMARK  status: ('A' for Active; 'I' for Inactive)
REMARK    1  A    between atoms: C_1  and  O_2
REMARK    2  A    between atoms: C_1  and  C_4
REMARK    3  A    between atoms: C_4  and  O_5
REMARK                            x       y       z     vdW  Elec       q    Type
REMARK                         _______ _______ _______ _____ _____    ______ ____
ROOT
ATOM      1  C   UNL     1      41.285 -16.138 -15.681  0.00  0.00    +0.174 C 
ENDROOT
BRANCH   1   2
ATOM      2  O   UNL     1      42.648 -16.410 -15.981  0.00  0.00    -0.348 OA
ATOM      3  C   UNL     1      43.138 -15.551 -17.002  0.00  0.00    +0.174 C 
ENDBRANCH   1   2
BRANCH   1   4
ATOM      4  C   UNL     1      41.104 -14.641 -15.513  0.00  0.00    +0.169 C 
BRANCH   4   5
ATOM      5  O   UNL     1      40.430 -14.390 -14.286  0.00  0.00    -0.379 OA
ATOM      6  H   UNL     1      40.383 -15.209 -13.769  0.00  0.00    +0.211 HD
ENDBRANCH   4   5
ENDBRANCH   1   4
TORSDOF 3
ENDMDL
MODEL 7
REMARK VINA RESULT:      -3.1      1.728      3.223
REMARK  Name = 8019
REMARK  3 active torsions:
REMARK  status: ('A' for Active; 'I' for Inactive)
REMARK    1  A    between atoms: C_1  and  O_2
REMARK    2  A    between atoms: C_1  and  C_4
REMARK    3  A    between atoms: C_4  and  O_5
REMARK                            x       y       z     vdW  Elec       q    Type
REMARK                         _______ _______ _______ _____ _____    ______ ____
ROOT
ATOM      1  C   UNL     1      37.560 -26.552 -14.318  0.00  0.00    +0.174 C 
ENDROOT
BRANCH   1   2
ATOM      2  O   UNL     1      38.912 -26.852 -14.642  0.00  0.00    -0.348 OA
ATOM      3  C   UNL     1      39.770 -25.757 -14.357  0.00  0.00    +0.174 C 
ENDBRANCH   1   2
BRANCH   1   4
ATOM      4  C   UNL     1      37.523 -25.775 -13.017  0.00  0.00    +0.169 C 
BRANCH   4   5
ATOM      5  O   UNL     1      36.855 -26.551 -12.030  0.00  0.00    -0.379 OA
ATOM      6  H   UNL     1      37.508 -26.939 -11.427  0.00  0.00    +0.211 HD
ENDBRANCH   4   5
ENDBRANCH   1   4
TORSDOF 3
ENDMDL
MODEL 8
REMARK VINA RESULT:      -3.1      3.918      4.181
REMARK  Name = 8019
REMARK  3 active torsions:
REMARK  status: ('A' for Active; 'I' for Inactive)
REMARK    1  A    between atoms: C_1  and  O_2
REMARK    2  A    between atoms: C_1  and  C_4
REMARK    3  A    between atoms: C_4  and  O_5
REMARK                            x       y       z     vdW  Elec       q    Type
REMARK                         _______ _______ _______ _____ _____    ______ ____
ROOT
ATOM      1  C   UNL     1      36.600 -24.216 -11.510  0.00  0.00    +0.174 C 
ENDROOT
BRANCH   1   2
ATOM      2  O   UNL     1      36.350 -25.605 -11.684  0.00  0.00    -0.348 OA
ATOM      3  C   UNL     1      37.228 -26.176 -12.646  0.00  0.00    +0.174 C 
ENDBRANCH   1   2
BRANCH   1   4
ATOM      4  C   UNL     1      37.983 -23.891 -12.041  0.00  0.00    +0.169 C 
BRANCH   4   5
ATOM      5  O   UNL     1      38.354 -22.589 -11.605  0.00  0.00    -0.379 OA
ATOM      6  H   UNL     1      37.795 -22.328 -10.856  0.00  0.00    +0.211 HD
ENDBRANCH   4   5
ENDBRANCH   1   4
TORSDOF 3
ENDMDL
MODEL 9
REMARK VINA RESULT:      -3.1     14.944     15.306
REMARK  Name = 8019
REMARK  3 active torsions:
REMARK  status: ('A' for Active; 'I' for Inactive)
REMARK    1  A    between atoms: C_1  and  O_2
REMARK    2  A    between atoms: C_1  and  C_4
REMARK    3  A    between atoms: C_4  and  O_5
REMARK                            x       y       z     vdW  Elec       q    Type
REMARK                         _______ _______ _______ _____ _____    ______ ____
ROOT
ATOM      1  C   UNL     1      34.124 -16.717 -25.247  0.00  0.00    +0.174 C 
ENDROOT
BRANCH   1   2
ATOM      2  O   UNL     1      33.894 -15.789 -26.300  0.00  0.00    -0.348 OA
ATOM      3  C   UNL     1      32.990 -14.766 -25.903  0.00  0.00    +0.174 C 
ENDBRANCH   1   2
BRANCH   1   4
ATOM      4  C   UNL     1      34.314 -15.957 -23.948  0.00  0.00    +0.169 C 
BRANCH   4   5
ATOM      5  O   UNL     1      35.670 -16.074 -23.536  0.00  0.00    -0.379 OA
ATOM      6  H   UNL     1      36.245 -16.087 -24.317  0.00  0.00    +0.211 HD
ENDBRANCH   4   5
ENDBRANCH   1   4
TORSDOF 3
ENDMDL
