MODEL 1
REMARK VINA RESULT:      -5.4      0.000      0.000
REMARK  Name = 19233
REMARK  8 active torsions:
REMARK  status: ('A' for Active; 'I' for Inactive)
REMARK    1  A    between atoms: C_1  and  O_2
REMARK    2  A    between atoms: C_1  and  C_4
REMARK    3  A    between atoms: C_1  and  C_11
REMARK    4  A    between atoms: C_4  and  O_5
REMARK    5  A    between atoms: C_4  and  C_7
REMARK    6  A    between atoms: C_7  and  O_9
REMARK    7  A    between atoms: C_11  and  O_12
REMARK    8  A    between atoms: C_11  and  C_15
REMARK                            x       y       z     vdW  Elec       q    Type
REMARK                         _______ _______ _______ _____ _____    ______ ____
ROOT
ATOM      1  C   UNL     1      37.146 -24.252 -12.969  0.00  0.00    +0.174 C 
ENDROOT
BRANCH   1   2
ATOM      2  O   UNL     1      35.811 -24.300 -13.475  0.00  0.00    -0.379 OA
ATOM      3  H   UNL     1      35.458 -23.399 -13.541  0.00  0.00    +0.211 HD
ENDBRANCH   1   2
BRANCH   1   4
ATOM      4  C   UNL     1      37.793 -25.649 -13.095  0.00  0.00    +0.167 C 
BRANCH   4   5
ATOM      5  O   UNL     1      36.857 -26.663 -12.722  0.00  0.00    -0.379 OA
ATOM      6  H   UNL     1      36.990 -26.898 -11.790  0.00  0.00    +0.211 HD
ENDBRANCH   4   5
BRANCH   4   7
ATOM      7  C   UNL     1      38.350 -26.010 -14.485  0.00  0.00    +0.140 C 
ATOM      8  C   UNL     1      39.630 -25.258 -14.824  0.00  0.00    +0.034 C 
BRANCH   7   9
ATOM      9  O   UNL     1      37.403 -25.743 -15.516  0.00  0.00    -0.382 OA
ATOM     10  H   UNL     1      37.010 -26.576 -15.817  0.00  0.00    +0.210 HD
ENDBRANCH   7   9
ENDBRANCH   4   7
ENDBRANCH   1   4
BRANCH   1  11
ATOM     11  C   UNL     1      37.123 -23.737 -11.519  0.00  0.00    +0.205 C 
BRANCH  11  12
ATOM     12  O   UNL     1      37.390 -22.349 -11.466  0.00  0.00    -0.375 OA
ATOM     13  H   UNL     1      36.556 -21.864 -11.360  0.00  0.00    +0.211 HD
ENDBRANCH  11  12
BRANCH  11  15
ATOM     14  O   UNL     1      35.354 -25.142 -10.633  0.00  0.00    -0.286 OA
ATOM     15  C   UNL     1      35.782 -24.018 -10.875  0.00  0.00    +0.239 C 
ENDBRANCH  11  15
ENDBRANCH   1  11
TORSDOF 8
ENDMDL
MODEL 2
REMARK VINA RESULT:      -5.4      1.359      2.081
REMARK  Name = 19233
REMARK  8 active torsions:
REMARK  status: ('A' for Active; 'I' for Inactive)
REMARK    1  A    between atoms: C_1  and  O_2
REMARK    2  A    between atoms: C_1  and  C_4
REMARK    3  A    between atoms: C_1  and  C_11
REMARK    4  A    between atoms: C_4  and  O_5
REMARK    5  A    between atoms: C_4  and  C_7
REMARK    6  A    between atoms: C_7  and  O_9
REMARK    7  A    between atoms: C_11  and  O_12
REMARK    8  A    between atoms: C_11  and  C_15
REMARK                            x       y       z     vdW  Elec       q    Type
REMARK                         _______ _______ _______ _____ _____    ______ ____
ROOT
ATOM      1  C   UNL     1      36.488 -25.510 -13.064  0.00  0.00    +0.174 C 
ENDROOT
BRANCH   1   2
ATOM      2  O   UNL     1      37.058 -26.288 -12.011  0.00  0.00    -0.379 OA
ATOM      3  H   UNL     1      36.999 -27.229 -12.237  0.00  0.00    +0.211 HD
ENDBRANCH   1   2
BRANCH   1   4
ATOM      4  C   UNL     1      37.618 -24.934 -13.946  0.00  0.00    +0.167 C 
BRANCH   4   5
ATOM      5  O   UNL     1      38.022 -23.653 -13.458  0.00  0.00    -0.379 OA
ATOM      6  H   UNL     1      38.366 -23.745 -12.555  0.00  0.00    +0.211 HD
ENDBRANCH   4   5
BRANCH   4   7
ATOM      7  C   UNL     1      38.879 -25.808 -14.080  0.00  0.00    +0.140 C 
ATOM      8  C   UNL     1      39.932 -25.195 -14.992  0.00  0.00    +0.034 C 
BRANCH   7   9
ATOM      9  O   UNL     1      38.569 -27.104 -14.583  0.00  0.00    -0.382 OA
ATOM     10  H   UNL     1      39.314 -27.702 -14.420  0.00  0.00    +0.210 HD
ENDBRANCH   7   9
ENDBRANCH   4   7
ENDBRANCH   1   4
BRANCH   1  11
ATOM     11  C   UNL     1      35.589 -24.415 -12.462  0.00  0.00    +0.205 C 
BRANCH  11  12
ATOM     12  O   UNL     1      34.224 -24.673 -12.726  0.00  0.00    -0.375 OA
ATOM     13  H   UNL     1      33.698 -24.466 -11.937  0.00  0.00    +0.211 HD
ENDBRANCH  11  12
BRANCH  11  15
ATOM     14  O   UNL     1      35.268 -25.049 -10.141  0.00  0.00    -0.286 OA
ATOM     15  C   UNL     1      35.803 -24.314 -10.966  0.00  0.00    +0.239 C 
ENDBRANCH  11  15
ENDBRANCH   1  11
TORSDOF 8
ENDMDL
MODEL 3
REMARK VINA RESULT:      -5.4      1.077      1.542
REMARK  Name = 19233
REMARK  8 active torsions:
REMARK  status: ('A' for Active; 'I' for Inactive)
REMARK    1  A    between atoms: C_1  and  O_2
REMARK    2  A    between atoms: C_1  and  C_4
REMARK    3  A    between atoms: C_1  and  C_11
REMARK    4  A    between atoms: C_4  and  O_5
REMARK    5  A    between atoms: C_4  and  C_7
REMARK    6  A    between atoms: C_7  and  O_9
REMARK    7  A    between atoms: C_11  and  O_12
REMARK    8  A    between atoms: C_11  and  C_15
REMARK                            x       y       z     vdW  Elec       q    Type
REMARK                         _______ _______ _______ _____ _____    ______ ____
ROOT
ATOM      1  C   UNL     1      36.249 -24.674 -13.595  0.00  0.00    +0.174 C 
ENDROOT
BRANCH   1   2
ATOM      2  O   UNL     1      35.256 -25.294 -14.413  0.00  0.00    -0.379 OA
ATOM      3  H   UNL     1      35.280 -24.903 -15.301  0.00  0.00    +0.211 HD
ENDBRANCH   1   2
BRANCH   1   4
ATOM      4  C   UNL     1      37.359 -25.700 -13.272  0.00  0.00    +0.167 C 
BRANCH   4   5
ATOM      5  O   UNL     1      36.790 -26.884 -12.712  0.00  0.00    -0.379 OA
ATOM      6  H   UNL     1      35.876 -26.706 -12.436  0.00  0.00    +0.211 HD
ENDBRANCH   4   5
BRANCH   4   7
ATOM      7  C   UNL     1      38.253 -26.119 -14.454  0.00  0.00    +0.140 C 
ATOM      8  C   UNL     1      39.344 -25.104 -14.762  0.00  0.00    +0.034 C 
BRANCH   7   9
ATOM      9  O   UNL     1      37.493 -26.315 -15.644  0.00  0.00    -0.382 OA
ATOM     10  H   UNL     1      37.838 -27.081 -16.125  0.00  0.00    +0.210 HD
ENDBRANCH   7   9
ENDBRANCH   4   7
ENDBRANCH   1   4
BRANCH   1  11
ATOM     11  C   UNL     1      35.586 -24.101 -12.331  0.00  0.00    +0.205 C 
BRANCH  11  12
ATOM     12  O   UNL     1      34.633 -25.002 -11.801  0.00  0.00    -0.375 OA
ATOM     13  H   UNL     1      34.688 -24.997 -10.832  0.00  0.00    +0.211 HD
ENDBRANCH  11  12
BRANCH  11  15
ATOM     14  O   UNL     1      36.448 -23.920 -10.070  0.00  0.00    -0.286 OA
ATOM     15  C   UNL     1      36.628 -23.790 -11.277  0.00  0.00    +0.239 C 
ENDBRANCH  11  15
ENDBRANCH   1  11
TORSDOF 8
ENDMDL
MODEL 4
REMARK VINA RESULT:      -5.3      1.531      4.391
REMARK  Name = 19233
REMARK  8 active torsions:
REMARK  status: ('A' for Active; 'I' for Inactive)
REMARK    1  A    between atoms: C_1  and  O_2
REMARK    2  A    between atoms: C_1  and  C_4
REMARK    3  A    between atoms: C_1  and  C_11
REMARK    4  A    between atoms: C_4  and  O_5
REMARK    5  A    between atoms: C_4  and  C_7
REMARK    6  A    between atoms: C_7  and  O_9
REMARK    7  A    between atoms: C_11  and  O_12
REMARK    8  A    between atoms: C_11  and  C_15
REMARK                            x       y       z     vdW  Elec       q    Type
REMARK                         _______ _______ _______ _____ _____    ______ ____
ROOT
ATOM      1  C   UNL     1      37.401 -25.791 -13.434  0.00  0.00    +0.174 C 
ENDROOT
BRANCH   1   2
ATOM      2  O   UNL     1      36.892 -26.864 -12.642  0.00  0.00    -0.379 OA
ATOM      3  H   UNL     1      36.986 -27.698 -13.129  0.00  0.00    +0.211 HD
ENDBRANCH   1   2
BRANCH   1   4
ATOM      4  C   UNL     1      36.227 -24.912 -13.922  0.00  0.00    +0.167 C 
BRANCH   4   5
ATOM      5  O   UNL     1      35.235 -25.720 -14.557  0.00  0.00    -0.379 OA
ATOM      6  H   UNL     1      35.566 -26.023 -15.418  0.00  0.00    +0.211 HD
ENDBRANCH   4   5
BRANCH   4   7
ATOM      7  C   UNL     1      35.526 -24.066 -12.842  0.00  0.00    +0.140 C 
ATOM      8  C   UNL     1      36.501 -23.273 -11.984  0.00  0.00    +0.034 C 
BRANCH   7   9
ATOM      9  O   UNL     1      34.738 -24.874 -11.971  0.00  0.00    -0.382 OA
ATOM     10  H   UNL     1      33.840 -24.950 -12.326  0.00  0.00    +0.210 HD
ENDBRANCH   7   9
ENDBRANCH   4   7
ENDBRANCH   1   4
BRANCH   1  11
ATOM     11  C   UNL     1      38.235 -26.362 -14.594  0.00  0.00    +0.205 C 
BRANCH  11  12
ATOM     12  O   UNL     1      37.502 -26.352 -15.804  0.00  0.00    -0.375 OA
ATOM     13  H   UNL     1      36.606 -26.687 -15.641  0.00  0.00    +0.211 HD
ENDBRANCH  11  12
BRANCH  11  15
ATOM     14  O   UNL     1      40.486 -25.963 -15.407  0.00  0.00    -0.286 OA
ATOM     15  C   UNL     1      39.513 -25.569 -14.772  0.00  0.00    +0.239 C 
ENDBRANCH  11  15
ENDBRANCH   1  11
TORSDOF 8
ENDMDL
MODEL 5
REMARK VINA RESULT:      -5.3      1.545      2.215
REMARK  Name = 19233
REMARK  8 active torsions:
REMARK  status: ('A' for Active; 'I' for Inactive)
REMARK    1  A    between atoms: C_1  and  O_2
REMARK    2  A    between atoms: C_1  and  C_4
REMARK    3  A    between atoms: C_1  and  C_11
REMARK    4  A    between atoms: C_4  and  O_5
REMARK    5  A    between atoms: C_4  and  C_7
REMARK    6  A    between atoms: C_7  and  O_9
REMARK    7  A    between atoms: C_11  and  O_12
REMARK    8  A    between atoms: C_11  and  C_15
REMARK                            x       y       z     vdW  Elec       q    Type
REMARK                         _______ _______ _______ _____ _____    ______ ____
ROOT
ATOM      1  C   UNL     1      38.203 -24.378 -11.996  0.00  0.00    +0.174 C 
ENDROOT
BRANCH   1   2
ATOM      2  O   UNL     1      38.349 -22.979 -11.751  0.00  0.00    -0.379 OA
ATOM      3  H   UNL     1      38.354 -22.818 -10.794  0.00  0.00    +0.211 HD
ENDBRANCH   1   2
BRANCH   1   4
ATOM      4  C   UNL     1      38.915 -24.744 -13.318  0.00  0.00    +0.167 C 
BRANCH   4   5
ATOM      5  O   UNL     1      39.345 -26.106 -13.288  0.00  0.00    -0.379 OA
ATOM      6  H   UNL     1      38.749 -26.621 -12.721  0.00  0.00    +0.211 HD
ENDBRANCH   4   5
BRANCH   4   7
ATOM      7  C   UNL     1      38.092 -24.537 -14.604  0.00  0.00    +0.140 C 
ATOM      8  C   UNL     1      37.581 -25.842 -15.198  0.00  0.00    +0.034 C 
BRANCH   7   9
ATOM      9  O   UNL     1      38.850 -23.869 -15.610  0.00  0.00    -0.382 OA
ATOM     10  H   UNL     1      38.270 -23.639 -16.352  0.00  0.00    +0.210 HD
ENDBRANCH   7   9
ENDBRANCH   4   7
ENDBRANCH   1   4
BRANCH   1  11
ATOM     11  C   UNL     1      36.709 -24.742 -12.007  0.00  0.00    +0.205 C 
BRANCH  11  12
ATOM     12  O   UNL     1      36.520 -26.134 -11.843  0.00  0.00    -0.375 OA
ATOM     13  H   UNL     1      35.582 -26.350 -11.963  0.00  0.00    +0.211 HD
ENDBRANCH  11  12
BRANCH  11  15
ATOM     14  O   UNL     1      36.196 -24.143  -9.712  0.00  0.00    -0.286 OA
ATOM     15  C   UNL     1      35.972 -24.001 -10.910  0.00  0.00    +0.239 C 
ENDBRANCH  11  15
ENDBRANCH   1  11
TORSDOF 8
ENDMDL
MODEL 6
REMARK VINA RESULT:      -5.3      1.728      4.442
REMARK  Name = 19233
REMARK  8 active torsions:
REMARK  status: ('A' for Active; 'I' for Inactive)
REMARK    1  A    between atoms: C_1  and  O_2
REMARK    2  A    between atoms: C_1  and  C_4
REMARK    3  A    between atoms: C_1  and  C_11
REMARK    4  A    between atoms: C_4  and  O_5
REMARK    5  A    between atoms: C_4  and  C_7
REMARK    6  A    between atoms: C_7  and  O_9
REMARK    7  A    between atoms: C_11  and  O_12
REMARK    8  A    between atoms: C_11  and  C_15
REMARK                            x       y       z     vdW  Elec       q    Type
REMARK                         _______ _______ _______ _____ _____    ______ ____
ROOT
ATOM      1  C   UNL     1      37.915 -24.532 -14.778  0.00  0.00    +0.174 C 
ENDROOT
BRANCH   1   2
ATOM      2  O   UNL     1      38.716 -23.768 -15.681  0.00  0.00    -0.379 OA
ATOM      3  H   UNL     1      38.545 -22.823 -15.542  0.00  0.00    +0.211 HD
ENDBRANCH   1   2
BRANCH   1   4
ATOM      4  C   UNL     1      37.359 -23.604 -13.674  0.00  0.00    +0.167 C 
BRANCH   4   5
ATOM      5  O   UNL     1      35.938 -23.508 -13.779  0.00  0.00    -0.379 OA
ATOM      6  H   UNL     1      35.705 -22.798 -14.399  0.00  0.00    +0.211 HD
ENDBRANCH   4   5
BRANCH   4   7
ATOM      7  C   UNL     1      37.700 -24.002 -12.226  0.00  0.00    +0.140 C 
ATOM      8  C   UNL     1      36.502 -23.923 -11.291  0.00  0.00    +0.034 C 
BRANCH   7   9
ATOM      9  O   UNL     1      38.730 -23.180 -11.684  0.00  0.00    -0.382 OA
ATOM     10  H   UNL     1      39.572 -23.388 -12.118  0.00  0.00    +0.210 HD
ENDBRANCH   7   9
ENDBRANCH   4   7
ENDBRANCH   1   4
BRANCH   1  11
ATOM     11  C   UNL     1      38.750 -25.693 -14.212  0.00  0.00    +0.205 C 
BRANCH  11  12
ATOM     12  O   UNL     1      38.243 -26.942 -14.640  0.00  0.00    -0.375 OA
ATOM     13  H   UNL     1      38.730 -27.657 -14.199  0.00  0.00    +0.211 HD
ENDBRANCH  11  12
BRANCH  11  15
ATOM     14  O   UNL     1      40.962 -24.695 -14.228  0.00  0.00    -0.286 OA
ATOM     15  C   UNL     1      40.198 -25.564 -14.637  0.00  0.00    +0.239 C 
ENDBRANCH  11  15
ENDBRANCH   1  11
TORSDOF 8
ENDMDL
MODEL 7
REMARK VINA RESULT:      -5.2      1.689      4.225
REMARK  Name = 19233
REMARK  8 active torsions:
REMARK  status: ('A' for Active; 'I' for Inactive)
REMARK    1  A    between atoms: C_1  and  O_2
REMARK    2  A    between atoms: C_1  and  C_4
REMARK    3  A    between atoms: C_1  and  C_11
REMARK    4  A    between atoms: C_4  and  O_5
REMARK    5  A    between atoms: C_4  and  C_7
REMARK    6  A    between atoms: C_7  and  O_9
REMARK    7  A    between atoms: C_11  and  O_12
REMARK    8  A    between atoms: C_11  and  C_15
REMARK                            x       y       z     vdW  Elec       q    Type
REMARK                         _______ _______ _______ _____ _____    ______ ____
ROOT
ATOM      1  C   UNL     1      37.608 -24.929 -13.622  0.00  0.00    +0.174 C 
ENDROOT
BRANCH   1   2
ATOM      2  O   UNL     1      38.819 -24.514 -12.990  0.00  0.00    -0.379 OA
ATOM      3  H   UNL     1      39.573 -24.740 -13.558  0.00  0.00    +0.211 HD
ENDBRANCH   1   2
BRANCH   1   4
ATOM      4  C   UNL     1      36.704 -25.634 -12.586  0.00  0.00    +0.167 C 
BRANCH   4   5
ATOM      5  O   UNL     1      37.473 -26.546 -11.799  0.00  0.00    -0.379 OA
ATOM      6  H   UNL     1      38.065 -26.049 -11.213  0.00  0.00    +0.211 HD
ENDBRANCH   4   5
BRANCH   4   7
ATOM      7  C   UNL     1      35.937 -24.709 -11.622  0.00  0.00    +0.140 C 
ATOM      8  C   UNL     1      35.108 -23.657 -12.344  0.00  0.00    +0.034 C 
BRANCH   7   9
ATOM      9  O   UNL     1      36.820 -24.032 -10.732  0.00  0.00    -0.382 OA
ATOM     10  H   UNL     1      37.329 -23.370 -11.223  0.00  0.00    +0.210 HD
ENDBRANCH   7   9
ENDBRANCH   4   7
ENDBRANCH   1   4
BRANCH   1  11
ATOM     11  C   UNL     1      37.942 -25.827 -14.826  0.00  0.00    +0.205 C 
BRANCH  11  12
ATOM     12  O   UNL     1      38.929 -26.783 -14.493  0.00  0.00    -0.375 OA
ATOM     13  H   UNL     1      38.696 -27.639 -14.886  0.00  0.00    +0.211 HD
ENDBRANCH  11  12
BRANCH  11  15
ATOM     14  O   UNL     1      36.691 -27.360 -16.232  0.00  0.00    -0.286 OA
ATOM     15  C   UNL     1      36.699 -26.538 -15.321  0.00  0.00    +0.239 C 
ENDBRANCH  11  15
ENDBRANCH   1  11
TORSDOF 8
ENDMDL
MODEL 8
REMARK VINA RESULT:      -5.2      1.650      4.141
REMARK  Name = 19233
REMARK  8 active torsions:
REMARK  status: ('A' for Active; 'I' for Inactive)
REMARK    1  A    between atoms: C_1  and  O_2
REMARK    2  A    between atoms: C_1  and  C_4
REMARK    3  A    between atoms: C_1  and  C_11
REMARK    4  A    between atoms: C_4  and  O_5
REMARK    5  A    between atoms: C_4  and  C_7
REMARK    6  A    between atoms: C_7  and  O_9
REMARK    7  A    between atoms: C_11  and  O_12
REMARK    8  A    between atoms: C_11  and  C_15
REMARK                            x       y       z     vdW  Elec       q    Type
REMARK                         _______ _______ _______ _____ _____    ______ ____
ROOT
ATOM      1  C   UNL     1      36.704 -25.346 -13.188  0.00  0.00    +0.174 C 
ENDROOT
BRANCH   1   2
ATOM      2  O   UNL     1      36.818 -26.462 -12.303  0.00  0.00    -0.379 OA
ATOM      3  H   UNL     1      36.278 -27.195 -12.637  0.00  0.00    +0.211 HD
ENDBRANCH   1   2
BRANCH   1   4
ATOM      4  C   UNL     1      35.732 -24.309 -12.582  0.00  0.00    +0.167 C 
BRANCH   4   5
ATOM      5  O   UNL     1      34.570 -24.962 -12.069  0.00  0.00    -0.379 OA
ATOM      6  H   UNL     1      34.731 -25.918 -12.017  0.00  0.00    +0.211 HD
ENDBRANCH   4   5
BRANCH   4   7
ATOM      7  C   UNL     1      36.308 -23.420 -11.463  0.00  0.00    +0.140 C 
ATOM      8  C   UNL     1      37.676 -22.848 -11.805  0.00  0.00    +0.034 C 
BRANCH   7   9
ATOM      9  O   UNL     1      36.429 -24.134 -10.236  0.00  0.00    -0.382 OA
ATOM     10  H   UNL     1      35.582 -24.113  -9.765  0.00  0.00    +0.210 HD
ENDBRANCH   7   9
ENDBRANCH   4   7
ENDBRANCH   1   4
BRANCH   1  11
ATOM     11  C   UNL     1      36.258 -25.838 -14.575  0.00  0.00    +0.205 C 
BRANCH  11  12
ATOM     12  O   UNL     1      36.159 -24.764 -15.491  0.00  0.00    -0.375 OA
ATOM     13  H   UNL     1      35.226 -24.532 -15.618  0.00  0.00    +0.211 HD
ENDBRANCH  11  12
BRANCH  11  15
ATOM     14  O   UNL     1      38.351 -27.065 -14.656  0.00  0.00    -0.286 OA
ATOM     15  C   UNL     1      37.228 -26.870 -15.112  0.00  0.00    +0.239 C 
ENDBRANCH  11  15
ENDBRANCH   1  11
TORSDOF 8
ENDMDL
MODEL 9
REMARK VINA RESULT:      -5.1     11.277     12.491
REMARK  Name = 19233
REMARK  8 active torsions:
REMARK  status: ('A' for Active; 'I' for Inactive)
REMARK    1  A    between atoms: C_1  and  O_2
REMARK    2  A    between atoms: C_1  and  C_4
REMARK    3  A    between atoms: C_1  and  C_11
REMARK    4  A    between atoms: C_4  and  O_5
REMARK    5  A    between atoms: C_4  and  C_7
REMARK    6  A    between atoms: C_7  and  O_9
REMARK    7  A    between atoms: C_11  and  O_12
REMARK    8  A    between atoms: C_11  and  C_15
REMARK                            x       y       z     vdW  Elec       q    Type
REMARK                         _______ _______ _______ _____ _____    ______ ____
ROOT
ATOM      1  C   UNL     1      35.604 -18.306 -23.121  0.00  0.00    +0.174 C 
ENDROOT
BRANCH   1   2
ATOM      2  O   UNL     1      34.979 -19.425 -23.751  0.00  0.00    -0.379 OA
ATOM      3  H   UNL     1      34.730 -19.187 -24.658  0.00  0.00    +0.211 HD
ENDBRANCH   1   2
BRANCH   1   4
ATOM      4  C   UNL     1      35.725 -18.573 -21.604  0.00  0.00    +0.167 C 
BRANCH   4   5
ATOM      5  O   UNL     1      35.176 -17.481 -20.864  0.00  0.00    -0.379 OA
ATOM      6  H   UNL     1      35.635 -16.661 -21.107  0.00  0.00    +0.211 HD
ENDBRANCH   4   5
BRANCH   4   7
ATOM      7  C   UNL     1      35.065 -19.868 -21.094  0.00  0.00    +0.140 C 
ATOM      8  C   UNL     1      33.587 -19.693 -20.772  0.00  0.00    +0.034 C 
BRANCH   7   9
ATOM      9  O   UNL     1      35.710 -20.360 -19.922  0.00  0.00    -0.382 OA
ATOM     10  H   UNL     1      35.839 -21.317 -20.003  0.00  0.00    +0.210 HD
ENDBRANCH   7   9
ENDBRANCH   4   7
ENDBRANCH   1   4
BRANCH   1  11
ATOM     11  C   UNL     1      34.803 -17.030 -23.436  0.00  0.00    +0.205 C 
BRANCH  11  12
ATOM     12  O   UNL     1      35.614 -15.877 -23.318  0.00  0.00    -0.375 OA
ATOM     13  H   UNL     1      36.037 -15.690 -24.171  0.00  0.00    +0.211 HD
ENDBRANCH  11  12
BRANCH  11  15
ATOM     14  O   UNL     1      34.897 -17.159 -25.858  0.00  0.00    -0.286 OA
ATOM     15  C   UNL     1      34.223 -17.097 -24.834  0.00  0.00    +0.239 C 
ENDBRANCH  11  15
ENDBRANCH   1  11
TORSDOF 8
ENDMDL
