MODEL 1
REMARK VINA RESULT:      -7.0      0.000      0.000
REMARK  Name = 445905
REMARK  5 active torsions:
REMARK  status: ('A' for Active; 'I' for Inactive)
REMARK    1  A    between atoms: C_2  and  O_7
REMARK    2  A    between atoms: C_3  and  O_9
REMARK    3  A    between atoms: C_3  and  C_14
REMARK    4  A    between atoms: C_4  and  O_11
REMARK    5  A    between atoms: C_14  and  O_15
REMARK                            x       y       z     vdW  Elec       q    Type
REMARK                         _______ _______ _______ _____ _____    ______ ____
ROOT
ATOM      1  C   UNL     1      38.177 -25.659 -13.224  0.00  0.00    +0.074 C 
ATOM      2  C   UNL     1      36.743 -25.259 -12.867  0.00  0.00    +0.145 C 
ATOM      3  C   UNL     1      38.505 -25.319 -14.682  0.00  0.00    +0.198 C 
ATOM      4  C   UNL     1      36.510 -23.761 -13.104  0.00  0.00    +0.159 C 
ATOM      5  C   UNL     1      37.983 -23.978 -15.114  0.00  0.00    +0.009 C 
ATOM      6  C   UNL     1      37.105 -23.268 -14.391  0.00  0.00    +0.003 C 
ENDROOT
BRANCH   2   7
ATOM      7  O   UNL     1      36.508 -25.539 -11.488  0.00  0.00    -0.382 OA
ATOM      8  H   UNL     1      36.001 -24.813 -11.093  0.00  0.00    +0.210 HD
ENDBRANCH   2   7
BRANCH   3   9
ATOM      9  O   UNL     1      37.983 -26.335 -15.527  0.00  0.00    -0.373 OA
ATOM     10  H   UNL     1      37.928 -27.168 -15.035  0.00  0.00    +0.211 HD
ENDBRANCH   3   9
BRANCH   4  11
ATOM     11  O   UNL     1      35.099 -23.538 -13.121  0.00  0.00    -0.378 OA
ATOM     12  H   UNL     1      34.772 -23.469 -12.211  0.00  0.00    +0.211 HD
ENDBRANCH   4  11
BRANCH   3  14
ATOM     13  O   UNL     1      40.802 -24.810 -14.115  0.00  0.00    -0.247 OA
ATOM     14  C   UNL     1      39.993 -25.310 -14.883  0.00  0.00    +0.342 C 
BRANCH  14  15
ATOM     15  O   UNL     1      40.324 -25.932 -16.041  0.00  0.00    -0.478 OA
ATOM     16  H   UNL     1      41.043 -25.619 -16.553  0.00  0.00    +0.295 HD
ENDBRANCH  14  15
ENDBRANCH   3  14
TORSDOF 5
ENDMDL
MODEL 2
REMARK VINA RESULT:      -7.0      2.088      4.373
REMARK  Name = 445905
REMARK  5 active torsions:
REMARK  status: ('A' for Active; 'I' for Inactive)
REMARK    1  A    between atoms: C_2  and  O_7
REMARK    2  A    between atoms: C_3  and  O_9
REMARK    3  A    between atoms: C_3  and  C_14
REMARK    4  A    between atoms: C_4  and  O_11
REMARK    5  A    between atoms: C_14  and  O_15
REMARK                            x       y       z     vdW  Elec       q    Type
REMARK                         _______ _______ _______ _____ _____    ______ ____
ROOT
ATOM      1  C   UNL     1      36.159 -23.742 -13.545  0.00  0.00    +0.074 C 
ATOM      2  C   UNL     1      36.147 -24.634 -14.789  0.00  0.00    +0.145 C 
ATOM      3  C   UNL     1      36.211 -24.576 -12.260  0.00  0.00    +0.198 C 
ATOM      4  C   UNL     1      37.379 -25.549 -14.827  0.00  0.00    +0.159 C 
ATOM      5  C   UNL     1      37.157 -25.740 -12.342  0.00  0.00    +0.009 C 
ATOM      6  C   UNL     1      37.700 -26.161 -13.494  0.00  0.00    +0.003 C 
ENDROOT
BRANCH   2   7
ATOM      7  O   UNL     1      36.160 -23.812 -15.955  0.00  0.00    -0.382 OA
ATOM      8  H   UNL     1      35.665 -22.996 -15.781  0.00  0.00    +0.210 HD
ENDBRANCH   2   7
BRANCH   3   9
ATOM      9  O   UNL     1      34.904 -25.037 -11.949  0.00  0.00    -0.373 OA
ATOM     10  H   UNL     1      34.249 -24.469 -12.383  0.00  0.00    +0.211 HD
ENDBRANCH   3   9
BRANCH   4  11
ATOM     11  O   UNL     1      37.119 -26.587 -15.772  0.00  0.00    -0.378 OA
ATOM     12  H   UNL     1      36.188 -26.852 -15.713  0.00  0.00    +0.211 HD
ENDBRANCH   4  11
BRANCH   3  14
ATOM     13  O   UNL     1      37.387 -22.743 -11.202  0.00  0.00    -0.247 OA
ATOM     14  C   UNL     1      36.654 -23.716 -11.110  0.00  0.00    +0.342 C 
BRANCH  14  15
ATOM     15  O   UNL     1      36.128 -24.169  -9.945  0.00  0.00    -0.478 OA
ATOM     16  H   UNL     1      36.683 -24.569  -9.305  0.00  0.00    +0.295 HD
ENDBRANCH  14  15
ENDBRANCH   3  14
TORSDOF 5
ENDMDL
MODEL 3
REMARK VINA RESULT:      -6.9      1.706      4.278
REMARK  Name = 445905
REMARK  5 active torsions:
REMARK  status: ('A' for Active; 'I' for Inactive)
REMARK    1  A    between atoms: C_2  and  O_7
REMARK    2  A    between atoms: C_3  and  O_9
REMARK    3  A    between atoms: C_3  and  C_14
REMARK    4  A    between atoms: C_4  and  O_11
REMARK    5  A    between atoms: C_14  and  O_15
REMARK                            x       y       z     vdW  Elec       q    Type
REMARK                         _______ _______ _______ _____ _____    ______ ____
ROOT
ATOM      1  C   UNL     1      37.910 -25.197 -12.229  0.00  0.00    +0.074 C 
ATOM      2  C   UNL     1      38.807 -24.923 -13.438  0.00  0.00    +0.145 C 
ATOM      3  C   UNL     1      37.012 -23.994 -11.917  0.00  0.00    +0.198 C 
ATOM      4  C   UNL     1      37.975 -24.575 -14.679  0.00  0.00    +0.159 C 
ATOM      5  C   UNL     1      36.425 -23.353 -13.142  0.00  0.00    +0.009 C 
ATOM      6  C   UNL     1      36.843 -23.633 -14.385  0.00  0.00    +0.003 C 
ENDROOT
BRANCH   2   7
ATOM      7  O   UNL     1      39.576 -26.090 -13.724  0.00  0.00    -0.382 OA
ATOM      8  H   UNL     1      39.679 -26.616 -12.915  0.00  0.00    +0.210 HD
ENDBRANCH   2   7
BRANCH   3   9
ATOM      9  O   UNL     1      37.756 -23.034 -11.180  0.00  0.00    -0.373 OA
ATOM     10  H   UNL     1      37.336 -22.892 -10.318  0.00  0.00    +0.211 HD
ENDBRANCH   3   9
BRANCH   4  11
ATOM     11  O   UNL     1      38.851 -23.974 -15.634  0.00  0.00    -0.378 OA
ATOM     12  H   UNL     1      39.720 -23.829 -15.229  0.00  0.00    +0.211 HD
ENDBRANCH   4  11
BRANCH   3  14
ATOM     13  O   UNL     1      35.839 -24.317  -9.824  0.00  0.00    -0.247 OA
ATOM     14  C   UNL     1      35.869 -24.422 -11.041  0.00  0.00    +0.342 C 
BRANCH  14  15
ATOM     15  O   UNL     1      34.866 -24.949 -11.787  0.00  0.00    -0.478 OA
ATOM     16  H   UNL     1      34.006 -25.032 -11.424  0.00  0.00    +0.295 HD
ENDBRANCH  14  15
ENDBRANCH   3  14
TORSDOF 5
ENDMDL
MODEL 4
REMARK VINA RESULT:      -6.8      1.927      2.741
REMARK  Name = 445905
REMARK  5 active torsions:
REMARK  status: ('A' for Active; 'I' for Inactive)
REMARK    1  A    between atoms: C_2  and  O_7
REMARK    2  A    between atoms: C_3  and  O_9
REMARK    3  A    between atoms: C_3  and  C_14
REMARK    4  A    between atoms: C_4  and  O_11
REMARK    5  A    between atoms: C_14  and  O_15
REMARK                            x       y       z     vdW  Elec       q    Type
REMARK                         _______ _______ _______ _____ _____    ______ ____
ROOT
ATOM      1  C   UNL     1      35.824 -24.825 -13.760  0.00  0.00    +0.074 C 
ATOM      2  C   UNL     1      35.914 -23.610 -12.834  0.00  0.00    +0.145 C 
ATOM      3  C   UNL     1      37.140 -25.052 -14.513  0.00  0.00    +0.198 C 
ATOM      4  C   UNL     1      37.058 -23.767 -11.822  0.00  0.00    +0.159 C 
ATOM      5  C   UNL     1      38.359 -24.867 -13.654  0.00  0.00    +0.009 C 
ATOM      6  C   UNL     1      38.316 -24.311 -12.435  0.00  0.00    +0.003 C 
ENDROOT
BRANCH   2   7
ATOM      7  O   UNL     1      34.690 -23.478 -12.113  0.00  0.00    -0.382 OA
ATOM      8  H   UNL     1      34.070 -24.166 -12.402  0.00  0.00    +0.210 HD
ENDBRANCH   2   7
BRANCH   3   9
ATOM      9  O   UNL     1      37.198 -24.174 -15.628  0.00  0.00    -0.373 OA
ATOM     10  H   UNL     1      37.770 -24.556 -16.311  0.00  0.00    +0.211 HD
ENDBRANCH   3   9
BRANCH   4  11
ATOM     11  O   UNL     1      37.324 -22.479 -11.265  0.00  0.00    -0.378 OA
ATOM     12  H   UNL     1      36.511 -21.950 -11.273  0.00  0.00    +0.211 HD
ENDBRANCH   4  11
BRANCH   3  14
ATOM     13  O   UNL     1      36.354 -26.934 -15.817  0.00  0.00    -0.247 OA
ATOM     14  C   UNL     1      37.182 -26.451 -15.059  0.00  0.00    +0.342 C 
BRANCH  14  15
ATOM     15  O   UNL     1      38.269 -27.114 -14.594  0.00  0.00    -0.478 OA
ATOM     16  H   UNL     1      38.205 -28.021 -14.369  0.00  0.00    +0.295 HD
ENDBRANCH  14  15
ENDBRANCH   3  14
TORSDOF 5
ENDMDL
MODEL 5
REMARK VINA RESULT:      -6.5      1.480      4.372
REMARK  Name = 445905
REMARK  5 active torsions:
REMARK  status: ('A' for Active; 'I' for Inactive)
REMARK    1  A    between atoms: C_2  and  O_7
REMARK    2  A    between atoms: C_3  and  O_9
REMARK    3  A    between atoms: C_3  and  C_14
REMARK    4  A    between atoms: C_4  and  O_11
REMARK    5  A    between atoms: C_14  and  O_15
REMARK                            x       y       z     vdW  Elec       q    Type
REMARK                         _______ _______ _______ _____ _____    ______ ____
ROOT
ATOM      1  C   UNL     1      36.554 -25.908 -13.913  0.00  0.00    +0.074 C 
ATOM      2  C   UNL     1      37.698 -26.607 -14.651  0.00  0.00    +0.145 C 
ATOM      3  C   UNL     1      36.961 -25.528 -12.485  0.00  0.00    +0.198 C 
ATOM      4  C   UNL     1      38.951 -25.722 -14.698  0.00  0.00    +0.159 C 
ATOM      5  C   UNL     1      38.352 -24.969 -12.388  0.00  0.00    +0.009 C 
ATOM      6  C   UNL     1      39.238 -25.036 -13.393  0.00  0.00    +0.003 C 
ENDROOT
BRANCH   2   7
ATOM      7  O   UNL     1      37.292 -26.884 -15.990  0.00  0.00    -0.382 OA
ATOM      8  H   UNL     1      37.843 -27.594 -16.355  0.00  0.00    +0.210 HD
ENDBRANCH   2   7
BRANCH   3   9
ATOM      9  O   UNL     1      36.840 -26.668 -11.646  0.00  0.00    -0.373 OA
ATOM     10  H   UNL     1      35.904 -26.900 -11.548  0.00  0.00    +0.211 HD
ENDBRANCH   3   9
BRANCH   4  11
ATOM     11  O   UNL     1      40.058 -26.555 -15.045  0.00  0.00    -0.378 OA
ATOM     12  H   UNL     1      40.327 -27.074 -14.271  0.00  0.00    +0.211 HD
ENDBRANCH   4  11
BRANCH   3  14
ATOM     13  O   UNL     1      35.853 -23.377 -12.420  0.00  0.00    -0.247 OA
ATOM     14  C   UNL     1      36.020 -24.489 -11.944  0.00  0.00    +0.342 C 
BRANCH  14  15
ATOM     15  O   UNL     1      35.376 -24.954 -10.845  0.00  0.00    -0.478 OA
ATOM     16  H   UNL     1      35.007 -24.352 -10.229  0.00  0.00    +0.295 HD
ENDBRANCH  14  15
ENDBRANCH   3  14
TORSDOF 5
ENDMDL
MODEL 6
REMARK VINA RESULT:      -6.5      1.836      3.806
REMARK  Name = 445905
REMARK  5 active torsions:
REMARK  status: ('A' for Active; 'I' for Inactive)
REMARK    1  A    between atoms: C_2  and  O_7
REMARK    2  A    between atoms: C_3  and  O_9
REMARK    3  A    between atoms: C_3  and  C_14
REMARK    4  A    between atoms: C_4  and  O_11
REMARK    5  A    between atoms: C_14  and  O_15
REMARK                            x       y       z     vdW  Elec       q    Type
REMARK                         _______ _______ _______ _____ _____    ______ ____
ROOT
ATOM      1  C   UNL     1      38.435 -24.939 -13.623  0.00  0.00    +0.074 C 
ATOM      2  C   UNL     1      38.367 -25.903 -14.809  0.00  0.00    +0.145 C 
ATOM      3  C   UNL     1      37.358 -23.852 -13.724  0.00  0.00    +0.198 C 
ATOM      4  C   UNL     1      36.986 -26.565 -14.907  0.00  0.00    +0.159 C 
ATOM      5  C   UNL     1      36.024 -24.374 -14.175  0.00  0.00    +0.009 C 
ATOM      6  C   UNL     1      35.854 -25.603 -14.684  0.00  0.00    +0.003 C 
ENDROOT
BRANCH   2   7
ATOM      7  O   UNL     1      39.345 -26.927 -14.637  0.00  0.00    -0.382 OA
ATOM      8  H   UNL     1      39.162 -27.655 -15.252  0.00  0.00    +0.210 HD
ENDBRANCH   2   7
BRANCH   3   9
ATOM      9  O   UNL     1      37.803 -22.835 -14.610  0.00  0.00    -0.373 OA
ATOM     10  H   UNL     1      37.599 -23.090 -15.523  0.00  0.00    +0.211 HD
ENDBRANCH   3   9
BRANCH   4  11
ATOM     11  O   UNL     1      36.869 -27.135 -16.212  0.00  0.00    -0.378 OA
ATOM     12  H   UNL     1      35.932 -27.185 -16.459  0.00  0.00    +0.211 HD
ENDBRANCH   4  11
BRANCH   3  14
ATOM     13  O   UNL     1      38.052 -22.760 -11.678  0.00  0.00    -0.247 OA
ATOM     14  C   UNL     1      37.159 -23.203 -12.384  0.00  0.00    +0.342 C 
BRANCH  14  15
ATOM     15  O   UNL     1      35.844 -23.177 -12.056  0.00  0.00    -0.478 OA
ATOM     16  H   UNL     1      35.275 -23.865 -12.341  0.00  0.00    +0.295 HD
ENDBRANCH  14  15
ENDBRANCH   3  14
TORSDOF 5
ENDMDL
MODEL 7
REMARK VINA RESULT:      -6.4      2.078      3.036
REMARK  Name = 445905
REMARK  5 active torsions:
REMARK  status: ('A' for Active; 'I' for Inactive)
REMARK    1  A    between atoms: C_2  and  O_7
REMARK    2  A    between atoms: C_3  and  O_9
REMARK    3  A    between atoms: C_3  and  C_14
REMARK    4  A    between atoms: C_4  and  O_11
REMARK    5  A    between atoms: C_14  and  O_15
REMARK                            x       y       z     vdW  Elec       q    Type
REMARK                         _______ _______ _______ _____ _____    ______ ____
ROOT
ATOM      1  C   UNL     1      38.110 -24.707 -13.268  0.00  0.00    +0.074 C 
ATOM      2  C   UNL     1      38.130 -24.080 -11.873  0.00  0.00    +0.145 C 
ATOM      3  C   UNL     1      36.806 -25.474 -13.518  0.00  0.00    +0.198 C 
ATOM      4  C   UNL     1      36.939 -23.133 -11.674  0.00  0.00    +0.159 C 
ATOM      5  C   UNL     1      35.587 -24.756 -13.014  0.00  0.00    +0.009 C 
ATOM      6  C   UNL     1      35.649 -23.689 -12.204  0.00  0.00    +0.003 C 
ENDROOT
BRANCH   2   7
ATOM      7  O   UNL     1      39.333 -23.329 -11.714  0.00  0.00    -0.382 OA
ATOM      8  H   UNL     1      39.624 -23.378 -10.789  0.00  0.00    +0.210 HD
ENDBRANCH   2   7
BRANCH   3   9
ATOM      9  O   UNL     1      36.896 -26.756 -12.913  0.00  0.00    -0.373 OA
ATOM     10  H   UNL     1      36.498 -26.725 -12.029  0.00  0.00    +0.211 HD
ENDBRANCH   3   9
BRANCH   4  11
ATOM     11  O   UNL     1      36.806 -22.891 -10.273  0.00  0.00    -0.378 OA
ATOM     12  H   UNL     1      36.613 -23.726  -9.817  0.00  0.00    +0.211 HD
ENDBRANCH   4  11
BRANCH   3  14
ATOM     13  O   UNL     1      35.687 -25.271 -15.655  0.00  0.00    -0.247 OA
ATOM     14  C   UNL     1      36.619 -25.700 -14.991  0.00  0.00    +0.342 C 
BRANCH  14  15
ATOM     15  O   UNL     1      37.630 -26.453 -15.491  0.00  0.00    -0.478 OA
ATOM     16  H   UNL     1      38.404 -26.596 -14.983  0.00  0.00    +0.295 HD
ENDBRANCH  14  15
ENDBRANCH   3  14
TORSDOF 5
ENDMDL
MODEL 8
REMARK VINA RESULT:      -6.3      8.354      9.423
REMARK  Name = 445905
REMARK  5 active torsions:
REMARK  status: ('A' for Active; 'I' for Inactive)
REMARK    1  A    between atoms: C_2  and  O_7
REMARK    2  A    between atoms: C_3  and  O_9
REMARK    3  A    between atoms: C_3  and  C_14
REMARK    4  A    between atoms: C_4  and  O_11
REMARK    5  A    between atoms: C_14  and  O_15
REMARK                            x       y       z     vdW  Elec       q    Type
REMARK                         _______ _______ _______ _____ _____    ______ ____
ROOT
ATOM      1  C   UNL     1      35.780 -20.063 -20.487  0.00  0.00    +0.074 C 
ATOM      2  C   UNL     1      35.087 -21.387 -20.156  0.00  0.00    +0.145 C 
ATOM      3  C   UNL     1      34.952 -19.229 -21.471  0.00  0.00    +0.198 C 
ATOM      4  C   UNL     1      33.689 -21.150 -19.570  0.00  0.00    +0.159 C 
ATOM      5  C   UNL     1      33.481 -19.237 -21.168  0.00  0.00    +0.009 C 
ATOM      6  C   UNL     1      32.918 -20.085 -20.295  0.00  0.00    +0.003 C 
ENDROOT
BRANCH   2   7
ATOM      7  O   UNL     1      35.865 -22.096 -19.194  0.00  0.00    -0.382 OA
ATOM      8  H   UNL     1      36.027 -21.525 -18.426  0.00  0.00    +0.210 HD
ENDBRANCH   2   7
BRANCH   3   9
ATOM      9  O   UNL     1      35.175 -19.706 -22.790  0.00  0.00    -0.373 OA
ATOM     10  H   UNL     1      35.169 -18.960 -23.409  0.00  0.00    +0.211 HD
ENDBRANCH   3   9
BRANCH   4  11
ATOM     11  O   UNL     1      32.972 -22.383 -19.643  0.00  0.00    -0.378 OA
ATOM     12  H   UNL     1      32.022 -22.200 -19.713  0.00  0.00    +0.211 HD
ENDBRANCH   4  11
BRANCH   3  14
ATOM     13  O   UNL     1      35.316 -17.051 -20.481  0.00  0.00    -0.247 OA
ATOM     14  C   UNL     1      35.411 -17.799 -21.442  0.00  0.00    +0.342 C 
BRANCH  14  15
ATOM     15  O   UNL     1      35.946 -17.445 -22.636  0.00  0.00    -0.478 OA
ATOM     16  H   UNL     1      36.869 -17.302 -22.712  0.00  0.00    +0.295 HD
ENDBRANCH  14  15
ENDBRANCH   3  14
TORSDOF 5
ENDMDL
MODEL 9
REMARK VINA RESULT:      -6.1      8.443      9.624
REMARK  Name = 445905
REMARK  5 active torsions:
REMARK  status: ('A' for Active; 'I' for Inactive)
REMARK    1  A    between atoms: C_2  and  O_7
REMARK    2  A    between atoms: C_3  and  O_9
REMARK    3  A    between atoms: C_3  and  C_14
REMARK    4  A    between atoms: C_4  and  O_11
REMARK    5  A    between atoms: C_14  and  O_15
REMARK                            x       y       z     vdW  Elec       q    Type
REMARK                         _______ _______ _______ _____ _____    ______ ____
ROOT
ATOM      1  C   UNL     1      33.929 -19.903 -21.330  0.00  0.00    +0.074 C 
ATOM      2  C   UNL     1      33.897 -20.667 -20.004  0.00  0.00    +0.145 C 
ATOM      3  C   UNL     1      35.124 -18.945 -21.393  0.00  0.00    +0.198 C 
ATOM      4  C   UNL     1      35.194 -21.458 -19.788  0.00  0.00    +0.159 C 
ATOM      5  C   UNL     1      36.393 -19.537 -20.851  0.00  0.00    +0.009 C 
ATOM      6  C   UNL     1      36.426 -20.680 -20.150  0.00  0.00    +0.003 C 
ENDROOT
BRANCH   2   7
ATOM      7  O   UNL     1      32.806 -21.586 -20.020  0.00  0.00    -0.382 OA
ATOM      8  H   UNL     1      32.936 -22.253 -19.327  0.00  0.00    +0.210 HD
ENDBRANCH   2   7
BRANCH   3   9
ATOM      9  O   UNL     1      34.806 -17.755 -20.685  0.00  0.00    -0.373 OA
ATOM     10  H   UNL     1      34.199 -17.216 -21.214  0.00  0.00    +0.211 HD
ENDBRANCH   3   9
BRANCH   4  11
ATOM     11  O   UNL     1      35.256 -21.822 -18.408  0.00  0.00    -0.378 OA
ATOM     12  H   UNL     1      35.643 -22.707 -18.325  0.00  0.00    +0.211 HD
ENDBRANCH   4  11
BRANCH   3  14
ATOM     13  O   UNL     1      35.072 -19.202 -23.799  0.00  0.00    -0.247 OA
ATOM     14  C   UNL     1      35.385 -18.546 -22.817  0.00  0.00    +0.342 C 
BRANCH  14  15
ATOM     15  O   UNL     1      36.022 -17.350 -22.870  0.00  0.00    -0.478 OA
ATOM     16  H   UNL     1      36.813 -17.261 -23.363  0.00  0.00    +0.295 HD
ENDBRANCH  14  15
ENDBRANCH   3  14
TORSDOF 5
ENDMDL
