MODEL 1
REMARK VINA RESULT:      -2.5      0.000      0.000
REMARK  Name = 947
REMARK  0 active torsions:
REMARK  status: ('A' for Active; 'I' for Inactive)
REMARK                            x       y       z     vdW  Elec       q    Type
REMARK                         _______ _______ _______ _____ _____    ______ ____
ROOT
ATOM      1  N   UNL     1      26.189 -20.608 -17.929  0.00  0.00    +0.000 NA
ATOM      2  N   UNL     1      25.833 -21.338 -17.169  0.00  0.00    +0.000 NA
ENDROOT
TORSDOF 0
ENDMDL
MODEL 2
REMARK VINA RESULT:      -2.4     12.422     12.621
REMARK  Name = 947
REMARK  0 active torsions:
REMARK  status: ('A' for Active; 'I' for Inactive)
REMARK                            x       y       z     vdW  Elec       q    Type
REMARK                         _______ _______ _______ _____ _____    ______ ____
ROOT
ATOM      1  N   UNL     1      35.332 -25.077 -10.567  0.00  0.00    +0.000 NA
ATOM      2  N   UNL     1      35.681 -24.375  -9.779  0.00  0.00    +0.000 NA
ENDROOT
TORSDOF 0
ENDMDL
MODEL 3
REMARK VINA RESULT:      -2.4     15.859     15.892
REMARK  Name = 947
REMARK  0 active torsions:
REMARK  status: ('A' for Active; 'I' for Inactive)
REMARK                            x       y       z     vdW  Elec       q    Type
REMARK                         _______ _______ _______ _____ _____    ______ ____
ROOT
ATOM      1  N   UNL     1      40.897 -26.556 -14.542  0.00  0.00    +0.000 NA
ATOM      2  N   UNL     1      40.568 -26.017 -15.457  0.00  0.00    +0.000 NA
ENDROOT
TORSDOF 0
ENDMDL
MODEL 4
REMARK VINA RESULT:      -2.2     13.444     13.519
REMARK  Name = 947
REMARK  0 active torsions:
REMARK  status: ('A' for Active; 'I' for Inactive)
REMARK                            x       y       z     vdW  Elec       q    Type
REMARK                         _______ _______ _______ _____ _____    ______ ____
ROOT
ATOM      1  N   UNL     1      37.409 -22.722 -11.227  0.00  0.00    +0.000 NA
ATOM      2  N   UNL     1      38.384 -22.988 -11.691  0.00  0.00    +0.000 NA
ENDROOT
TORSDOF 0
ENDMDL
MODEL 5
REMARK VINA RESULT:      -2.2      3.085      3.363
REMARK  Name = 947
REMARK  0 active torsions:
REMARK  status: ('A' for Active; 'I' for Inactive)
REMARK                            x       y       z     vdW  Elec       q    Type
REMARK                         _______ _______ _______ _____ _____    ______ ____
ROOT
ATOM      1  N   UNL     1      27.829 -24.171 -17.405  0.00  0.00    +0.000 NA
ATOM      2  N   UNL     1      27.629 -23.159 -17.820  0.00  0.00    +0.000 NA
ENDROOT
TORSDOF 0
ENDMDL
MODEL 6
REMARK VINA RESULT:      -2.2     12.222     12.297
REMARK  Name = 947
REMARK  0 active torsions:
REMARK  status: ('A' for Active; 'I' for Inactive)
REMARK                            x       y       z     vdW  Elec       q    Type
REMARK                         _______ _______ _______ _____ _____    ______ ____
ROOT
ATOM      1  N   UNL     1      36.694 -27.532 -16.421  0.00  0.00    +0.000 NA
ATOM      2  N   UNL     1      36.346 -26.744 -15.719  0.00  0.00    +0.000 NA
ENDROOT
TORSDOF 0
ENDMDL
MODEL 7
REMARK VINA RESULT:      -2.1      2.206      2.279
REMARK  Name = 947
REMARK  0 active torsions:
REMARK  status: ('A' for Active; 'I' for Inactive)
REMARK                            x       y       z     vdW  Elec       q    Type
REMARK                         _______ _______ _______ _____ _____    ______ ____
ROOT
ATOM      1  N   UNL     1      25.569 -22.035 -15.750  0.00  0.00    +0.000 NA
ATOM      2  N   UNL     1      26.635 -22.318 -15.899  0.00  0.00    +0.000 NA
ENDROOT
TORSDOF 0
ENDMDL
MODEL 8
REMARK VINA RESULT:      -2.0      2.489      2.568
REMARK  Name = 947
REMARK  0 active torsions:
REMARK  status: ('A' for Active; 'I' for Inactive)
REMARK                            x       y       z     vdW  Elec       q    Type
REMARK                         _______ _______ _______ _____ _____    ______ ____
ROOT
ATOM      1  N   UNL     1      28.050 -22.141 -17.191  0.00  0.00    +0.000 NA
ATOM      2  N   UNL     1      27.715 -23.071 -17.701  0.00  0.00    +0.000 NA
ENDROOT
TORSDOF 0
ENDMDL
MODEL 9
REMARK VINA RESULT:      -2.0     11.806     11.974
REMARK  Name = 947
REMARK  0 active torsions:
REMARK  status: ('A' for Active; 'I' for Inactive)
REMARK                            x       y       z     vdW  Elec       q    Type
REMARK                         _______ _______ _______ _____ _____    ______ ____
ROOT
ATOM      1  N   UNL     1      35.099 -24.460 -11.365  0.00  0.00    +0.000 NA
ATOM      2  N   UNL     1      35.353 -25.019 -10.438  0.00  0.00    +0.000 NA
ENDROOT
TORSDOF 0
ENDMDL
