MODEL 1
REMARK VINA RESULT:      -9.9      0.000      0.000
REMARK  Name = 92745
REMARK  1 active torsions:
REMARK  status: ('A' for Active; 'I' for Inactive)
REMARK    1  A    between atoms: C_10  and  C_22
REMARK                            x       y       z     vdW  Elec       q    Type
REMARK                         _______ _______ _______ _____ _____    ______ ____
ROOT
ATOM      1  O   UNL     1      39.613 -26.633 -14.530  0.00  0.00    -0.296 OA
ATOM      2  C   UNL     1      34.539 -23.237 -15.145  0.00  0.00    +0.000 C 
ATOM      3  C   UNL     1      33.212 -23.574 -15.836  0.00  0.00    +0.000 C 
ATOM      4  C   UNL     1      34.922 -24.413 -14.199  0.00  0.00    +0.000 C 
ATOM      5  C   UNL     1      32.053 -23.797 -14.842  0.00  0.00    +0.007 C 
ATOM      6  C   UNL     1      36.302 -24.197 -13.471  0.00  0.00    +0.001 C 
ATOM      7  C   UNL     1      33.758 -24.788 -13.239  0.00  0.00    +0.000 C 
ATOM      8  C   UNL     1      37.417 -23.768 -14.490  0.00  0.00    +0.007 C 
ATOM      9  C   UNL     1      32.415 -25.002 -13.962  0.00  0.00    +0.000 C 
ATOM     10  C   UNL     1      30.907 -24.051 -15.847  0.00  0.00    +0.058 C 
ATOM     11  C   UNL     1      35.653 -22.994 -16.168  0.00  0.00    +0.000 C 
ATOM     12  C   UNL     1      32.628 -22.590 -16.844  0.00  0.00    +0.000 C 
ATOM     13  C   UNL     1      36.970 -22.681 -15.476  0.00  0.00    +0.000 C 
ATOM     14  C   UNL     1      31.158 -23.029 -16.976  0.00  0.00    +0.007 C 
ATOM     15  C   UNL     1      36.710 -25.536 -12.767  0.00  0.00    +0.008 C 
ATOM     16  C   UNL     1      31.746 -22.567 -13.949  0.00  0.00    +0.000 C 
ATOM     17  C   UNL     1      36.202 -23.094 -12.390  0.00  0.00    +0.000 C 
ATOM     18  C   UNL     1      38.010 -24.985 -15.215  0.00  0.00    +0.064 C 
ATOM     19  C   UNL     1      38.211 -25.800 -12.772  0.00  0.00    +0.065 C 
ATOM     20  C   UNL     1      38.697 -25.880 -14.204  0.00  0.00    +0.151 C 
ENDROOT
BRANCH  10  22
ATOM     21  O   UNL     1      29.064 -24.802 -14.533  0.00  0.00    -0.296 OA
ATOM     22  C   UNL     1      29.534 -23.930 -15.262  0.00  0.00    +0.151 C 
ATOM     23  C   UNL     1      28.758 -22.689 -15.610  0.00  0.00    +0.072 C 
ENDBRANCH  10  22
TORSDOF 1
ENDMDL
MODEL 2
REMARK VINA RESULT:      -8.8     11.052     13.710
REMARK  Name = 92745
REMARK  1 active torsions:
REMARK  status: ('A' for Active; 'I' for Inactive)
REMARK    1  A    between atoms: C_10  and  C_22
REMARK                            x       y       z     vdW  Elec       q    Type
REMARK                         _______ _______ _______ _____ _____    ______ ____
ROOT
ATOM      1  O   UNL     1      35.165 -10.079 -26.161  0.00  0.00    -0.296 OA
ATOM      2  C   UNL     1      33.710 -15.707 -24.193  0.00  0.00    +0.000 C 
ATOM      3  C   UNL     1      34.624 -16.885 -23.831  0.00  0.00    +0.000 C 
ATOM      4  C   UNL     1      34.233 -14.431 -23.470  0.00  0.00    +0.000 C 
ATOM      5  C   UNL     1      34.672 -17.169 -22.315  0.00  0.00    +0.007 C 
ATOM      6  C   UNL     1      33.396 -13.140 -23.812  0.00  0.00    +0.001 C 
ATOM      7  C   UNL     1      34.428 -14.667 -21.946  0.00  0.00    +0.000 C 
ATOM      8  C   UNL     1      33.191 -12.994 -25.362  0.00  0.00    +0.007 C 
ATOM      9  C   UNL     1      35.251 -15.927 -21.623  0.00  0.00    +0.000 C 
ATOM     10  C   UNL     1      35.603 -18.401 -22.321  0.00  0.00    +0.058 C 
ATOM     11  C   UNL     1      33.670 -15.481 -25.708  0.00  0.00    +0.000 C 
ATOM     12  C   UNL     1      34.345 -18.256 -24.439  0.00  0.00    +0.000 C 
ATOM     13  C   UNL     1      32.780 -14.299 -26.058  0.00  0.00    +0.000 C 
ATOM     14  C   UNL     1      35.140 -19.222 -23.543  0.00  0.00    +0.007 C 
ATOM     15  C   UNL     1      34.157 -11.890 -23.255  0.00  0.00    +0.008 C 
ATOM     16  C   UNL     1      33.292 -17.519 -21.698  0.00  0.00    +0.000 C 
ATOM     17  C   UNL     1      31.996 -13.186 -23.154  0.00  0.00    +0.000 C 
ATOM     18  C   UNL     1      34.417 -12.355 -26.030  0.00  0.00    +0.064 C 
ATOM     19  C   UNL     1      34.024 -10.650 -24.131  0.00  0.00    +0.065 C 
ATOM     20  C   UNL     1      34.592 -10.946 -25.502  0.00  0.00    +0.151 C 
ENDROOT
BRANCH  10  22
ATOM     21  O   UNL     1      36.421 -19.035 -20.172  0.00  0.00    -0.296 OA
ATOM     22  C   UNL     1      35.580 -19.199 -21.054  0.00  0.00    +0.151 C 
ATOM     23  C   UNL     1      34.476 -20.212 -20.913  0.00  0.00    +0.072 C 
ENDBRANCH  10  22
TORSDOF 1
ENDMDL
MODEL 3
REMARK VINA RESULT:      -8.5      3.572      6.651
REMARK  Name = 92745
REMARK  1 active torsions:
REMARK  status: ('A' for Active; 'I' for Inactive)
REMARK    1  A    between atoms: C_10  and  C_22
REMARK                            x       y       z     vdW  Elec       q    Type
REMARK                         _______ _______ _______ _____ _____    ______ ____
ROOT
ATOM      1  O   UNL     1      33.684 -18.337 -21.188  0.00  0.00    -0.296 OA
ATOM      2  C   UNL     1      35.986 -22.596 -17.417  0.00  0.00    +0.000 C 
ATOM      3  C   UNL     1      36.167 -22.562 -15.894  0.00  0.00    +0.000 C 
ATOM      4  C   UNL     1      34.533 -22.151 -17.756  0.00  0.00    +0.000 C 
ATOM      5  C   UNL     1      35.186 -23.490 -15.148  0.00  0.00    +0.007 C 
ATOM      6  C   UNL     1      34.247 -22.099 -19.305  0.00  0.00    +0.001 C 
ATOM      7  C   UNL     1      33.475 -22.958 -16.950  0.00  0.00    +0.000 C 
ATOM      8  C   UNL     1      35.380 -21.318 -20.062  0.00  0.00    +0.007 C 
ATOM      9  C   UNL     1      33.761 -22.998 -15.438  0.00  0.00    +0.000 C 
ATOM     10  C   UNL     1      35.671 -23.254 -13.700  0.00  0.00    +0.058 C 
ATOM     11  C   UNL     1      36.998 -21.685 -18.118  0.00  0.00    +0.000 C 
ATOM     12  C   UNL     1      37.522 -22.928 -15.299  0.00  0.00    +0.000 C 
ATOM     13  C   UNL     1      36.799 -21.707 -19.625  0.00  0.00    +0.000 C 
ATOM     14  C   UNL     1      37.209 -23.206 -13.817  0.00  0.00    +0.007 C 
ATOM     15  C   UNL     1      32.868 -21.393 -19.535  0.00  0.00    +0.008 C 
ATOM     16  C   UNL     1      35.315 -24.986 -15.540  0.00  0.00    +0.000 C 
ATOM     17  C   UNL     1      34.169 -23.521 -19.911  0.00  0.00    +0.000 C 
ATOM     18  C   UNL     1      35.158 -19.800 -19.988  0.00  0.00    +0.064 C 
ATOM     19  C   UNL     1      32.819 -20.538 -20.796  0.00  0.00    +0.065 C 
ATOM     20  C   UNL     1      33.868 -19.452 -20.702  0.00  0.00    +0.151 C 
ENDROOT
BRANCH  10  22
ATOM     21  O   UNL     1      34.012 -24.446 -12.470  0.00  0.00    -0.296 OA
ATOM     22  C   UNL     1      35.205 -24.283 -12.717  0.00  0.00    +0.151 C 
ATOM     23  C   UNL     1      36.270 -25.108 -12.047  0.00  0.00    +0.072 C 
ENDBRANCH  10  22
TORSDOF 1
ENDMDL
MODEL 4
REMARK VINA RESULT:      -8.1     13.604     15.862
REMARK  Name = 92745
REMARK  1 active torsions:
REMARK  status: ('A' for Active; 'I' for Inactive)
REMARK    1  A    between atoms: C_10  and  C_22
REMARK                            x       y       z     vdW  Elec       q    Type
REMARK                         _______ _______ _______ _____ _____    ______ ____
ROOT
ATOM      1  O   UNL     1      35.248 -16.422 -20.718  0.00  0.00    -0.296 OA
ATOM      2  C   UNL     1      32.311 -11.224 -22.138  0.00  0.00    +0.000 C 
ATOM      3  C   UNL     1      32.770  -9.768 -21.990  0.00  0.00    +0.000 C 
ATOM      4  C   UNL     1      33.439 -12.033 -22.842  0.00  0.00    +0.000 C 
ATOM      5  C   UNL     1      33.082  -9.092 -23.342  0.00  0.00    +0.007 C 
ATOM      6  C   UNL     1      33.097 -13.563 -23.002  0.00  0.00    +0.001 C 
ATOM      7  C   UNL     1      33.904 -11.353 -24.162  0.00  0.00    +0.000 C 
ATOM      8  C   UNL     1      32.584 -14.170 -21.648  0.00  0.00    +0.007 C 
ATOM      9  C   UNL     1      34.240  -9.861 -23.994  0.00  0.00    +0.000 C 
ATOM     10  C   UNL     1      33.444  -7.678 -22.838  0.00  0.00    +0.058 C 
ATOM     11  C   UNL     1      31.984 -11.844 -20.776  0.00  0.00    +0.000 C 
ATOM     12  C   UNL     1      31.851  -8.766 -21.299  0.00  0.00    +0.000 C 
ATOM     13  C   UNL     1      31.551 -13.294 -20.928  0.00  0.00    +0.000 C 
ATOM     14  C   UNL     1      32.417  -7.398 -21.721  0.00  0.00    +0.007 C 
ATOM     15  C   UNL     1      34.387 -14.317 -23.470  0.00  0.00    +0.008 C 
ATOM     16  C   UNL     1      31.873  -9.043 -24.313  0.00  0.00    +0.000 C 
ATOM     17  C   UNL     1      31.995 -13.785 -24.065  0.00  0.00    +0.000 C 
ATOM     18  C   UNL     1      33.753 -14.546 -20.725  0.00  0.00    +0.064 C 
ATOM     19  C   UNL     1      34.520 -15.722 -22.893  0.00  0.00    +0.065 C 
ATOM     20  C   UNL     1      34.573 -15.637 -21.383  0.00  0.00    +0.151 C 
ENDROOT
BRANCH  10  22
ATOM     21  O   UNL     1      32.535  -5.790 -23.974  0.00  0.00    -0.296 OA
ATOM     22  C   UNL     1      33.437  -6.622 -23.899  0.00  0.00    +0.151 C 
ATOM     23  C   UNL     1      34.589  -6.628 -24.867  0.00  0.00    +0.072 C 
ENDBRANCH  10  22
TORSDOF 1
ENDMDL
MODEL 5
REMARK VINA RESULT:      -7.6     19.932     22.234
REMARK  Name = 92745
REMARK  1 active torsions:
REMARK  status: ('A' for Active; 'I' for Inactive)
REMARK    1  A    between atoms: C_10  and  C_22
REMARK                            x       y       z     vdW  Elec       q    Type
REMARK                         _______ _______ _______ _____ _____    ______ ____
ROOT
ATOM      1  O   UNL     1      32.828  -7.194 -19.348  0.00  0.00    -0.296 OA
ATOM      2  C   UNL     1      32.007  -4.529 -24.816  0.00  0.00    +0.000 C 
ATOM      3  C   UNL     1      32.922  -3.568 -25.584  0.00  0.00    +0.000 C 
ATOM      4  C   UNL     1      32.850  -5.751 -24.345  0.00  0.00    +0.000 C 
ATOM      5  C   UNL     1      33.575  -4.215 -26.823  0.00  0.00    +0.007 C 
ATOM      6  C   UNL     1      32.020  -6.786 -23.496  0.00  0.00    +0.001 C 
ATOM      7  C   UNL     1      33.644  -6.394 -25.517  0.00  0.00    +0.000 C 
ATOM      8  C   UNL     1      31.202  -6.062 -22.367  0.00  0.00    +0.007 C 
ATOM      9  C   UNL     1      34.456  -5.375 -26.337  0.00  0.00    +0.000 C 
ATOM     10  C   UNL     1      34.352  -2.995 -27.364  0.00  0.00    +0.058 C 
ATOM     11  C   UNL     1      31.358  -3.837 -23.613  0.00  0.00    +0.000 C 
ATOM     12  C   UNL     1      32.342  -2.267 -26.130  0.00  0.00    +0.000 C 
ATOM     13  C   UNL     1      30.470  -4.801 -22.843  0.00  0.00    +0.000 C 
ATOM     14  C   UNL     1      33.382  -1.810 -27.170  0.00  0.00    +0.007 C 
ATOM     15  C   UNL     1      33.010  -7.818 -22.859  0.00  0.00    +0.008 C 
ATOM     16  C   UNL     1      32.556  -4.734 -27.872  0.00  0.00    +0.000 C 
ATOM     17  C   UNL     1      31.015  -7.563 -24.380  0.00  0.00    +0.000 C 
ATOM     18  C   UNL     1      32.077  -5.781 -21.136  0.00  0.00    +0.064 C 
ATOM     19  C   UNL     1      32.597  -8.289 -21.469  0.00  0.00    +0.065 C 
ATOM     20  C   UNL     1      32.531  -7.097 -20.538  0.00  0.00    +0.151 C 
ENDROOT
BRANCH  10  22
ATOM     21  O   UNL     1      35.661  -3.956 -29.110  0.00  0.00    -0.296 OA
ATOM     22  C   UNL     1      34.809  -3.132 -28.783  0.00  0.00    +0.151 C 
ATOM     23  C   UNL     1      34.174  -2.211 -29.790  0.00  0.00    +0.072 C 
ENDBRANCH  10  22
TORSDOF 1
ENDMDL
MODEL 6
REMARK VINA RESULT:      -7.4     14.993     17.666
REMARK  Name = 92745
REMARK  1 active torsions:
REMARK  status: ('A' for Active; 'I' for Inactive)
REMARK    1  A    between atoms: C_10  and  C_22
REMARK                            x       y       z     vdW  Elec       q    Type
REMARK                         _______ _______ _______ _____ _____    ______ ____
ROOT
ATOM      1  O   UNL     1      30.444  -4.435 -23.839  0.00  0.00    -0.296 OA
ATOM      2  C   UNL     1      32.761  -9.878 -22.205  0.00  0.00    +0.000 C 
ATOM      3  C   UNL     1      32.230 -11.291 -22.479  0.00  0.00    +0.000 C 
ATOM      4  C   UNL     1      32.766  -9.079 -23.541  0.00  0.00    +0.000 C 
ATOM      5  C   UNL     1      33.080 -12.067 -23.506  0.00  0.00    +0.007 C 
ATOM      6  C   UNL     1      33.247  -7.589 -23.370  0.00  0.00    +0.001 C 
ATOM      7  C   UNL     1      33.501  -9.849 -24.674  0.00  0.00    +0.000 C 
ATOM      8  C   UNL     1      32.503  -6.890 -22.176  0.00  0.00    +0.007 C 
ATOM      9  C   UNL     1      33.020 -11.303 -24.837  0.00  0.00    +0.000 C 
ATOM     10  C   UNL     1      32.319 -13.411 -23.497  0.00  0.00    +0.058 C 
ATOM     11  C   UNL     1      31.905  -9.157 -21.158  0.00  0.00    +0.000 C 
ATOM     12  C   UNL     1      32.096 -12.272 -21.319  0.00  0.00    +0.000 C 
ATOM     13  C   UNL     1      32.424  -7.750 -20.907  0.00  0.00    +0.000 C 
ATOM     14  C   UNL     1      31.975 -13.642 -22.010  0.00  0.00    +0.007 C 
ATOM     15  C   UNL     1      32.961  -6.816 -24.701  0.00  0.00    +0.008 C 
ATOM     16  C   UNL     1      34.558 -12.263 -23.079  0.00  0.00    +0.000 C 
ATOM     17  C   UNL     1      34.766  -7.516 -23.086  0.00  0.00    +0.000 C 
ATOM     18  C   UNL     1      31.120  -6.376 -22.602  0.00  0.00    +0.064 C 
ATOM     19  C   UNL     1      32.558  -5.361 -24.492  0.00  0.00    +0.065 C 
ATOM     20  C   UNL     1      31.293  -5.309 -23.663  0.00  0.00    +0.151 C 
ENDROOT
BRANCH  10  22
ATOM     21  O   UNL     1      33.660 -15.380 -23.388  0.00  0.00    -0.296 OA
ATOM     22  C   UNL     1      33.078 -14.556 -24.092  0.00  0.00    +0.151 C 
ATOM     23  C   UNL     1      33.093 -14.651 -25.593  0.00  0.00    +0.072 C 
ENDBRANCH  10  22
TORSDOF 1
ENDMDL
MODEL 7
REMARK VINA RESULT:      -7.3     18.006     20.115
REMARK  Name = 92745
REMARK  1 active torsions:
REMARK  status: ('A' for Active; 'I' for Inactive)
REMARK    1  A    between atoms: C_10  and  C_22
REMARK                            x       y       z     vdW  Elec       q    Type
REMARK                         _______ _______ _______ _____ _____    ______ ____
ROOT
ATOM      1  O   UNL     1      32.621 -12.735 -23.636  0.00  0.00    -0.296 OA
ATOM      2  C   UNL     1      33.303  -6.661 -24.186  0.00  0.00    +0.000 C 
ATOM      3  C   UNL     1      32.781  -5.711 -25.271  0.00  0.00    +0.000 C 
ATOM      4  C   UNL     1      32.127  -7.558 -23.701  0.00  0.00    +0.000 C 
ATOM      5  C   UNL     1      31.642  -4.795 -24.775  0.00  0.00    +0.007 C 
ATOM      6  C   UNL     1      32.561  -8.615 -22.616  0.00  0.00    +0.001 C 
ATOM      7  C   UNL     1      30.884  -6.716 -23.295  0.00  0.00    +0.000 C 
ATOM      8  C   UNL     1      33.851  -9.389 -23.067  0.00  0.00    +0.007 C 
ATOM      9  C   UNL     1      30.465  -5.691 -24.364  0.00  0.00    +0.000 C 
ATOM     10  C   UNL     1      31.409  -3.968 -26.059  0.00  0.00    +0.058 C 
ATOM     11  C   UNL     1      34.451  -7.529 -24.713  0.00  0.00    +0.000 C 
ATOM     12  C   UNL     1      33.750  -4.740 -25.938  0.00  0.00    +0.000 C 
ATOM     13  C   UNL     1      34.949  -8.483 -23.639  0.00  0.00    +0.000 C 
ATOM     14  C   UNL     1      32.829  -3.701 -26.602  0.00  0.00    +0.007 C 
ATOM     15  C   UNL     1      31.382  -9.623 -22.401  0.00  0.00    +0.008 C 
ATOM     16  C   UNL     1      32.044  -3.879 -23.590  0.00  0.00    +0.000 C 
ATOM     17  C   UNL     1      32.869  -7.936 -21.260  0.00  0.00    +0.000 C 
ATOM     18  C   UNL     1      33.506 -10.540 -24.024  0.00  0.00    +0.064 C 
ATOM     19  C   UNL     1      31.838 -11.050 -22.120  0.00  0.00    +0.065 C 
ATOM     20  C   UNL     1      32.650 -11.554 -23.294  0.00  0.00    +0.151 C 
ENDROOT
BRANCH  10  22
ATOM     21  O   UNL     1      30.123  -2.435 -24.763  0.00  0.00    -0.296 OA
ATOM     22  C   UNL     1      30.631  -2.706 -25.849  0.00  0.00    +0.151 C 
ATOM     23  C   UNL     1      30.504  -1.786 -27.032  0.00  0.00    +0.072 C 
ENDBRANCH  10  22
TORSDOF 1
ENDMDL
MODEL 8
REMARK VINA RESULT:      -7.2     11.867     14.523
REMARK  Name = 92745
REMARK  1 active torsions:
REMARK  status: ('A' for Active; 'I' for Inactive)
REMARK    1  A    between atoms: C_10  and  C_22
REMARK                            x       y       z     vdW  Elec       q    Type
REMARK                         _______ _______ _______ _____ _____    ______ ____
ROOT
ATOM      1  O   UNL     1      32.928  -7.073 -19.999  0.00  0.00    -0.296 OA
ATOM      2  C   UNL     1      32.771 -12.641 -22.575  0.00  0.00    +0.000 C 
ATOM      3  C   UNL     1      33.883 -13.688 -22.715  0.00  0.00    +0.000 C 
ATOM      4  C   UNL     1      32.728 -12.152 -21.097  0.00  0.00    +0.000 C 
ATOM      5  C   UNL     1      33.676 -14.915 -21.802  0.00  0.00    +0.007 C 
ATOM      6  C   UNL     1      31.650 -11.031 -20.847  0.00  0.00    +0.001 C 
ATOM      7  C   UNL     1      32.642 -13.339 -20.096  0.00  0.00    +0.000 C 
ATOM      8  C   UNL     1      31.758  -9.894 -21.925  0.00  0.00    +0.007 C 
ATOM      9  C   UNL     1      33.703 -14.427 -20.347  0.00  0.00    +0.000 C 
ATOM     10  C   UNL     1      34.901 -15.753 -22.227  0.00  0.00    +0.058 C 
ATOM     11  C   UNL     1      33.001 -11.456 -23.519  0.00  0.00    +0.000 C 
ATOM     12  C   UNL     1      34.154 -14.306 -24.082  0.00  0.00    +0.000 C 
ATOM     13  C   UNL     1      31.907 -10.413 -23.361  0.00  0.00    +0.000 C 
ATOM     14  C   UNL     1      34.977 -15.566 -23.757  0.00  0.00    +0.007 C 
ATOM     15  C   UNL     1      31.874 -10.434 -19.417  0.00  0.00    +0.008 C 
ATOM     16  C   UNL     1      32.356 -15.683 -22.073  0.00  0.00    +0.000 C 
ATOM     17  C   UNL     1      30.214 -11.605 -20.911  0.00  0.00    +0.000 C 
ATOM     18  C   UNL     1      32.862  -8.887 -21.566  0.00  0.00    +0.064 C 
ATOM     19  C   UNL     1      31.584  -8.940 -19.323  0.00  0.00    +0.065 C 
ATOM     20  C   UNL     1      32.500  -8.194 -20.269  0.00  0.00    +0.151 C 
ENDROOT
BRANCH  10  22
ATOM     21  O   UNL     1      34.921 -17.546 -20.656  0.00  0.00    -0.296 OA
ATOM     22  C   UNL     1      34.832 -17.195 -21.831  0.00  0.00    +0.151 C 
ATOM     23  C   UNL     1      34.646 -18.193 -22.941  0.00  0.00    +0.072 C 
ENDBRANCH  10  22
TORSDOF 1
ENDMDL
