MODEL 1
REMARK VINA RESULT:     -10.1      0.000      0.000
REMARK  Name = 445332
REMARK  5 active torsions:
REMARK  status: ('A' for Active; 'I' for Inactive)
REMARK    1  A    between atoms: C_1  and  C_18
REMARK    2  A    between atoms: C_2  and  N_6
REMARK    3  A    between atoms: C_19  and  O_24
REMARK    4  A    between atoms: C_21  and  C_27
REMARK    5  A    between atoms: C_27  and  C_28
REMARK                            x       y       z     vdW  Elec       q    Type
REMARK                         _______ _______ _______ _____ _____    ______ ____
ROOT
ATOM      1  C   UNL     1      36.205 -20.014 -21.403  0.00  0.00    +0.047 C 
ATOM      2  C   UNL     1      36.426 -18.540 -21.527  0.00  0.00    +0.078 C 
ATOM      3  C   UNL     1      37.339 -19.368 -20.672  0.00  0.00    +0.026 C 
ENDROOT
BRANCH   2   6
ATOM      4 BR   UNL     1      31.061 -10.800 -22.236  0.00  0.00    -0.047 Br
ATOM      5  O   UNL     1      35.287 -16.268 -22.811  0.00  0.00    -0.252 OA
ATOM      6  N   UNL     1      35.513 -17.614 -20.946  0.00  0.00    -0.290 N 
ATOM      7  N   UNL     1      34.124 -15.778 -20.829  0.00  0.00    -0.254 N 
ATOM      8  N   UNL     1      33.547 -14.111 -22.405  0.00  0.00    -0.228 NA
ATOM      9  C   UNL     1      34.991 -16.511 -21.643  0.00  0.00    +0.305 C 
ATOM     10  C   UNL     1      33.404 -14.606 -21.163  0.00  0.00    +0.135 C 
ATOM     11  C   UNL     1      32.606 -14.062 -20.178  0.00  0.00    +0.035 C 
ATOM     12  C   UNL     1      31.895 -12.911 -20.496  0.00  0.00    +0.011 C 
ATOM     13  C   UNL     1      32.840 -12.990 -22.677  0.00  0.00    +0.107 C 
ATOM     14  C   UNL     1      32.008 -12.358 -21.766  0.00  0.00    +0.054 C 
ATOM     15  H   UNL     1      35.236 -17.752 -20.011  0.00  0.00    +0.151 HD
ATOM     16  H   UNL     1      33.999 -16.117 -19.914  0.00  0.00    +0.158 HD
ENDBRANCH   2   6
BRANCH   1  18
ATOM     17  F   UNL     1      33.564 -19.314 -22.066  0.00  0.00    -0.204 F 
ATOM     18  C   UNL     1      35.028 -20.510 -20.629  0.00  0.00    +0.040 C 
ATOM     19  C   UNL     1      35.204 -21.351 -19.531  0.00  0.00    +0.134 C 
ATOM     20  C   UNL     1      33.745 -20.123 -21.013  0.00  0.00    +0.139 C 
ATOM     21  C   UNL     1      34.096 -21.805 -18.815  0.00  0.00    +0.068 C 
ATOM     22  C   UNL     1      32.635 -20.577 -20.298  0.00  0.00    +0.030 C 
ATOM     23  C   UNL     1      32.811 -21.419 -19.200  0.00  0.00    +0.008 C 
BRANCH  19  24
ATOM     24  O   UNL     1      36.461 -21.728 -19.154  0.00  0.00    -0.506 OA
ATOM     25  H   UNL     1      36.624 -21.992 -18.271  0.00  0.00    +0.292 HD
ENDBRANCH  19  24
BRANCH  21  27
ATOM     26  O   UNL     1      35.372 -22.842 -17.134  0.00  0.00    -0.291 OA
ATOM     27  C   UNL     1      34.256 -22.685 -17.666  0.00  0.00    +0.176 C 
BRANCH  27  28
ATOM     28  C   UNL     1      33.037 -23.431 -17.097  0.00  0.00    +0.069 C 
ATOM     29  C   UNL     1      32.953 -23.386 -15.579  0.00  0.00    +0.009 C 
ENDBRANCH  27  28
ENDBRANCH  21  27
ENDBRANCH   1  18
TORSDOF 5
ENDMDL
MODEL 2
REMARK VINA RESULT:      -9.5      3.676      8.194
REMARK  Name = 445332
REMARK  5 active torsions:
REMARK  status: ('A' for Active; 'I' for Inactive)
REMARK    1  A    between atoms: C_1  and  C_18
REMARK    2  A    between atoms: C_2  and  N_6
REMARK    3  A    between atoms: C_19  and  O_24
REMARK    4  A    between atoms: C_21  and  C_27
REMARK    5  A    between atoms: C_27  and  C_28
REMARK                            x       y       z     vdW  Elec       q    Type
REMARK                         _______ _______ _______ _____ _____    ______ ____
ROOT
ATOM      1  C   UNL     1      35.391 -16.922 -23.625  0.00  0.00    +0.047 C 
ATOM      2  C   UNL     1      35.160 -18.399 -23.673  0.00  0.00    +0.078 C 
ATOM      3  C   UNL     1      34.574 -17.512 -24.731  0.00  0.00    +0.026 C 
ENDROOT
BRANCH   2   6
ATOM      4 BR   UNL     1      34.226 -23.853 -16.020  0.00  0.00    -0.047 Br
ATOM      5  O   UNL     1      36.044 -20.019 -21.505  0.00  0.00    -0.252 OA
ATOM      6  N   UNL     1      34.331 -19.039 -22.708  0.00  0.00    -0.290 N 
ATOM      7  N   UNL     1      33.803 -20.328 -20.871  0.00  0.00    -0.254 N 
ATOM      8  N   UNL     1      35.134 -21.528 -19.327  0.00  0.00    -0.228 NA
ATOM      9  C   UNL     1      34.840 -19.827 -21.661  0.00  0.00    +0.305 C 
ATOM     10  C   UNL     1      33.905 -21.158 -19.730  0.00  0.00    +0.135 C 
ATOM     11  C   UNL     1      32.725 -21.522 -19.115  0.00  0.00    +0.035 C 
ATOM     12  C   UNL     1      32.815 -22.338 -17.993  0.00  0.00    +0.011 C 
ATOM     13  C   UNL     1      35.181 -22.321 -18.233  0.00  0.00    +0.107 C 
ATOM     14  C   UNL     1      34.062 -22.749 -17.536  0.00  0.00    +0.054 C 
ATOM     15  H   UNL     1      33.356 -18.926 -22.778  0.00  0.00    +0.151 HD
ATOM     16  H   UNL     1      32.892 -20.073 -21.141  0.00  0.00    +0.158 HD
ENDBRANCH   2   6
BRANCH   1  18
ATOM     17  F   UNL     1      35.827 -17.358 -20.883  0.00  0.00    -0.204 F 
ATOM     18  C   UNL     1      34.711 -16.114 -22.570  0.00  0.00    +0.040 C 
ATOM     19  C   UNL     1      33.821 -15.098 -22.916  0.00  0.00    +0.134 C 
ATOM     20  C   UNL     1      34.973 -16.384 -21.227  0.00  0.00    +0.139 C 
ATOM     21  C   UNL     1      33.191 -14.352 -21.919  0.00  0.00    +0.068 C 
ATOM     22  C   UNL     1      34.344 -15.638 -20.229  0.00  0.00    +0.030 C 
ATOM     23  C   UNL     1      33.454 -14.621 -20.576  0.00  0.00    +0.008 C 
BRANCH  19  24
ATOM     24  O   UNL     1      33.563 -14.836 -24.230  0.00  0.00    -0.506 OA
ATOM     25  H   UNL     1      32.864 -15.281 -24.667  0.00  0.00    +0.292 HD
ENDBRANCH  19  24
BRANCH  21  27
ATOM     26  O   UNL     1      31.899 -13.105 -23.438  0.00  0.00    -0.291 OA
ATOM     27  C   UNL     1      32.258 -13.286 -22.258  0.00  0.00    +0.176 C 
BRANCH  27  28
ATOM     28  C   UNL     1      31.705 -12.372 -21.151  0.00  0.00    +0.069 C 
ATOM     29  C   UNL     1      30.901 -11.197 -21.682  0.00  0.00    +0.009 C 
ENDBRANCH  27  28
ENDBRANCH  21  27
ENDBRANCH   1  18
TORSDOF 5
ENDMDL
MODEL 3
REMARK VINA RESULT:      -8.7      1.596      2.260
REMARK  Name = 445332
REMARK  5 active torsions:
REMARK  status: ('A' for Active; 'I' for Inactive)
REMARK    1  A    between atoms: C_1  and  C_18
REMARK    2  A    between atoms: C_2  and  N_6
REMARK    3  A    between atoms: C_19  and  O_24
REMARK    4  A    between atoms: C_21  and  C_27
REMARK    5  A    between atoms: C_27  and  C_28
REMARK                            x       y       z     vdW  Elec       q    Type
REMARK                         _______ _______ _______ _____ _____    ______ ____
ROOT
ATOM      1  C   UNL     1      35.976 -21.922 -19.653  0.00  0.00    +0.047 C 
ATOM      2  C   UNL     1      36.239 -20.603 -20.307  0.00  0.00    +0.078 C 
ATOM      3  C   UNL     1      37.031 -21.017 -19.102  0.00  0.00    +0.026 C 
ENDROOT
BRANCH   2   6
ATOM      4 BR   UNL     1      32.974 -12.296 -23.392  0.00  0.00    -0.047 Br
ATOM      5  O   UNL     1      36.191 -18.262 -21.928  0.00  0.00    -0.252 OA
ATOM      6  N   UNL     1      35.285 -19.549 -20.235  0.00  0.00    -0.290 N 
ATOM      7  N   UNL     1      34.269 -17.552 -20.778  0.00  0.00    -0.254 N 
ATOM      8  N   UNL     1      34.769 -15.892 -22.387  0.00  0.00    -0.228 NA
ATOM      9  C   UNL     1      35.324 -18.419 -21.070  0.00  0.00    +0.305 C 
ATOM     10  C   UNL     1      33.966 -16.315 -21.394  0.00  0.00    +0.135 C 
ATOM     11  C   UNL     1      32.860 -15.637 -20.925  0.00  0.00    +0.035 C 
ATOM     12  C   UNL     1      32.555 -14.421 -21.524  0.00  0.00    +0.011 C 
ATOM     13  C   UNL     1      34.441 -14.705 -22.945  0.00  0.00    +0.107 C 
ATOM     14  C   UNL     1      33.354 -13.939 -22.555  0.00  0.00    +0.054 C 
ATOM     15  H   UNL     1      34.565 -19.613 -19.567  0.00  0.00    +0.151 HD
ATOM     16  H   UNL     1      33.663 -17.835 -20.056  0.00  0.00    +0.158 HD
ENDBRANCH   2   6
BRANCH   1  18
ATOM     17  F   UNL     1      33.467 -21.195 -20.692  0.00  0.00    -0.204 F 
ATOM     18  C   UNL     1      34.708 -22.113 -18.888  0.00  0.00    +0.040 C 
ATOM     19  C   UNL     1      34.728 -22.667 -17.608  0.00  0.00    +0.134 C 
ATOM     20  C   UNL     1      33.497 -21.729 -19.463  0.00  0.00    +0.139 C 
ATOM     21  C   UNL     1      33.536 -22.838 -16.903  0.00  0.00    +0.068 C 
ATOM     22  C   UNL     1      32.305 -21.900 -18.759  0.00  0.00    +0.030 C 
ATOM     23  C   UNL     1      32.325 -22.455 -17.479  0.00  0.00    +0.008 C 
BRANCH  19  24
ATOM     24  O   UNL     1      35.914 -23.040 -17.045  0.00  0.00    -0.506 OA
ATOM     25  H   UNL     1      35.922 -23.455 -16.205  0.00  0.00    +0.292 HD
ENDBRANCH  19  24
BRANCH  21  27
ATOM     26  O   UNL     1      34.476 -24.134 -15.180  0.00  0.00    -0.291 OA
ATOM     27  C   UNL     1      33.533 -23.416 -15.566  0.00  0.00    +0.176 C 
BRANCH  27  28
ATOM     28  C   UNL     1      32.356 -23.139 -14.615  0.00  0.00    +0.069 C 
ATOM     29  C   UNL     1      31.764 -24.398 -14.002  0.00  0.00    +0.009 C 
ENDBRANCH  27  28
ENDBRANCH  21  27
ENDBRANCH   1  18
TORSDOF 5
ENDMDL
MODEL 4
REMARK VINA RESULT:      -8.6      7.152     13.526
REMARK  Name = 445332
REMARK  5 active torsions:
REMARK  status: ('A' for Active; 'I' for Inactive)
REMARK    1  A    between atoms: C_1  and  C_18
REMARK    2  A    between atoms: C_2  and  N_6
REMARK    3  A    between atoms: C_19  and  O_24
REMARK    4  A    between atoms: C_21  and  C_27
REMARK    5  A    between atoms: C_27  and  C_28
REMARK                            x       y       z     vdW  Elec       q    Type
REMARK                         _______ _______ _______ _____ _____    ______ ____
ROOT
ATOM      1  C   UNL     1      31.700  -6.670 -22.568  0.00  0.00    +0.047 C 
ATOM      2  C   UNL     1      31.404  -8.092 -22.211  0.00  0.00    +0.078 C 
ATOM      3  C   UNL     1      32.267  -7.256 -21.314  0.00  0.00    +0.026 C 
ENDROOT
BRANCH   2   6
ATOM      4 BR   UNL     1      34.290 -17.065 -22.798  0.00  0.00    -0.047 Br
ATOM      5  O   UNL     1      31.921 -10.729 -21.270  0.00  0.00    -0.252 OA
ATOM      6  N   UNL     1      31.952  -9.164 -22.971  0.00  0.00    -0.290 N 
ATOM      7  N   UNL     1      32.724 -11.293 -23.405  0.00  0.00    -0.254 N 
ATOM      8  N   UNL     1      32.910 -13.229 -22.058  0.00  0.00    -0.228 NA
ATOM      9  C   UNL     1      32.181 -10.444 -22.438  0.00  0.00    +0.305 C 
ATOM     10  C   UNL     1      33.092 -12.651 -23.260  0.00  0.00    +0.135 C 
ATOM     11  C   UNL     1      33.611 -13.280 -24.372  0.00  0.00    +0.035 C 
ATOM     12  C   UNL     1      33.976 -14.615 -24.239  0.00  0.00    +0.011 C 
ATOM     13  C   UNL     1      33.277 -14.527 -21.968  0.00  0.00    +0.107 C 
ATOM     14  C   UNL     1      33.809 -15.258 -23.018  0.00  0.00    +0.054 C 
ATOM     15  H   UNL     1      32.184  -9.001 -23.914  0.00  0.00    +0.151 HD
ATOM     16  H   UNL     1      32.868 -10.898 -24.295  0.00  0.00    +0.158 HD
ENDBRANCH   2   6
BRANCH   1  18
ATOM     17  F   UNL     1      34.307  -7.711 -22.714  0.00  0.00    -0.204 F 
ATOM     18  C   UNL     1      32.611  -6.383 -23.715  0.00  0.00    +0.040 C 
ATOM     19  C   UNL     1      32.192  -5.574 -24.770  0.00  0.00    +0.134 C 
ATOM     20  C   UNL     1      33.894  -6.932 -23.723  0.00  0.00    +0.139 C 
ATOM     21  C   UNL     1      33.056  -5.312 -25.834  0.00  0.00    +0.068 C 
ATOM     22  C   UNL     1      34.758  -6.671 -24.788  0.00  0.00    +0.030 C 
ATOM     23  C   UNL     1      34.338  -5.861 -25.843  0.00  0.00    +0.008 C 
BRANCH  19  24
ATOM     24  O   UNL     1      30.938  -5.035 -24.760  0.00  0.00    -0.506 OA
ATOM     25  H   UNL     1      30.279  -5.399 -24.204  0.00  0.00    +0.292 HD
ENDBRANCH  19  24
BRANCH  21  27
ATOM     26  O   UNL     1      31.880  -3.499 -26.762  0.00  0.00    -0.291 OA
ATOM     27  C   UNL     1      32.639  -4.470 -26.948  0.00  0.00    +0.176 C 
BRANCH  27  28
ATOM     28  C   UNL     1      33.139  -4.778 -28.369  0.00  0.00    +0.069 C 
ATOM     29  C   UNL     1      32.328  -4.094 -29.458  0.00  0.00    +0.009 C 
ENDBRANCH  27  28
ENDBRANCH  21  27
ENDBRANCH   1  18
TORSDOF 5
ENDMDL
MODEL 5
REMARK VINA RESULT:      -8.5      4.539     10.562
REMARK  Name = 445332
REMARK  5 active torsions:
REMARK  status: ('A' for Active; 'I' for Inactive)
REMARK    1  A    between atoms: C_1  and  C_18
REMARK    2  A    between atoms: C_2  and  N_6
REMARK    3  A    between atoms: C_19  and  O_24
REMARK    4  A    between atoms: C_21  and  C_27
REMARK    5  A    between atoms: C_27  and  C_28
REMARK                            x       y       z     vdW  Elec       q    Type
REMARK                         _______ _______ _______ _____ _____    ______ ____
ROOT
ATOM      1  C   UNL     1      31.519 -11.441 -22.388  0.00  0.00    +0.047 C 
ATOM      2  C   UNL     1      31.621 -12.778 -21.726  0.00  0.00    +0.078 C 
ATOM      3  C   UNL     1      31.696 -11.524 -20.905  0.00  0.00    +0.026 C 
ENDROOT
BRANCH   2   6
ATOM      4 BR   UNL     1      35.942 -21.125 -20.810  0.00  0.00    -0.047 Br
ATOM      5  O   UNL     1      31.874 -15.511 -20.971  0.00  0.00    -0.252 OA
ATOM      6  N   UNL     1      32.766 -13.601 -21.918  0.00  0.00    -0.290 N 
ATOM      7  N   UNL     1      34.061 -15.507 -21.830  0.00  0.00    -0.254 N 
ATOM      8  N   UNL     1      33.648 -17.679 -20.989  0.00  0.00    -0.228 NA
ATOM      9  C   UNL     1      32.819 -14.948 -21.518  0.00  0.00    +0.305 C 
ATOM     10  C   UNL     1      34.501 -16.830 -21.589  0.00  0.00    +0.135 C 
ATOM     11  C   UNL     1      35.781 -17.145 -21.993  0.00  0.00    +0.035 C 
ATOM     12  C   UNL     1      36.224 -18.442 -21.760  0.00  0.00    +0.011 C 
ATOM     13  C   UNL     1      34.113 -18.931 -20.779  0.00  0.00    +0.107 C 
ATOM     14  C   UNL     1      35.381 -19.359 -21.142  0.00  0.00    +0.054 C 
ATOM     15  H   UNL     1      33.559 -13.209 -22.350  0.00  0.00    +0.151 HD
ATOM     16  H   UNL     1      34.706 -14.910 -22.270  0.00  0.00    +0.158 HD
ENDBRANCH   2   6
BRANCH   1  18
ATOM     17  F   UNL     1      32.803 -13.088 -24.268  0.00  0.00    -0.204 F 
ATOM     18  C   UNL     1      32.653 -10.958 -23.230  0.00  0.00    +0.040 C 
ATOM     19  C   UNL     1      33.122  -9.650 -23.108  0.00  0.00    +0.134 C 
ATOM     20  C   UNL     1      33.246 -11.830 -24.143  0.00  0.00    +0.139 C 
ATOM     21  C   UNL     1      34.185  -9.214 -23.901  0.00  0.00    +0.068 C 
ATOM     22  C   UNL     1      34.308 -11.393 -24.936  0.00  0.00    +0.030 C 
ATOM     23  C   UNL     1      34.777 -10.085 -24.815  0.00  0.00    +0.008 C 
BRANCH  19  24
ATOM     24  O   UNL     1      32.543  -8.799 -22.213  0.00  0.00    -0.506 OA
ATOM     25  H   UNL     1      32.303  -9.108 -21.362  0.00  0.00    +0.292 HD
ENDBRANCH  19  24
BRANCH  21  27
ATOM     26  O   UNL     1      35.325  -7.487 -22.782  0.00  0.00    -0.291 OA
ATOM     27  C   UNL     1      34.690  -7.852 -23.791  0.00  0.00    +0.176 C 
BRANCH  27  28
ATOM     28  C   UNL     1      34.440  -6.849 -24.930  0.00  0.00    +0.069 C 
ATOM     29  C   UNL     1      33.123  -6.101 -24.801  0.00  0.00    +0.009 C 
ENDBRANCH  27  28
ENDBRANCH  21  27
ENDBRANCH   1  18
TORSDOF 5
ENDMDL
MODEL 6
REMARK VINA RESULT:      -8.4      6.961     13.153
REMARK  Name = 445332
REMARK  5 active torsions:
REMARK  status: ('A' for Active; 'I' for Inactive)
REMARK    1  A    between atoms: C_1  and  C_18
REMARK    2  A    between atoms: C_2  and  N_6
REMARK    3  A    between atoms: C_19  and  O_24
REMARK    4  A    between atoms: C_21  and  C_27
REMARK    5  A    between atoms: C_27  and  C_28
REMARK                            x       y       z     vdW  Elec       q    Type
REMARK                         _______ _______ _______ _____ _____    ______ ____
ROOT
ATOM      1  C   UNL     1      31.973  -7.480 -22.016  0.00  0.00    +0.047 C 
ATOM      2  C   UNL     1      31.633  -8.934 -21.937  0.00  0.00    +0.078 C 
ATOM      3  C   UNL     1      32.664  -8.351 -21.015  0.00  0.00    +0.026 C 
ENDROOT
BRANCH   2   6
ATOM      4 BR   UNL     1      34.427 -17.497 -24.777  0.00  0.00    -0.047 Br
ATOM      5  O   UNL     1      32.396 -11.660 -21.631  0.00  0.00    -0.252 OA
ATOM      6  N   UNL     1      32.003  -9.827 -22.983  0.00  0.00    -0.290 N 
ATOM      7  N   UNL     1      32.680 -11.803 -23.959  0.00  0.00    -0.254 N 
ATOM      8  N   UNL     1      33.206 -13.928 -23.062  0.00  0.00    -0.228 NA
ATOM      9  C   UNL     1      32.369 -11.165 -22.756  0.00  0.00    +0.305 C 
ATOM     10  C   UNL     1      33.091 -13.143 -24.149  0.00  0.00    +0.135 C 
ATOM     11  C   UNL     1      33.342 -13.542 -25.445  0.00  0.00    +0.035 C 
ATOM     12  C   UNL     1      33.746 -14.857 -25.642  0.00  0.00    +0.011 C 
ATOM     13  C   UNL     1      33.602 -15.200 -23.293  0.00  0.00    +0.107 C 
ATOM     14  C   UNL     1      33.881 -15.709 -24.552  0.00  0.00    +0.054 C 
ATOM     15  H   UNL     1      32.003  -9.492 -23.908  0.00  0.00    +0.151 HD
ATOM     16  H   UNL     1      32.605 -11.254 -24.771  0.00  0.00    +0.158 HD
ENDBRANCH   2   6
BRANCH   1  18
ATOM     17  F   UNL     1      34.607  -8.298 -22.559  0.00  0.00    -0.204 F 
ATOM     18  C   UNL     1      32.740  -6.975 -23.194  0.00  0.00    +0.040 C 
ATOM     19  C   UNL     1      32.165  -6.064 -24.078  0.00  0.00    +0.134 C 
ATOM     20  C   UNL     1      34.044  -7.423 -23.403  0.00  0.00    +0.139 C 
ATOM     21  C   UNL     1      32.894  -5.599 -25.173  0.00  0.00    +0.068 C 
ATOM     22  C   UNL     1      34.774  -6.959 -24.499  0.00  0.00    +0.030 C 
ATOM     23  C   UNL     1      34.198  -6.047 -25.384  0.00  0.00    +0.008 C 
BRANCH  19  24
ATOM     24  O   UNL     1      30.889  -5.625 -23.872  0.00  0.00    -0.506 OA
ATOM     25  H   UNL     1      30.354  -6.034 -23.221  0.00  0.00    +0.292 HD
ENDBRANCH  19  24
BRANCH  21  27
ATOM     26  O   UNL     1      31.368  -3.910 -25.767  0.00  0.00    -0.291 OA
ATOM     27  C   UNL     1      32.312  -4.648 -26.111  0.00  0.00    +0.176 C 
BRANCH  27  28
ATOM     28  C   UNL     1      32.867  -4.547 -27.542  0.00  0.00    +0.069 C 
ATOM     29  C   UNL     1      32.220  -3.446 -28.366  0.00  0.00    +0.009 C 
ENDBRANCH  27  28
ENDBRANCH  21  27
ENDBRANCH   1  18
TORSDOF 5
ENDMDL
MODEL 7
REMARK VINA RESULT:      -8.4      5.049      9.821
REMARK  Name = 445332
REMARK  5 active torsions:
REMARK  status: ('A' for Active; 'I' for Inactive)
REMARK    1  A    between atoms: C_1  and  C_18
REMARK    2  A    between atoms: C_2  and  N_6
REMARK    3  A    between atoms: C_19  and  O_24
REMARK    4  A    between atoms: C_21  and  C_27
REMARK    5  A    between atoms: C_27  and  C_28
REMARK                            x       y       z     vdW  Elec       q    Type
REMARK                         _______ _______ _______ _____ _____    ______ ____
ROOT
ATOM      1  C   UNL     1      33.602 -13.007 -27.153  0.00  0.00    +0.047 C 
ATOM      2  C   UNL     1      33.586 -14.434 -26.708  0.00  0.00    +0.078 C 
ATOM      3  C   UNL     1      32.299 -13.727 -27.011  0.00  0.00    +0.026 C 
ENDROOT
BRANCH   2   6
ATOM      4 BR   UNL     1      35.695 -21.014 -20.270  0.00  0.00    -0.047 Br
ATOM      5  O   UNL     1      34.049 -17.068 -25.730  0.00  0.00    -0.252 OA
ATOM      6  N   UNL     1      33.936 -14.787 -25.374  0.00  0.00    -0.290 N 
ATOM      7  N   UNL     1      34.478 -16.163 -23.605  0.00  0.00    -0.254 N 
ATOM      8  N   UNL     1      34.725 -18.508 -23.424  0.00  0.00    -0.228 NA
ATOM      9  C   UNL     1      34.150 -16.114 -24.961  0.00  0.00    +0.305 C 
ATOM     10  C   UNL     1      34.764 -17.306 -22.822  0.00  0.00    +0.135 C 
ATOM     11  C   UNL     1      35.064 -17.094 -21.493  0.00  0.00    +0.035 C 
ATOM     12  C   UNL     1      35.346 -18.211 -20.715  0.00  0.00    +0.011 C 
ATOM     13  C   UNL     1      35.004 -19.571 -22.636  0.00  0.00    +0.107 C 
ATOM     14  C   UNL     1      35.319 -19.477 -21.289  0.00  0.00    +0.054 C 
ATOM     15  H   UNL     1      34.032 -14.069 -24.708  0.00  0.00    +0.151 HD
ATOM     16  H   UNL     1      34.515 -15.298 -23.137  0.00  0.00    +0.158 HD
ENDBRANCH   2   6
BRANCH   1  18
ATOM     17  F   UNL     1      35.746 -11.235 -27.559  0.00  0.00    -0.204 F 
ATOM     18  C   UNL     1      33.957 -11.943 -26.167  0.00  0.00    +0.040 C 
ATOM     19  C   UNL     1      33.224 -11.791 -24.991  0.00  0.00    +0.134 C 
ATOM     20  C   UNL     1      35.035 -11.098 -26.432  0.00  0.00    +0.139 C 
ATOM     21  C   UNL     1      33.569 -10.793 -24.078  0.00  0.00    +0.068 C 
ATOM     22  C   UNL     1      35.379 -10.099 -25.520  0.00  0.00    +0.030 C 
ATOM     23  C   UNL     1      34.645  -9.947 -24.343  0.00  0.00    +0.008 C 
BRANCH  19  24
ATOM     24  O   UNL     1      32.171 -12.620 -24.731  0.00  0.00    -0.506 OA
ATOM     25  H   UNL     1      32.284 -13.353 -24.160  0.00  0.00    +0.292 HD
ENDBRANCH  19  24
BRANCH  21  27
ATOM     26  O   UNL     1      32.466 -11.601 -22.164  0.00  0.00    -0.291 OA
ATOM     27  C   UNL     1      32.816 -10.616 -22.843  0.00  0.00    +0.176 C 
BRANCH  27  28
ATOM     28  C   UNL     1      32.448  -9.200 -22.368  0.00  0.00    +0.069 C 
ATOM     29  C   UNL     1      31.438  -8.504 -23.265  0.00  0.00    +0.009 C 
ENDBRANCH  27  28
ENDBRANCH  21  27
ENDBRANCH   1  18
TORSDOF 5
ENDMDL
MODEL 8
REMARK VINA RESULT:      -8.3      5.335      8.360
REMARK  Name = 445332
REMARK  5 active torsions:
REMARK  status: ('A' for Active; 'I' for Inactive)
REMARK    1  A    between atoms: C_1  and  C_18
REMARK    2  A    between atoms: C_2  and  N_6
REMARK    3  A    between atoms: C_19  and  O_24
REMARK    4  A    between atoms: C_21  and  C_27
REMARK    5  A    between atoms: C_27  and  C_28
REMARK                            x       y       z     vdW  Elec       q    Type
REMARK                         _______ _______ _______ _____ _____    ______ ____
ROOT
ATOM      1  C   UNL     1      33.730 -24.577 -13.484  0.00  0.00    +0.047 C 
ATOM      2  C   UNL     1      33.238 -24.018 -14.780  0.00  0.00    +0.078 C 
ATOM      3  C   UNL     1      33.171 -25.494 -14.525  0.00  0.00    +0.026 C 
ENDROOT
BRANCH   2   6
ATOM      4 BR   UNL     1      34.838 -19.272 -22.787  0.00  0.00    -0.047 Br
ATOM      5  O   UNL     1      32.548 -22.580 -17.139  0.00  0.00    -0.252 OA
ATOM      6  N   UNL     1      34.148 -23.477 -15.733  0.00  0.00    -0.290 N 
ATOM      7  N   UNL     1      34.835 -22.362 -17.630  0.00  0.00    -0.254 N 
ATOM      8  N   UNL     1      33.645 -21.282 -19.366  0.00  0.00    -0.228 NA
ATOM      9  C   UNL     1      33.733 -22.776 -16.879  0.00  0.00    +0.305 C 
ATOM     10  C   UNL     1      34.833 -21.635 -18.844  0.00  0.00    +0.135 C 
ATOM     11  C   UNL     1      36.062 -21.342 -19.399  0.00  0.00    +0.035 C 
ATOM     12  C   UNL     1      36.070 -20.628 -20.591  0.00  0.00    +0.011 C 
ATOM     13  C   UNL     1      33.693 -20.589 -20.526  0.00  0.00    +0.107 C 
ATOM     14  C   UNL     1      34.869 -20.240 -21.173  0.00  0.00    +0.054 C 
ATOM     15  H   UNL     1      35.113 -23.600 -15.583  0.00  0.00    +0.151 HD
ATOM     16  H   UNL     1      35.719 -22.605 -17.273  0.00  0.00    +0.158 HD
ENDBRANCH   2   6
BRANCH   1  18
ATOM     17  F   UNL     1      34.885 -23.115 -11.379  0.00  0.00    -0.204 F 
ATOM     18  C   UNL     1      35.197 -24.595 -13.209  0.00  0.00    +0.040 C 
ATOM     19  C   UNL     1      36.059 -25.351 -14.003  0.00  0.00    +0.134 C 
ATOM     20  C   UNL     1      35.704 -23.845 -12.148  0.00  0.00    +0.139 C 
ATOM     21  C   UNL     1      37.428 -25.357 -13.737  0.00  0.00    +0.068 C 
ATOM     22  C   UNL     1      37.074 -23.851 -11.881  0.00  0.00    +0.030 C 
ATOM     23  C   UNL     1      37.936 -24.608 -12.675  0.00  0.00    +0.008 C 
BRANCH  19  24
ATOM     24  O   UNL     1      35.563 -26.083 -15.043  0.00  0.00    -0.506 OA
ATOM     25  H   UNL     1      35.084 -26.870 -14.873  0.00  0.00    +0.292 HD
ENDBRANCH  19  24
BRANCH  21  27
ATOM     26  O   UNL     1      38.035 -27.282 -14.945  0.00  0.00    -0.291 OA
ATOM     27  C   UNL     1      38.347 -26.140 -14.553  0.00  0.00    +0.176 C 
BRANCH  27  28
ATOM     28  C   UNL     1      39.716 -25.556 -14.938  0.00  0.00    +0.069 C 
ATOM     29  C   UNL     1      40.881 -26.214 -14.215  0.00  0.00    +0.009 C 
ENDBRANCH  27  28
ENDBRANCH  21  27
ENDBRANCH   1  18
TORSDOF 5
ENDMDL
MODEL 9
REMARK VINA RESULT:      -8.2      4.422      6.684
REMARK  Name = 445332
REMARK  5 active torsions:
REMARK  status: ('A' for Active; 'I' for Inactive)
REMARK    1  A    between atoms: C_1  and  C_18
REMARK    2  A    between atoms: C_2  and  N_6
REMARK    3  A    between atoms: C_19  and  O_24
REMARK    4  A    between atoms: C_21  and  C_27
REMARK    5  A    between atoms: C_27  and  C_28
REMARK                            x       y       z     vdW  Elec       q    Type
REMARK                         _______ _______ _______ _____ _____    ______ ____
ROOT
ATOM      1  C   UNL     1      34.609 -24.207 -15.138  0.00  0.00    +0.047 C 
ATOM      2  C   UNL     1      35.202 -23.711 -16.418  0.00  0.00    +0.078 C 
ATOM      3  C   UNL     1      35.742 -23.231 -15.103  0.00  0.00    +0.026 C 
ENDROOT
BRANCH   2   6
ATOM      4 BR   UNL     1      34.929 -17.728 -23.720  0.00  0.00    -0.047 Br
ATOM      5  O   UNL     1      36.256 -22.204 -18.592  0.00  0.00    -0.252 OA
ATOM      6  N   UNL     1      34.467 -22.841 -17.274  0.00  0.00    -0.290 N 
ATOM      7  N   UNL     1      34.102 -21.356 -18.999  0.00  0.00    -0.254 N 
ATOM      8  N   UNL     1      35.544 -20.397 -20.611  0.00  0.00    -0.228 NA
ATOM      9  C   UNL     1      35.057 -22.127 -18.331  0.00  0.00    +0.305 C 
ATOM     10  C   UNL     1      34.299 -20.503 -20.110  0.00  0.00    +0.135 C 
ATOM     11  C   UNL     1      33.190 -19.843 -20.595  0.00  0.00    +0.035 C 
ATOM     12  C   UNL     1      33.373 -19.002 -21.687  0.00  0.00    +0.011 C 
ATOM     13  C   UNL     1      35.683 -19.570 -21.671  0.00  0.00    +0.107 C 
ATOM     14  C   UNL     1      34.640 -18.857 -22.242  0.00  0.00    +0.054 C 
ATOM     15  H   UNL     1      33.502 -22.734 -17.117  0.00  0.00    +0.151 HD
ATOM     16  H   UNL     1      33.182 -21.413 -18.655  0.00  0.00    +0.158 HD
ENDBRANCH   2   6
BRANCH   1  18
ATOM     17  F   UNL     1      33.928 -23.620 -12.475  0.00  0.00    -0.204 F 
ATOM     18  C   UNL     1      33.243 -23.751 -14.745  0.00  0.00    +0.040 C 
ATOM     19  C   UNL     1      32.241 -23.599 -15.703  0.00  0.00    +0.134 C 
ATOM     20  C   UNL     1      32.973 -23.478 -13.404  0.00  0.00    +0.139 C 
ATOM     21  C   UNL     1      30.968 -23.174 -15.321  0.00  0.00    +0.068 C 
ATOM     22  C   UNL     1      31.700 -23.052 -13.021  0.00  0.00    +0.030 C 
ATOM     23  C   UNL     1      30.698 -22.900 -13.980  0.00  0.00    +0.008 C 
BRANCH  19  24
ATOM     24  O   UNL     1      32.505 -23.869 -17.014  0.00  0.00    -0.506 OA
ATOM     25  H   UNL     1      32.034 -24.548 -17.456  0.00  0.00    +0.292 HD
ENDBRANCH  19  24
BRANCH  21  27
ATOM     26  O   UNL     1      30.118 -22.402 -17.373  0.00  0.00    -0.291 OA
ATOM     27  C   UNL     1      29.907 -23.009 -16.305  0.00  0.00    +0.176 C 
BRANCH  27  28
ATOM     28  C   UNL     1      28.509 -23.588 -16.028  0.00  0.00    +0.069 C 
ATOM     29  C   UNL     1      27.434 -22.525 -15.868  0.00  0.00    +0.009 C 
ENDBRANCH  27  28
ENDBRANCH  21  27
ENDBRANCH   1  18
TORSDOF 5
ENDMDL
