MODEL 1
REMARK VINA RESULT:      -8.5      0.000      0.000
REMARK  Name = 5593
REMARK  7 active torsions:
REMARK  status: ('A' for Active; 'I' for Inactive)
REMARK    1  A    between atoms: N_2  and  C_4
REMARK    2  A    between atoms: N_2  and  C_16
REMARK    3  A    between atoms: C_3  and  C_6
REMARK    4  A    between atoms: C_6  and  C_7
REMARK    5  A    between atoms: C_6  and  C_13
REMARK    6  A    between atoms: C_13  and  O_14
REMARK    7  A    between atoms: C_16  and  C_18
REMARK                            x       y       z     vdW  Elec       q    Type
REMARK                         _______ _______ _______ _____ _____    ______ ____
ROOT
ATOM      1  O   UNL     1      34.536 -19.317 -23.341  0.00  0.00    -0.274 OA
ATOM      2  N   UNL     1      34.589 -17.057 -22.855  0.00  0.00    -0.275 N 
ATOM      3  C   UNL     1      34.830 -18.403 -22.561  0.00  0.00    +0.232 C 
ENDROOT
BRANCH   2   4
ATOM      4  C   UNL     1      34.029 -16.700 -24.154  0.00  0.00    +0.094 C 
ATOM      5  C   UNL     1      35.050 -16.860 -25.260  0.00  0.00    +0.023 C 
ENDBRANCH   2   4
BRANCH   3   6
ATOM      6  C   UNL     1      35.505 -18.736 -21.218  0.00  0.00    +0.128 C 
BRANCH   6   7
ATOM      7  C   UNL     1      34.851 -19.930 -20.542  0.00  0.00    -0.011 C 
ATOM      8  C   UNL     1      33.475 -19.974 -20.448  0.00  0.00    -0.004 C 
ATOM      9  C   UNL     1      35.653 -20.938 -20.043  0.00  0.00    -0.004 C 
ATOM     10  C   UNL     1      32.875 -21.070 -19.827  0.00  0.00    -0.000 C 
ATOM     11  C   UNL     1      35.053 -22.034 -19.423  0.00  0.00    -0.000 C 
ATOM     12  C   UNL     1      33.664 -22.099 -19.315  0.00  0.00    -0.000 C 
ENDBRANCH   6   7
BRANCH   6  13
ATOM     13  C   UNL     1      37.007 -19.020 -21.399  0.00  0.00    +0.151 C 
BRANCH  13  14
ATOM     14  O   UNL     1      37.486 -18.400 -22.587  0.00  0.00    -0.381 OA
ATOM     15  H   UNL     1      37.959 -17.584 -22.360  0.00  0.00    +0.210 HD
ENDBRANCH  13  14
ENDBRANCH   6  13
ENDBRANCH   3   6
BRANCH   2  16
ATOM     16  C   UNL     1      34.905 -15.922 -21.990  0.00  0.00    +0.120 C 
BRANCH  16  18
ATOM     17  N   UNL     1      32.280 -12.605 -22.683  0.00  0.00    -0.242 NA
ATOM     18  C   UNL     1      33.983 -14.756 -22.234  0.00  0.00    +0.001 C 
ATOM     19  C   UNL     1      32.885 -14.571 -21.413  0.00  0.00    +0.018 C 
ATOM     20  C   UNL     1      34.244 -13.884 -23.275  0.00  0.00    +0.018 C 
ATOM     21  C   UNL     1      32.068 -13.484 -21.679  0.00  0.00    +0.099 C 
ATOM     22  C   UNL     1      33.367 -12.829 -23.457  0.00  0.00    +0.099 C 
ENDBRANCH  16  18
ENDBRANCH   2  16
TORSDOF 7
ENDMDL
MODEL 2
REMARK VINA RESULT:      -8.3      4.302      7.759
REMARK  Name = 5593
REMARK  7 active torsions:
REMARK  status: ('A' for Active; 'I' for Inactive)
REMARK    1  A    between atoms: N_2  and  C_4
REMARK    2  A    between atoms: N_2  and  C_16
REMARK    3  A    between atoms: C_3  and  C_6
REMARK    4  A    between atoms: C_6  and  C_7
REMARK    5  A    between atoms: C_6  and  C_13
REMARK    6  A    between atoms: C_13  and  O_14
REMARK    7  A    between atoms: C_16  and  C_18
REMARK                            x       y       z     vdW  Elec       q    Type
REMARK                         _______ _______ _______ _____ _____    ______ ____
ROOT
ATOM      1  O   UNL     1      34.672 -14.228 -23.208  0.00  0.00    -0.274 OA
ATOM      2  N   UNL     1      32.817 -13.445 -22.071  0.00  0.00    -0.275 N 
ATOM      3  C   UNL     1      33.615 -13.585 -23.211  0.00  0.00    +0.232 C 
ENDROOT
BRANCH   2   4
ATOM      4  C   UNL     1      33.201 -14.132 -20.843  0.00  0.00    +0.094 C 
ATOM      5  C   UNL     1      32.520 -15.480 -20.725  0.00  0.00    +0.023 C 
ENDBRANCH   2   4
BRANCH   3   6
ATOM      6  C   UNL     1      33.131 -12.920 -24.513  0.00  0.00    +0.128 C 
BRANCH   6   7
ATOM      7  C   UNL     1      33.984 -11.716 -24.878  0.00  0.00    -0.011 C 
ATOM      8  C   UNL     1      34.622 -11.694 -26.101  0.00  0.00    -0.004 C 
ATOM      9  C   UNL     1      34.095 -10.677 -23.975  0.00  0.00    -0.004 C 
ATOM     10  C   UNL     1      35.405 -10.589 -26.436  0.00  0.00    -0.000 C 
ATOM     11  C   UNL     1      34.877  -9.571 -24.311  0.00  0.00    -0.000 C 
ATOM     12  C   UNL     1      35.532  -9.528 -25.541  0.00  0.00    -0.000 C 
ENDBRANCH   6   7
BRANCH   6  13
ATOM     13  C   UNL     1      33.136 -13.915 -25.687  0.00  0.00    +0.151 C 
BRANCH  13  14
ATOM     14  O   UNL     1      33.161 -15.253 -25.200  0.00  0.00    -0.381 OA
ATOM     15  H   UNL     1      32.671 -15.828 -25.808  0.00  0.00    +0.210 HD
ENDBRANCH  13  14
ENDBRANCH   6  13
ENDBRANCH   3   6
BRANCH   2  16
ATOM     16  C   UNL     1      31.559 -12.705 -21.991  0.00  0.00    +0.120 C 
BRANCH  16  18
ATOM     17  N   UNL     1      31.911  -9.215 -19.528  0.00  0.00    -0.242 NA
ATOM     18  C   UNL     1      31.682 -11.479 -21.125  0.00  0.00    +0.001 C 
ATOM     19  C   UNL     1      31.861 -10.242 -21.716  0.00  0.00    +0.018 C 
ATOM     20  C   UNL     1      31.616 -11.604 -19.750  0.00  0.00    +0.018 C 
ATOM     21  C   UNL     1      31.970  -9.145 -20.877  0.00  0.00    +0.099 C 
ATOM     22  C   UNL     1      31.735 -10.447 -18.998  0.00  0.00    +0.099 C 
ENDBRANCH  16  18
ENDBRANCH   2  16
TORSDOF 7
ENDMDL
MODEL 3
REMARK VINA RESULT:      -8.3      1.566      2.580
REMARK  Name = 5593
REMARK  7 active torsions:
REMARK  status: ('A' for Active; 'I' for Inactive)
REMARK    1  A    between atoms: N_2  and  C_4
REMARK    2  A    between atoms: N_2  and  C_16
REMARK    3  A    between atoms: C_3  and  C_6
REMARK    4  A    between atoms: C_6  and  C_7
REMARK    5  A    between atoms: C_6  and  C_13
REMARK    6  A    between atoms: C_13  and  O_14
REMARK    7  A    between atoms: C_16  and  C_18
REMARK                            x       y       z     vdW  Elec       q    Type
REMARK                         _______ _______ _______ _____ _____    ______ ____
ROOT
ATOM      1  O   UNL     1      32.717 -18.272 -20.638  0.00  0.00    -0.274 OA
ATOM      2  N   UNL     1      33.625 -16.359 -21.570  0.00  0.00    -0.275 N 
ATOM      3  C   UNL     1      33.645 -17.719 -21.241  0.00  0.00    +0.232 C 
ENDROOT
BRANCH   2   4
ATOM      4  C   UNL     1      32.441 -15.568 -21.253  0.00  0.00    +0.094 C 
ATOM      5  C   UNL     1      32.738 -14.527 -20.194  0.00  0.00    +0.023 C 
ENDBRANCH   2   4
BRANCH   3   6
ATOM      6  C   UNL     1      34.872 -18.544 -21.671  0.00  0.00    +0.128 C 
BRANCH   6   7
ATOM      7  C   UNL     1      35.090 -19.742 -20.761  0.00  0.00    -0.011 C 
ATOM      8  C   UNL     1      33.999 -20.490 -20.368  0.00  0.00    -0.004 C 
ATOM      9  C   UNL     1      36.374 -20.049 -20.355  0.00  0.00    -0.004 C 
ATOM     10  C   UNL     1      34.199 -21.590 -19.532  0.00  0.00    -0.000 C 
ATOM     11  C   UNL     1      36.573 -21.149 -19.520  0.00  0.00    -0.000 C 
ATOM     12  C   UNL     1      35.486 -21.918 -19.109  0.00  0.00    -0.000 C 
ENDBRANCH   6   7
BRANCH   6  13
ATOM     13  C   UNL     1      34.739 -19.033 -23.124  0.00  0.00    +0.151 C 
BRANCH  13  14
ATOM     14  O   UNL     1      35.803 -18.518 -23.917  0.00  0.00    -0.381 OA
ATOM     15  H   UNL     1      35.461 -18.250 -24.784  0.00  0.00    +0.210 HD
ENDBRANCH  13  14
ENDBRANCH   6  13
ENDBRANCH   3   6
BRANCH   2  16
ATOM     16  C   UNL     1      34.677 -15.633 -22.278  0.00  0.00    +0.120 C 
BRANCH  16  18
ATOM     17  N   UNL     1      33.206 -13.757 -25.839  0.00  0.00    -0.242 NA
ATOM     18  C   UNL     1      34.160 -14.974 -23.529  0.00  0.00    +0.001 C 
ATOM     19  C   UNL     1      34.022 -13.599 -23.569  0.00  0.00    +0.018 C 
ATOM     20  C   UNL     1      33.830 -15.752 -24.624  0.00  0.00    +0.018 C 
ATOM     21  C   UNL     1      33.543 -13.041 -24.743  0.00  0.00    +0.099 C 
ATOM     22  C   UNL     1      33.360 -15.098 -25.751  0.00  0.00    +0.099 C 
ENDBRANCH  16  18
ENDBRANCH   2  16
TORSDOF 7
ENDMDL
MODEL 4
REMARK VINA RESULT:      -8.2      5.728      8.743
REMARK  Name = 5593
REMARK  7 active torsions:
REMARK  status: ('A' for Active; 'I' for Inactive)
REMARK    1  A    between atoms: N_2  and  C_4
REMARK    2  A    between atoms: N_2  and  C_16
REMARK    3  A    between atoms: C_3  and  C_6
REMARK    4  A    between atoms: C_6  and  C_7
REMARK    5  A    between atoms: C_6  and  C_13
REMARK    6  A    between atoms: C_13  and  O_14
REMARK    7  A    between atoms: C_16  and  C_18
REMARK                            x       y       z     vdW  Elec       q    Type
REMARK                         _______ _______ _______ _____ _____    ______ ____
ROOT
ATOM      1  O   UNL     1      34.453  -8.466 -23.099  0.00  0.00    -0.274 OA
ATOM      2  N   UNL     1      34.075 -10.293 -24.467  0.00  0.00    -0.275 N 
ATOM      3  C   UNL     1      33.664  -9.282 -23.592  0.00  0.00    +0.232 C 
ENDROOT
BRANCH   2   4
ATOM      4  C   UNL     1      35.475 -10.358 -24.872  0.00  0.00    +0.094 C 
ATOM      5  C   UNL     1      35.616 -10.376 -26.380  0.00  0.00    +0.023 C 
ENDBRANCH   2   4
BRANCH   3   6
ATOM      6  C   UNL     1      32.164  -9.188 -23.257  0.00  0.00    +0.128 C 
BRANCH   6   7
ATOM      7  C   UNL     1      31.860  -9.754 -21.879  0.00  0.00    -0.011 C 
ATOM      8  C   UNL     1      32.169  -9.002 -20.764  0.00  0.00    -0.004 C 
ATOM      9  C   UNL     1      31.282 -11.005 -21.783  0.00  0.00    -0.004 C 
ATOM     10  C   UNL     1      31.890  -9.522 -19.499  0.00  0.00    -0.000 C 
ATOM     11  C   UNL     1      31.003 -11.524 -20.518  0.00  0.00    -0.000 C 
ATOM     12  C   UNL     1      31.308 -10.782 -19.377  0.00  0.00    -0.000 C 
ENDBRANCH   6   7
BRANCH   6  13
ATOM     13  C   UNL     1      31.662  -7.734 -23.326  0.00  0.00    +0.151 C 
BRANCH  13  14
ATOM     14  O   UNL     1      32.465  -6.978 -24.226  0.00  0.00    -0.381 OA
ATOM     15  H   UNL     1      32.359  -6.032 -24.038  0.00  0.00    +0.210 HD
ENDBRANCH  13  14
ENDBRANCH   6  13
ENDBRANCH   3   6
BRANCH   2  16
ATOM     16  C   UNL     1      33.210 -11.292 -25.089  0.00  0.00    +0.120 C 
BRANCH  16  18
ATOM     17  N   UNL     1      33.945 -15.225 -23.555  0.00  0.00    -0.242 NA
ATOM     18  C   UNL     1      33.468 -12.674 -24.550  0.00  0.00    +0.001 C 
ATOM     19  C   UNL     1      33.281 -13.772 -25.369  0.00  0.00    +0.018 C 
ATOM     20  C   UNL     1      33.889 -12.829 -23.242  0.00  0.00    +0.018 C 
ATOM     21  C   UNL     1      33.533 -15.022 -24.826  0.00  0.00    +0.099 C 
ATOM     22  C   UNL     1      34.114 -14.120 -22.794  0.00  0.00    +0.099 C 
ENDBRANCH  16  18
ENDBRANCH   2  16
TORSDOF 7
ENDMDL
MODEL 5
REMARK VINA RESULT:      -8.1      6.023     11.014
REMARK  Name = 5593
REMARK  7 active torsions:
REMARK  status: ('A' for Active; 'I' for Inactive)
REMARK    1  A    between atoms: N_2  and  C_4
REMARK    2  A    between atoms: N_2  and  C_16
REMARK    3  A    between atoms: C_3  and  C_6
REMARK    4  A    between atoms: C_6  and  C_7
REMARK    5  A    between atoms: C_6  and  C_13
REMARK    6  A    between atoms: C_13  and  O_14
REMARK    7  A    between atoms: C_16  and  C_18
REMARK                            x       y       z     vdW  Elec       q    Type
REMARK                         _______ _______ _______ _____ _____    ______ ____
ROOT
ATOM      1  O   UNL     1      33.319  -7.710 -20.855  0.00  0.00    -0.274 OA
ATOM      2  N   UNL     1      32.065  -9.618 -21.223  0.00  0.00    -0.275 N 
ATOM      3  C   UNL     1      32.721  -8.455 -21.640  0.00  0.00    +0.232 C 
ENDROOT
BRANCH   2   4
ATOM      4  C   UNL     1      32.138 -10.013 -19.821  0.00  0.00    +0.094 C 
ATOM      5  C   UNL     1      30.790 -10.469 -19.302  0.00  0.00    +0.023 C 
ENDBRANCH   2   4
BRANCH   3   6
ATOM      6  C   UNL     1      32.699  -8.117 -23.143  0.00  0.00    +0.128 C 
BRANCH   6   7
ATOM      7  C   UNL     1      32.186  -6.709 -23.394  0.00  0.00    -0.011 C 
ATOM      8  C   UNL     1      32.535  -6.069 -24.565  0.00  0.00    -0.004 C 
ATOM      9  C   UNL     1      31.383  -6.110 -22.443  0.00  0.00    -0.004 C 
ATOM     10  C   UNL     1      32.064  -4.775 -24.795  0.00  0.00    -0.000 C 
ATOM     11  C   UNL     1      30.912  -4.818 -22.673  0.00  0.00    -0.000 C 
ATOM     12  C   UNL     1      31.253  -4.151 -23.850  0.00  0.00    -0.000 C 
ENDBRANCH   6   7
BRANCH   6  13
ATOM     13  C   UNL     1      34.096  -8.264 -23.772  0.00  0.00    +0.151 C 
BRANCH  13  14
ATOM     14  O   UNL     1      35.076  -7.645 -22.946  0.00  0.00    -0.381 OA
ATOM     15  H   UNL     1      35.949  -7.729 -23.361  0.00  0.00    +0.210 HD
ENDBRANCH  13  14
ENDBRANCH   6  13
ENDBRANCH   3   6
BRANCH   2  16
ATOM     16  C   UNL     1      31.338 -10.548 -22.085  0.00  0.00    +0.120 C 
BRANCH  16  18
ATOM     17  N   UNL     1      33.689 -13.994 -23.065  0.00  0.00    -0.242 NA
ATOM     18  C   UNL     1      32.164 -11.759 -22.429  0.00  0.00    +0.001 C 
ATOM     19  C   UNL     1      33.066 -11.694 -23.475  0.00  0.00    +0.018 C 
ATOM     20  C   UNL     1      32.011 -12.921 -21.696  0.00  0.00    +0.018 C 
ATOM     21  C   UNL     1      33.802 -12.836 -23.752  0.00  0.00    +0.099 C 
ATOM     22  C   UNL     1      32.794 -14.006 -22.052  0.00  0.00    +0.099 C 
ENDBRANCH  16  18
ENDBRANCH   2  16
TORSDOF 7
ENDMDL
MODEL 6
REMARK VINA RESULT:      -7.7      7.524     11.347
REMARK  Name = 5593
REMARK  7 active torsions:
REMARK  status: ('A' for Active; 'I' for Inactive)
REMARK    1  A    between atoms: N_2  and  C_4
REMARK    2  A    between atoms: N_2  and  C_16
REMARK    3  A    between atoms: C_3  and  C_6
REMARK    4  A    between atoms: C_6  and  C_7
REMARK    5  A    between atoms: C_6  and  C_13
REMARK    6  A    between atoms: C_13  and  O_14
REMARK    7  A    between atoms: C_16  and  C_18
REMARK                            x       y       z     vdW  Elec       q    Type
REMARK                         _______ _______ _______ _____ _____    ______ ____
ROOT
ATOM      1  O   UNL     1      35.468 -26.023 -16.038  0.00  0.00    -0.274 OA
ATOM      2  N   UNL     1      37.033 -25.019 -14.662  0.00  0.00    -0.275 N 
ATOM      3  C   UNL     1      35.842 -25.033 -15.397  0.00  0.00    +0.232 C 
ENDROOT
BRANCH   2   4
ATOM      4  C   UNL     1      37.838 -26.233 -14.588  0.00  0.00    +0.094 C 
ATOM      5  C   UNL     1      39.318 -25.915 -14.548  0.00  0.00    +0.023 C 
ENDBRANCH   2   4
BRANCH   3   6
ATOM      6  C   UNL     1      34.972 -23.763 -15.379  0.00  0.00    +0.128 C 
BRANCH   6   7
ATOM      7  C   UNL     1      35.030 -23.024 -16.707  0.00  0.00    -0.011 C 
ATOM      8  C   UNL     1      36.195 -22.374 -17.060  0.00  0.00    -0.004 C 
ATOM      9  C   UNL     1      33.916 -23.026 -17.522  0.00  0.00    -0.004 C 
ATOM     10  C   UNL     1      36.248 -21.696 -18.279  0.00  0.00    -0.000 C 
ATOM     11  C   UNL     1      33.969 -22.349 -18.741  0.00  0.00    -0.000 C 
ATOM     12  C   UNL     1      35.136 -21.684 -19.118  0.00  0.00    -0.000 C 
ENDBRANCH   6   7
BRANCH   6  13
ATOM     13  C   UNL     1      33.505 -24.091 -15.050  0.00  0.00    +0.151 C 
BRANCH  13  14
ATOM     14  O   UNL     1      33.438 -25.052 -14.002  0.00  0.00    -0.381 OA
ATOM     15  H   UNL     1      32.918 -25.816 -14.295  0.00  0.00    +0.210 HD
ENDBRANCH  13  14
ENDBRANCH   6  13
ENDBRANCH   3   6
BRANCH   2  16
ATOM     16  C   UNL     1      37.545 -23.895 -13.882  0.00  0.00    +0.120 C 
BRANCH  16  18
ATOM     17  N   UNL     1      35.991 -23.880  -9.888  0.00  0.00    -0.242 NA
ATOM     18  C   UNL     1      36.999 -23.890 -12.479  0.00  0.00    +0.001 C 
ATOM     19  C   UNL     1      36.196 -24.932 -12.055  0.00  0.00    +0.018 C 
ATOM     20  C   UNL     1      37.307 -22.842 -11.630  0.00  0.00    +0.018 C 
ATOM     21  C   UNL     1      35.719 -24.881 -10.755  0.00  0.00    +0.099 C 
ATOM     22  C   UNL     1      36.781 -22.885 -10.349  0.00  0.00    +0.099 C 
ENDBRANCH  16  18
ENDBRANCH   2  16
TORSDOF 7
ENDMDL
MODEL 7
REMARK VINA RESULT:      -7.6      8.202     10.951
REMARK  Name = 5593
REMARK  7 active torsions:
REMARK  status: ('A' for Active; 'I' for Inactive)
REMARK    1  A    between atoms: N_2  and  C_4
REMARK    2  A    between atoms: N_2  and  C_16
REMARK    3  A    between atoms: C_3  and  C_6
REMARK    4  A    between atoms: C_6  and  C_7
REMARK    5  A    between atoms: C_6  and  C_13
REMARK    6  A    between atoms: C_13  and  O_14
REMARK    7  A    between atoms: C_16  and  C_18
REMARK                            x       y       z     vdW  Elec       q    Type
REMARK                         _______ _______ _______ _____ _____    ______ ____
ROOT
ATOM      1  O   UNL     1      32.944 -23.049 -17.071  0.00  0.00    -0.274 OA
ATOM      2  N   UNL     1      34.824 -23.141 -15.726  0.00  0.00    -0.275 N 
ATOM      3  C   UNL     1      33.448 -23.244 -15.958  0.00  0.00    +0.232 C 
ENDROOT
BRANCH   2   4
ATOM      4  C   UNL     1      35.715 -22.858 -16.845  0.00  0.00    +0.094 C 
ATOM      5  C   UNL     1      36.707 -21.766 -16.502  0.00  0.00    +0.023 C 
ENDBRANCH   2   4
BRANCH   3   6
ATOM      6  C   UNL     1      32.546 -23.633 -14.772  0.00  0.00    +0.128 C 
BRANCH   6   7
ATOM      7  C   UNL     1      31.073 -23.563 -15.140  0.00  0.00    -0.011 C 
ATOM      8  C   UNL     1      30.414 -22.356 -15.036  0.00  0.00    -0.004 C 
ATOM      9  C   UNL     1      30.437 -24.711 -15.570  0.00  0.00    -0.004 C 
ATOM     10  C   UNL     1      29.062 -22.292 -15.374  0.00  0.00    -0.000 C 
ATOM     11  C   UNL     1      29.085 -24.647 -15.909  0.00  0.00    -0.000 C 
ATOM     12  C   UNL     1      28.398 -23.437 -15.810  0.00  0.00    -0.000 C 
ENDBRANCH   6   7
BRANCH   6  13
ATOM     13  C   UNL     1      32.871 -25.048 -14.260  0.00  0.00    +0.151 C 
BRANCH  13  14
ATOM     14  O   UNL     1      32.957 -25.050 -12.839  0.00  0.00    -0.381 OA
ATOM     15  H   UNL     1      32.188 -25.512 -12.469  0.00  0.00    +0.210 HD
ENDBRANCH  13  14
ENDBRANCH   6  13
ENDBRANCH   3   6
BRANCH   2  16
ATOM     16  C   UNL     1      35.495 -23.354 -14.446  0.00  0.00    +0.120 C 
BRANCH  16  18
ATOM     17  N   UNL     1      38.266 -26.619 -14.617  0.00  0.00    -0.242 NA
ATOM     18  C   UNL     1      36.468 -24.501 -14.506  0.00  0.00    +0.001 C 
ATOM     19  C   UNL     1      37.749 -24.336 -14.012  0.00  0.00    +0.018 C 
ATOM     20  C   UNL     1      36.070 -25.707 -15.054  0.00  0.00    +0.018 C 
ATOM     21  C   UNL     1      38.607 -25.421 -14.091  0.00  0.00    +0.099 C 
ATOM     22  C   UNL     1      37.002 -26.731 -15.085  0.00  0.00    +0.099 C 
ENDBRANCH  16  18
ENDBRANCH   2  16
TORSDOF 7
ENDMDL
MODEL 8
REMARK VINA RESULT:      -7.6      2.495      4.236
REMARK  Name = 5593
REMARK  7 active torsions:
REMARK  status: ('A' for Active; 'I' for Inactive)
REMARK    1  A    between atoms: N_2  and  C_4
REMARK    2  A    between atoms: N_2  and  C_16
REMARK    3  A    between atoms: C_3  and  C_6
REMARK    4  A    between atoms: C_6  and  C_7
REMARK    5  A    between atoms: C_6  and  C_13
REMARK    6  A    between atoms: C_13  and  O_14
REMARK    7  A    between atoms: C_16  and  C_18
REMARK                            x       y       z     vdW  Elec       q    Type
REMARK                         _______ _______ _______ _____ _____    ______ ____
ROOT
ATOM      1  O   UNL     1      35.267 -14.566 -23.228  0.00  0.00    -0.274 OA
ATOM      2  N   UNL     1      33.320 -13.322 -23.118  0.00  0.00    -0.275 N 
ATOM      3  C   UNL     1      34.102 -14.445 -22.829  0.00  0.00    +0.232 C 
ENDROOT
BRANCH   2   4
ATOM      4  C   UNL     1      33.911 -12.215 -23.863  0.00  0.00    +0.094 C 
ATOM      5  C   UNL     1      33.629 -12.332 -25.346  0.00  0.00    +0.023 C 
ENDBRANCH   2   4
BRANCH   3   6
ATOM      6  C   UNL     1      33.475 -15.554 -21.964  0.00  0.00    +0.128 C 
BRANCH   6   7
ATOM      7  C   UNL     1      34.024 -16.925 -22.324  0.00  0.00    -0.011 C 
ATOM      8  C   UNL     1      34.234 -17.847 -21.319  0.00  0.00    -0.004 C 
ATOM      9  C   UNL     1      34.295 -17.209 -23.648  0.00  0.00    -0.004 C 
ATOM     10  C   UNL     1      34.738 -19.105 -21.649  0.00  0.00    -0.000 C 
ATOM     11  C   UNL     1      34.799 -18.468 -23.979  0.00  0.00    -0.000 C 
ATOM     12  C   UNL     1      35.020 -19.415 -22.979  0.00  0.00    -0.000 C 
ENDBRANCH   6   7
BRANCH   6  13
ATOM     13  C   UNL     1      33.708 -15.296 -20.464  0.00  0.00    +0.151 C 
BRANCH  13  14
ATOM     14  O   UNL     1      34.994 -14.724 -20.256  0.00  0.00    -0.381 OA
ATOM     15  H   UNL     1      35.600 -15.027 -20.951  0.00  0.00    +0.210 HD
ENDBRANCH  13  14
ENDBRANCH   6  13
ENDBRANCH   3   6
BRANCH   2  16
ATOM     16  C   UNL     1      31.941 -13.104 -22.687  0.00  0.00    +0.120 C 
BRANCH  16  18
ATOM     17  N   UNL     1      31.631  -9.868 -19.893  0.00  0.00    -0.242 NA
ATOM     18  C   UNL     1      31.833 -11.967 -21.705  0.00  0.00    +0.001 C 
ATOM     19  C   UNL     1      31.811 -12.236 -20.349  0.00  0.00    +0.018 C 
ATOM     20  C   UNL     1      31.754 -10.667 -22.171  0.00  0.00    +0.018 C 
ATOM     21  C   UNL     1      31.710 -11.155 -19.487  0.00  0.00    +0.099 C 
ATOM     22  C   UNL     1      31.656  -9.658 -21.229  0.00  0.00    +0.099 C 
ENDBRANCH  16  18
ENDBRANCH   2  16
TORSDOF 7
ENDMDL
MODEL 9
REMARK VINA RESULT:      -7.5      3.849      6.467
REMARK  Name = 5593
REMARK  7 active torsions:
REMARK  status: ('A' for Active; 'I' for Inactive)
REMARK    1  A    between atoms: N_2  and  C_4
REMARK    2  A    between atoms: N_2  and  C_16
REMARK    3  A    between atoms: C_3  and  C_6
REMARK    4  A    between atoms: C_6  and  C_7
REMARK    5  A    between atoms: C_6  and  C_13
REMARK    6  A    between atoms: C_13  and  O_14
REMARK    7  A    between atoms: C_16  and  C_18
REMARK                            x       y       z     vdW  Elec       q    Type
REMARK                         _______ _______ _______ _____ _____    ______ ____
ROOT
ATOM      1  O   UNL     1      31.604 -13.626 -22.131  0.00  0.00    -0.274 OA
ATOM      2  N   UNL     1      32.167 -11.407 -22.461  0.00  0.00    -0.275 N 
ATOM      3  C   UNL     1      32.387 -12.783 -22.584  0.00  0.00    +0.232 C 
ENDROOT
BRANCH   2   4
ATOM      4  C   UNL     1      30.938 -10.936 -21.832  0.00  0.00    +0.094 C 
ATOM      5  C   UNL     1      30.997 -11.076 -20.325  0.00  0.00    +0.023 C 
ENDBRANCH   2   4
BRANCH   3   6
ATOM      6  C   UNL     1      33.651 -13.244 -23.334  0.00  0.00    +0.128 C 
BRANCH   6   7
ATOM      7  C   UNL     1      34.189 -14.551 -22.776  0.00  0.00    -0.011 C 
ATOM      8  C   UNL     1      34.561 -15.550 -23.652  0.00  0.00    -0.004 C 
ATOM      9  C   UNL     1      34.291 -14.702 -21.407  0.00  0.00    -0.004 C 
ATOM     10  C   UNL     1      35.055 -16.750 -23.140  0.00  0.00    -0.000 C 
ATOM     11  C   UNL     1      34.785 -15.902 -20.895  0.00  0.00    -0.000 C 
ATOM     12  C   UNL     1      35.167 -16.926 -21.762  0.00  0.00    -0.000 C 
ENDBRANCH   6   7
BRANCH   6  13
ATOM     13  C   UNL     1      33.381 -13.412 -24.840  0.00  0.00    +0.151 C 
BRANCH  13  14
ATOM     14  O   UNL     1      33.815 -12.257 -25.550  0.00  0.00    -0.381 OA
ATOM     15  H   UNL     1      33.489 -11.460 -25.104  0.00  0.00    +0.210 HD
ENDBRANCH  13  14
ENDBRANCH   6  13
ENDBRANCH   3   6
BRANCH   2  16
ATOM     16  C   UNL     1      33.041 -10.351 -22.967  0.00  0.00    +0.120 C 
BRANCH  16  18
ATOM     17  N   UNL     1      31.306  -6.464 -22.463  0.00  0.00    -0.242 NA
ATOM     18  C   UNL     1      32.431  -8.985 -22.790  0.00  0.00    +0.001 C 
ATOM     19  C   UNL     1      32.772  -8.223 -21.687  0.00  0.00    +0.018 C 
ATOM     20  C   UNL     1      31.538  -8.508 -23.731  0.00  0.00    +0.018 C 
ATOM     21  C   UNL     1      32.184  -6.974 -21.570  0.00  0.00    +0.099 C 
ATOM     22  C   UNL     1      31.006  -7.247 -23.524  0.00  0.00    +0.099 C 
ENDBRANCH  16  18
ENDBRANCH   2  16
TORSDOF 7
ENDMDL
