MODEL 1
REMARK VINA RESULT:      -3.6      0.000      0.000
REMARK  Name = 948
REMARK  0 active torsions:
REMARK  status: ('A' for Active; 'I' for Inactive)
REMARK                            x       y       z     vdW  Elec       q    Type
REMARK                         _______ _______ _______ _____ _____    ______ ____
ROOT
ATOM      1  O   UNL     1      25.569 -22.036 -15.896  0.00  0.00    -0.079 OA
ATOM      2  N   UNL     1      25.982 -21.389 -17.086  0.00  0.00    +0.067 NA
ATOM      3  N   UNL     1      26.299 -20.893 -18.000  0.00  0.00    +0.012 NA
ENDROOT
TORSDOF 0
ENDMDL
MODEL 2
REMARK VINA RESULT:      -3.5      1.706      2.050
REMARK  Name = 948
REMARK  0 active torsions:
REMARK  status: ('A' for Active; 'I' for Inactive)
REMARK                            x       y       z     vdW  Elec       q    Type
REMARK                         _______ _______ _______ _____ _____    ______ ____
ROOT
ATOM      1  O   UNL     1      26.269 -20.557 -17.989  0.00  0.00    -0.079 OA
ATOM      2  N   UNL     1      25.873 -21.366 -16.897  0.00  0.00    +0.067 NA
ATOM      3  N   UNL     1      25.569 -21.987 -16.058  0.00  0.00    +0.012 NA
ENDROOT
TORSDOF 0
ENDMDL
MODEL 3
REMARK VINA RESULT:      -3.3     16.139     16.139
REMARK  Name = 948
REMARK  0 active torsions:
REMARK  status: ('A' for Active; 'I' for Inactive)
REMARK                            x       y       z     vdW  Elec       q    Type
REMARK                         _______ _______ _______ _____ _____    ______ ____
ROOT
ATOM      1  O   UNL     1      41.660 -27.261 -13.628  0.00  0.00    -0.079 OA
ATOM      2  N   UNL     1      40.972 -26.543 -14.636  0.00  0.00    +0.067 NA
ATOM      3  N   UNL     1      40.444 -25.992 -15.410  0.00  0.00    +0.012 NA
ENDROOT
TORSDOF 0
ENDMDL
MODEL 4
REMARK VINA RESULT:      -3.3      1.723      1.746
REMARK  Name = 948
REMARK  0 active torsions:
REMARK  status: ('A' for Active; 'I' for Inactive)
REMARK                            x       y       z     vdW  Elec       q    Type
REMARK                         _______ _______ _______ _____ _____    ______ ____
ROOT
ATOM      1  O   UNL     1      27.263 -23.103 -17.850  0.00  0.00    -0.079 OA
ATOM      2  N   UNL     1      26.695 -21.806 -17.874  0.00  0.00    +0.067 NA
ATOM      3  N   UNL     1      26.258 -20.810 -17.892  0.00  0.00    +0.012 NA
ENDROOT
TORSDOF 0
ENDMDL
MODEL 5
REMARK VINA RESULT:      -3.2     12.678     12.757
REMARK  Name = 948
REMARK  0 active torsions:
REMARK  status: ('A' for Active; 'I' for Inactive)
REMARK                            x       y       z     vdW  Elec       q    Type
REMARK                         _______ _______ _______ _____ _____    ______ ____
ROOT
ATOM      1  O   UNL     1      37.240 -23.154 -10.707  0.00  0.00    -0.079 OA
ATOM      2  N   UNL     1      36.212 -23.970 -10.175  0.00  0.00    +0.067 NA
ATOM      3  N   UNL     1      35.423 -24.596  -9.766  0.00  0.00    +0.012 NA
ENDROOT
TORSDOF 0
ENDMDL
MODEL 6
REMARK VINA RESULT:      -3.1     12.532     12.618
REMARK  Name = 948
REMARK  0 active torsions:
REMARK  status: ('A' for Active; 'I' for Inactive)
REMARK                            x       y       z     vdW  Elec       q    Type
REMARK                         _______ _______ _______ _____ _____    ______ ____
ROOT
ATOM      1  O   UNL     1      35.405 -24.606  -9.750  0.00  0.00    -0.079 OA
ATOM      2  N   UNL     1      36.433 -23.859 -10.374  0.00  0.00    +0.067 NA
ATOM      3  N   UNL     1      37.223 -23.285 -10.853  0.00  0.00    +0.012 NA
ENDROOT
TORSDOF 0
ENDMDL
MODEL 7
REMARK VINA RESULT:      -3.0     14.948     14.962
REMARK  Name = 948
REMARK  0 active torsions:
REMARK  status: ('A' for Active; 'I' for Inactive)
REMARK                            x       y       z     vdW  Elec       q    Type
REMARK                         _______ _______ _______ _____ _____    ______ ____
ROOT
ATOM      1  O   UNL     1      38.420 -26.944 -14.660  0.00  0.00    -0.079 OA
ATOM      2  N   UNL     1      39.813 -26.691 -14.643  0.00  0.00    +0.067 NA
ATOM      3  N   UNL     1      40.883 -26.497 -14.629  0.00  0.00    +0.012 NA
ENDROOT
TORSDOF 0
ENDMDL
MODEL 8
REMARK VINA RESULT:      -2.9     21.184     21.239
REMARK  Name = 948
REMARK  0 active torsions:
REMARK  status: ('A' for Active; 'I' for Inactive)
REMARK                            x       y       z     vdW  Elec       q    Type
REMARK                         _______ _______ _______ _____ _____    ______ ____
ROOT
ATOM      1  O   UNL     1      36.502  -4.755 -10.072  0.00  0.00    -0.079 OA
ATOM      2  N   UNL     1      37.138  -5.355  -8.958  0.00  0.00    +0.067 NA
ATOM      3  N   UNL     1      37.626  -5.815  -8.103  0.00  0.00    +0.012 NA
ENDROOT
TORSDOF 0
ENDMDL
MODEL 9
REMARK VINA RESULT:      -2.8     11.033     11.199
REMARK  Name = 948
REMARK  0 active torsions:
REMARK  status: ('A' for Active; 'I' for Inactive)
REMARK                            x       y       z     vdW  Elec       q    Type
REMARK                         _______ _______ _______ _____ _____    ______ ____
ROOT
ATOM      1  O   UNL     1      34.314 -24.397 -12.543  0.00  0.00    -0.079 OA
ATOM      2  N   UNL     1      34.940 -24.748 -11.322  0.00  0.00    +0.067 NA
ATOM      3  N   UNL     1      35.421 -25.018 -10.386  0.00  0.00    +0.012 NA
ENDROOT
TORSDOF 0
ENDMDL
