MODEL 1
REMARK VINA RESULT:      -9.5      0.000      0.000
REMARK  Name = 10972974
REMARK  12 active torsions:
REMARK  status: ('A' for Active; 'I' for Inactive)
REMARK    1  A    between atoms: C_3  and  C_21
REMARK    2  A    between atoms: C_4  and  C_9
REMARK    3  A    between atoms: C_8  and  C_11
REMARK    4  A    between atoms: C_11  and  C_13
REMARK    5  A    between atoms: C_14  and  C_16
REMARK    6  A    between atoms: C_15  and  C_17
REMARK    7  A    between atoms: C_20  and  C_22
REMARK    8  A    between atoms: C_22  and  O_23
REMARK    9  A    between atoms: C_22  and  C_25
REMARK   10  A    between atoms: C_25  and  C_27
REMARK   11  A    between atoms: C_27  and  O_34
REMARK   12  A    between atoms: C_28  and  C_31
REMARK                            x       y       z     vdW  Elec       q    Type
REMARK                         _______ _______ _______ _____ _____    ______ ____
ROOT
ATOM      1  S   UNL     1      32.745 -20.698 -20.085  0.00  0.00    -0.073 S 
ATOM      2  N   UNL     1      35.103 -21.427 -19.317  0.00  0.00    -0.397 NA
ATOM      3  C   UNL     1      34.172 -22.115 -18.590  0.00  0.00    +0.121 C 
ATOM      4  C   UNL     1      34.459 -20.639 -20.149  0.00  0.00    +0.183 C 
ATOM      5  C   UNL     1      32.855 -21.875 -18.843  0.00  0.00    +0.123 C 
ENDROOT
BRANCH   4   9
ATOM      6  S   UNL     1      36.976 -18.353 -22.188  0.00  0.00    -0.079 S 
ATOM      7  N   UNL     1      34.546 -19.234 -22.206  0.00  0.00    -0.400 NA
ATOM      8  C   UNL     1      35.402 -18.482 -22.860  0.00  0.00    +0.138 C 
ATOM      9  C   UNL     1      35.171 -19.748 -21.090  0.00  0.00    +0.156 C 
ATOM     10  C   UNL     1      36.487 -19.386 -20.909  0.00  0.00    +0.126 C 
BRANCH   8  11
ATOM     11  C   UNL     1      35.095 -17.761 -24.114  0.00  0.00    +0.080 C 
ATOM     12  C   UNL     1      34.313 -18.651 -25.121  0.00  0.00    +0.013 C 
BRANCH  11  13
ATOM     13  C   UNL     1      34.421 -16.388 -23.938  0.00  0.00    -0.019 C 
ATOM     14  C   UNL     1      34.584 -15.514 -22.933  0.00  0.00    -0.004 C 
BRANCH  14  16
ATOM     15  C   UNL     1      32.816 -14.067 -22.043  0.00  0.00    -0.026 C 
ATOM     16  C   UNL     1      33.867 -14.259 -22.857  0.00  0.00    -0.005 C 
BRANCH  15  17
ATOM     17  C   UNL     1      31.998 -12.804 -21.890  0.00  0.00    +0.022 C 
ATOM     18  C   UNL     1      31.923 -12.417 -20.411  0.00  0.00    +0.005 C 
ATOM     19  C   UNL     1      32.469 -11.605 -22.718  0.00  0.00    +0.005 C 
ENDBRANCH  15  17
ENDBRANCH  14  16
ENDBRANCH  11  13
ENDBRANCH   8  11
ENDBRANCH   4   9
BRANCH   3  21
ATOM     20  C   UNL     1      35.147 -22.784 -16.386  0.00  0.00    +0.006 C 
ATOM     21  C   UNL     1      34.639 -23.054 -17.600  0.00  0.00    +0.026 C 
BRANCH  20  22
ATOM     22  C   UNL     1      35.620 -23.850 -15.429  0.00  0.00    +0.144 C 
BRANCH  22  23
ATOM     23  O   UNL     1      35.023 -23.558 -14.165  0.00  0.00    -0.349 OA
ATOM     24  C   UNL     1      33.867 -24.353 -13.948  0.00  0.00    +0.174 C 
ENDBRANCH  22  23
BRANCH  22  25
ATOM     25  C   UNL     1      37.164 -23.866 -15.291  0.00  0.00    +0.088 C 
ATOM     26  C   UNL     1      37.805 -22.620 -15.917  0.00  0.00    +0.011 C 
BRANCH  25  27
ATOM     27  C   UNL     1      37.607 -23.996 -13.842  0.00  0.00    +0.123 C 
ATOM     28  C   UNL     1      37.918 -25.189 -13.302  0.00  0.00    +0.090 C 
BRANCH  28  31
ATOM     29  O   UNL     1      38.801 -26.919 -14.703  0.00  0.00    -0.270 OA
ATOM     30  N   UNL     1      36.656 -27.118 -13.902  0.00  0.00    -0.325 N 
ATOM     31  C   UNL     1      37.867 -26.479 -14.043  0.00  0.00    +0.246 C 
ATOM     32  H   UNL     1      36.500 -27.982 -14.347  0.00  0.00    +0.145 HD
ATOM     33  H   UNL     1      35.945 -26.710 -13.355  0.00  0.00    +0.145 HD
ENDBRANCH  28  31
BRANCH  27  34
ATOM     34  O   UNL     1      37.643 -22.799 -13.156  0.00  0.00    -0.475 OA
ATOM     35  C   UNL     1      37.413 -23.005 -11.776  0.00  0.00    +0.252 C 
ENDBRANCH  27  34
ENDBRANCH  25  27
ENDBRANCH  22  25
ENDBRANCH  20  22
ENDBRANCH   3  21
TORSDOF 12
ENDMDL
MODEL 2
REMARK VINA RESULT:      -9.2      6.233     12.927
REMARK  Name = 10972974
REMARK  12 active torsions:
REMARK  status: ('A' for Active; 'I' for Inactive)
REMARK    1  A    between atoms: C_3  and  C_21
REMARK    2  A    between atoms: C_4  and  C_9
REMARK    3  A    between atoms: C_8  and  C_11
REMARK    4  A    between atoms: C_11  and  C_13
REMARK    5  A    between atoms: C_14  and  C_16
REMARK    6  A    between atoms: C_15  and  C_17
REMARK    7  A    between atoms: C_20  and  C_22
REMARK    8  A    between atoms: C_22  and  O_23
REMARK    9  A    between atoms: C_22  and  C_25
REMARK   10  A    between atoms: C_25  and  C_27
REMARK   11  A    between atoms: C_27  and  O_34
REMARK   12  A    between atoms: C_28  and  C_31
REMARK                            x       y       z     vdW  Elec       q    Type
REMARK                         _______ _______ _______ _____ _____    ______ ____
ROOT
ATOM      1  S   UNL     1      33.327 -15.178 -26.021  0.00  0.00    -0.073 S 
ATOM      2  N   UNL     1      33.848 -14.761 -23.524  0.00  0.00    -0.397 NA
ATOM      3  C   UNL     1      33.407 -13.594 -24.080  0.00  0.00    +0.121 C 
ATOM      4  C   UNL     1      33.849 -15.679 -24.464  0.00  0.00    +0.183 C 
ATOM      5  C   UNL     1      33.075 -13.599 -25.402  0.00  0.00    +0.123 C 
ENDROOT
BRANCH   4   9
ATOM      6  S   UNL     1      34.786 -19.531 -24.497  0.00  0.00    -0.079 S 
ATOM      7  N   UNL     1      34.757 -17.451 -22.964  0.00  0.00    -0.400 NA
ATOM      8  C   UNL     1      35.059 -18.729 -23.005  0.00  0.00    +0.138 C 
ATOM      9  C   UNL     1      34.274 -17.070 -24.198  0.00  0.00    +0.156 C 
ATOM     10  C   UNL     1      34.214 -18.055 -25.158  0.00  0.00    +0.126 C 
BRANCH   8  11
ATOM     11  C   UNL     1      35.608 -19.496 -21.866  0.00  0.00    +0.080 C 
ATOM     12  C   UNL     1      36.623 -18.660 -21.038  0.00  0.00    +0.013 C 
BRANCH  11  13
ATOM     13  C   UNL     1      34.564 -20.171 -20.959  0.00  0.00    -0.019 C 
ATOM     14  C   UNL     1      34.782 -21.023 -19.945  0.00  0.00    -0.004 C 
BRANCH  14  16
ATOM     15  C   UNL     1      33.924 -22.558 -18.237  0.00  0.00    -0.026 C 
ATOM     16  C   UNL     1      33.712 -21.625 -19.179  0.00  0.00    -0.005 C 
BRANCH  15  17
ATOM     17  C   UNL     1      32.883 -23.251 -17.386  0.00  0.00    +0.022 C 
ATOM     18  C   UNL     1      33.481 -23.593 -16.019  0.00  0.00    +0.005 C 
ATOM     19  C   UNL     1      31.566 -22.491 -17.202  0.00  0.00    +0.005 C 
ENDBRANCH  15  17
ENDBRANCH  14  16
ENDBRANCH  11  13
ENDBRANCH   8  11
ENDBRANCH   4   9
BRANCH   3  21
ATOM     20  C   UNL     1      32.210 -11.874 -22.715  0.00  0.00    +0.006 C 
ATOM     21  C   UNL     1      33.317 -12.427 -23.237  0.00  0.00    +0.026 C 
BRANCH  20  22
ATOM     22  C   UNL     1      32.228 -10.638 -21.851  0.00  0.00    +0.144 C 
BRANCH  22  23
ATOM     23  O   UNL     1      31.026 -10.660 -21.079  0.00  0.00    -0.349 OA
ATOM     24  C   UNL     1      31.256 -11.198 -19.787  0.00  0.00    +0.174 C 
ENDBRANCH  22  23
BRANCH  22  25
ATOM     25  C   UNL     1      32.289  -9.338 -22.693  0.00  0.00    +0.088 C 
ATOM     26  C   UNL     1      30.892  -8.881 -23.136  0.00  0.00    +0.011 C 
BRANCH  25  27
ATOM     27  C   UNL     1      32.986  -8.209 -21.952  0.00  0.00    +0.123 C 
ATOM     28  C   UNL     1      34.067  -7.589 -22.462  0.00  0.00    +0.090 C 
BRANCH  28  31
ATOM     29  O   UNL     1      35.237  -8.999 -24.004  0.00  0.00    -0.270 OA
ATOM     30  N   UNL     1      34.558  -6.914 -24.693  0.00  0.00    -0.325 N 
ATOM     31  C   UNL     1      34.683  -7.931 -23.773  0.00  0.00    +0.246 C 
ATOM     32  H   UNL     1      34.926  -7.022 -25.599  0.00  0.00    +0.145 HD
ATOM     33  H   UNL     1      34.099  -6.079 -24.444  0.00  0.00    +0.145 HD
ENDBRANCH  28  31
BRANCH  27  34
ATOM     34  O   UNL     1      32.418  -7.901 -20.732  0.00  0.00    -0.475 OA
ATOM     35  C   UNL     1      31.999  -6.551 -20.699  0.00  0.00    +0.252 C 
ENDBRANCH  27  34
ENDBRANCH  25  27
ENDBRANCH  22  25
ENDBRANCH  20  22
ENDBRANCH   3  21
TORSDOF 12
ENDMDL
MODEL 3
REMARK VINA RESULT:      -9.1      2.108      3.371
REMARK  Name = 10972974
REMARK  12 active torsions:
REMARK  status: ('A' for Active; 'I' for Inactive)
REMARK    1  A    between atoms: C_3  and  C_21
REMARK    2  A    between atoms: C_4  and  C_9
REMARK    3  A    between atoms: C_8  and  C_11
REMARK    4  A    between atoms: C_11  and  C_13
REMARK    5  A    between atoms: C_14  and  C_16
REMARK    6  A    between atoms: C_15  and  C_17
REMARK    7  A    between atoms: C_20  and  C_22
REMARK    8  A    between atoms: C_22  and  O_23
REMARK    9  A    between atoms: C_22  and  C_25
REMARK   10  A    between atoms: C_25  and  C_27
REMARK   11  A    between atoms: C_27  and  O_34
REMARK   12  A    between atoms: C_28  and  C_31
REMARK                            x       y       z     vdW  Elec       q    Type
REMARK                         _______ _______ _______ _____ _____    ______ ____
ROOT
ATOM      1  S   UNL     1      37.176 -20.338 -20.544  0.00  0.00    -0.073 S 
ATOM      2  N   UNL     1      34.684 -20.464 -19.867  0.00  0.00    -0.397 NA
ATOM      3  C   UNL     1      35.377 -21.413 -19.169  0.00  0.00    +0.121 C 
ATOM      4  C   UNL     1      35.539 -19.828 -20.636  0.00  0.00    +0.183 C 
ATOM      5  C   UNL     1      36.719 -21.512 -19.381  0.00  0.00    +0.123 C 
ENDROOT
BRANCH   4   9
ATOM      6  S   UNL     1      34.741 -17.317 -23.598  0.00  0.00    -0.079 S 
ATOM      7  N   UNL     1      34.441 -17.628 -21.050  0.00  0.00    -0.400 NA
ATOM      8  C   UNL     1      34.191 -16.816 -22.052  0.00  0.00    +0.138 C 
ATOM      9  C   UNL     1      35.118 -18.729 -21.532  0.00  0.00    +0.156 C 
ATOM     10  C   UNL     1      35.373 -18.743 -22.884  0.00  0.00    +0.126 C 
BRANCH   8  11
ATOM     11  C   UNL     1      33.478 -15.526 -21.925  0.00  0.00    +0.080 C 
ATOM     12  C   UNL     1      33.383 -15.058 -20.446  0.00  0.00    +0.013 C 
BRANCH  11  13
ATOM     13  C   UNL     1      33.986 -14.398 -22.840  0.00  0.00    -0.019 C 
ATOM     14  C   UNL     1      33.259 -13.473 -23.487  0.00  0.00    -0.004 C 
BRANCH  14  16
ATOM     15  C   UNL     1      33.827 -11.161 -24.074  0.00  0.00    -0.026 C 
ATOM     16  C   UNL     1      33.847 -12.474 -24.354  0.00  0.00    -0.005 C 
BRANCH  15  17
ATOM     17  C   UNL     1      34.405 -10.040 -24.909  0.00  0.00    +0.022 C 
ATOM     18  C   UNL     1      34.797  -8.872 -24.000  0.00  0.00    +0.005 C 
ATOM     19  C   UNL     1      35.589 -10.422 -25.802  0.00  0.00    +0.005 C 
ENDBRANCH  15  17
ENDBRANCH  14  16
ENDBRANCH  11  13
ENDBRANCH   8  11
ENDBRANCH   4   9
BRANCH   3  21
ATOM     20  C   UNL     1      35.019 -22.630 -17.013  0.00  0.00    +0.006 C 
ATOM     21  C   UNL     1      34.648 -22.249 -18.247  0.00  0.00    +0.026 C 
BRANCH  20  22
ATOM     22  C   UNL     1      34.180 -23.524 -16.134  0.00  0.00    +0.144 C 
BRANCH  22  23
ATOM     23  O   UNL     1      32.913 -22.881 -15.988  0.00  0.00    -0.349 OA
ATOM     24  C   UNL     1      31.871 -23.665 -16.547  0.00  0.00    +0.174 C 
ENDBRANCH  22  23
BRANCH  22  25
ATOM     25  C   UNL     1      34.823 -23.743 -14.741  0.00  0.00    +0.088 C 
ATOM     26  C   UNL     1      33.789 -24.195 -13.701  0.00  0.00    +0.011 C 
BRANCH  25  27
ATOM     27  C   UNL     1      35.969 -24.741 -14.791  0.00  0.00    +0.123 C 
ATOM     28  C   UNL     1      37.043 -24.625 -13.988  0.00  0.00    +0.090 C 
BRANCH  28  31
ATOM     29  O   UNL     1      37.697 -22.440 -13.259  0.00  0.00    -0.270 OA
ATOM     30  N   UNL     1      36.799 -23.903 -11.732  0.00  0.00    -0.325 N 
ATOM     31  C   UNL     1      37.224 -23.537 -12.988  0.00  0.00    +0.246 C 
ATOM     32  H   UNL     1      36.867 -23.267 -10.983  0.00  0.00    +0.145 HD
ATOM     33  H   UNL     1      36.426 -24.802 -11.581  0.00  0.00    +0.145 HD
ENDBRANCH  28  31
BRANCH  27  34
ATOM     34  O   UNL     1      35.802 -25.742 -15.726  0.00  0.00    -0.475 OA
ATOM     35  C   UNL     1      36.613 -26.858 -15.416  0.00  0.00    +0.252 C 
ENDBRANCH  27  34
ENDBRANCH  25  27
ENDBRANCH  22  25
ENDBRANCH  20  22
ENDBRANCH   3  21
TORSDOF 12
ENDMDL
MODEL 4
REMARK VINA RESULT:      -9.0      6.817     13.812
REMARK  Name = 10972974
REMARK  12 active torsions:
REMARK  status: ('A' for Active; 'I' for Inactive)
REMARK    1  A    between atoms: C_3  and  C_21
REMARK    2  A    between atoms: C_4  and  C_9
REMARK    3  A    between atoms: C_8  and  C_11
REMARK    4  A    between atoms: C_11  and  C_13
REMARK    5  A    between atoms: C_14  and  C_16
REMARK    6  A    between atoms: C_15  and  C_17
REMARK    7  A    between atoms: C_20  and  C_22
REMARK    8  A    between atoms: C_22  and  O_23
REMARK    9  A    between atoms: C_22  and  C_25
REMARK   10  A    between atoms: C_25  and  C_27
REMARK   11  A    between atoms: C_27  and  O_34
REMARK   12  A    between atoms: C_28  and  C_31
REMARK                            x       y       z     vdW  Elec       q    Type
REMARK                         _______ _______ _______ _____ _____    ______ ____
ROOT
ATOM      1  S   UNL     1      33.529 -14.946 -25.575  0.00  0.00    -0.073 S 
ATOM      2  N   UNL     1      33.695 -13.262 -23.621  0.00  0.00    -0.397 NA
ATOM      3  C   UNL     1      33.539 -12.567 -24.787  0.00  0.00    +0.121 C 
ATOM      4  C   UNL     1      33.705 -14.543 -23.916  0.00  0.00    +0.183 C 
ATOM      5  C   UNL     1      33.430 -13.275 -25.946  0.00  0.00    +0.123 C 
ENDROOT
BRANCH   4   9
ATOM      6  S   UNL     1      33.709 -16.834 -20.681  0.00  0.00    -0.079 S 
ATOM      7  N   UNL     1      34.536 -16.758 -23.128  0.00  0.00    -0.400 NA
ATOM      8  C   UNL     1      34.521 -17.495 -22.040  0.00  0.00    +0.138 C 
ATOM      9  C   UNL     1      33.859 -15.583 -22.876  0.00  0.00    +0.156 C 
ATOM     10  C   UNL     1      33.339 -15.440 -21.609  0.00  0.00    +0.126 C 
BRANCH   8  11
ATOM     11  C   UNL     1      35.147 -18.830 -21.926  0.00  0.00    +0.080 C 
ATOM     12  C   UNL     1      36.699 -18.746 -21.937  0.00  0.00    +0.013 C 
BRANCH  11  13
ATOM     13  C   UNL     1      34.640 -19.700 -20.762  0.00  0.00    -0.019 C 
ATOM     14  C   UNL     1      33.521 -20.440 -20.714  0.00  0.00    -0.004 C 
BRANCH  14  16
ATOM     15  C   UNL     1      33.849 -22.218 -19.058  0.00  0.00    -0.026 C 
ATOM     16  C   UNL     1      33.126 -21.196 -19.545  0.00  0.00    -0.005 C 
BRANCH  15  17
ATOM     17  C   UNL     1      33.526 -23.072 -17.852  0.00  0.00    +0.022 C 
ATOM     18  C   UNL     1      34.648 -22.947 -16.819  0.00  0.00    +0.005 C 
ATOM     19  C   UNL     1      32.174 -22.795 -17.187  0.00  0.00    +0.005 C 
ENDBRANCH  15  17
ENDBRANCH  14  16
ENDBRANCH  11  13
ENDBRANCH   8  11
ENDBRANCH   4   9
BRANCH   3  21
ATOM     20  C   UNL     1      33.224 -10.361 -23.651  0.00  0.00    +0.006 C 
ATOM     21  C   UNL     1      33.497 -11.127 -24.721  0.00  0.00    +0.026 C 
BRANCH  20  22
ATOM     22  C   UNL     1      33.193  -8.854 -23.698  0.00  0.00    +0.144 C 
BRANCH  22  23
ATOM     23  O   UNL     1      34.365  -8.400 -23.017  0.00  0.00    -0.349 OA
ATOM     24  C   UNL     1      34.988  -7.338 -23.721  0.00  0.00    +0.174 C 
ENDBRANCH  22  23
BRANCH  22  25
ATOM     25  C   UNL     1      31.929  -8.274 -23.013  0.00  0.00    +0.088 C 
ATOM     26  C   UNL     1      30.816  -9.325 -22.891  0.00  0.00    +0.011 C 
BRANCH  25  27
ATOM     27  C   UNL     1      32.236  -7.692 -21.643  0.00  0.00    +0.123 C 
ATOM     28  C   UNL     1      32.068  -6.383 -21.377  0.00  0.00    +0.090 C 
BRANCH  28  31
ATOM     29  O   UNL     1      32.149  -5.136 -23.420  0.00  0.00    -0.270 OA
ATOM     30  N   UNL     1      30.403  -4.785 -21.967  0.00  0.00    -0.325 N 
ATOM     31  C   UNL     1      31.574  -5.388 -22.367  0.00  0.00    +0.246 C 
ATOM     32  H   UNL     1      29.977  -4.107 -22.539  0.00  0.00    +0.145 HD
ATOM     33  H   UNL     1      29.991  -5.033 -21.108  0.00  0.00    +0.145 HD
ENDBRANCH  28  31
BRANCH  27  34
ATOM     34  O   UNL     1      32.703  -8.617 -20.731  0.00  0.00    -0.475 OA
ATOM     35  C   UNL     1      31.953  -8.562 -19.533  0.00  0.00    +0.252 C 
ENDBRANCH  27  34
ENDBRANCH  25  27
ENDBRANCH  22  25
ENDBRANCH  20  22
ENDBRANCH   3  21
TORSDOF 12
ENDMDL
MODEL 5
REMARK VINA RESULT:      -9.0      4.972     11.485
REMARK  Name = 10972974
REMARK  12 active torsions:
REMARK  status: ('A' for Active; 'I' for Inactive)
REMARK    1  A    between atoms: C_3  and  C_21
REMARK    2  A    between atoms: C_4  and  C_9
REMARK    3  A    between atoms: C_8  and  C_11
REMARK    4  A    between atoms: C_11  and  C_13
REMARK    5  A    between atoms: C_14  and  C_16
REMARK    6  A    between atoms: C_15  and  C_17
REMARK    7  A    between atoms: C_20  and  C_22
REMARK    8  A    between atoms: C_22  and  O_23
REMARK    9  A    between atoms: C_22  and  C_25
REMARK   10  A    between atoms: C_25  and  C_27
REMARK   11  A    between atoms: C_27  and  O_34
REMARK   12  A    between atoms: C_28  and  C_31
REMARK                            x       y       z     vdW  Elec       q    Type
REMARK                         _______ _______ _______ _____ _____    ______ ____
ROOT
ATOM      1  S   UNL     1      35.065 -19.326 -24.162  0.00  0.00    -0.073 S 
ATOM      2  N   UNL     1      34.103 -17.441 -22.678  0.00  0.00    -0.397 NA
ATOM      3  C   UNL     1      34.454 -16.911 -23.887  0.00  0.00    +0.121 C 
ATOM      4  C   UNL     1      34.383 -18.725 -22.706  0.00  0.00    +0.183 C 
ATOM      5  C   UNL     1      34.986 -17.746 -24.823  0.00  0.00    +0.123 C 
ENDROOT
BRANCH   4   9
ATOM      6  S   UNL     1      32.948 -20.850 -19.683  0.00  0.00    -0.079 S 
ATOM      7  N   UNL     1      35.138 -20.325 -20.950  0.00  0.00    -0.400 NA
ATOM      8  C   UNL     1      34.634 -21.017 -19.954  0.00  0.00    +0.138 C 
ATOM      9  C   UNL     1      34.124 -19.606 -21.547  0.00  0.00    +0.156 C 
ATOM     10  C   UNL     1      32.869 -19.759 -21.004  0.00  0.00    +0.126 C 
BRANCH   8  11
ATOM     11  C   UNL     1      35.418 -21.913 -19.076  0.00  0.00    +0.080 C 
ATOM     12  C   UNL     1      36.836 -21.345 -18.784  0.00  0.00    +0.013 C 
BRANCH  11  13
ATOM     13  C   UNL     1      34.712 -22.354 -17.782  0.00  0.00    -0.019 C 
ATOM     14  C   UNL     1      33.708 -23.235 -17.651  0.00  0.00    -0.004 C 
BRANCH  14  16
ATOM     15  C   UNL     1      31.834 -23.208 -16.071  0.00  0.00    -0.026 C 
ATOM     16  C   UNL     1      33.096 -23.548 -16.378  0.00  0.00    -0.005 C 
BRANCH  15  17
ATOM     17  C   UNL     1      31.103 -23.482 -14.775  0.00  0.00    +0.022 C 
ATOM     18  C   UNL     1      29.596 -23.333 -14.994  0.00  0.00    +0.005 C 
ATOM     19  C   UNL     1      31.402 -24.833 -14.119  0.00  0.00    +0.005 C 
ENDBRANCH  15  17
ENDBRANCH  14  16
ENDBRANCH  11  13
ENDBRANCH   8  11
ENDBRANCH   4   9
BRANCH   3  21
ATOM     20  C   UNL     1      33.090 -14.884 -24.424  0.00  0.00    +0.006 C 
ATOM     21  C   UNL     1      34.240 -15.501 -24.102  0.00  0.00    +0.026 C 
BRANCH  20  22
ATOM     22  C   UNL     1      32.980 -13.396 -24.640  0.00  0.00    +0.144 C 
BRANCH  22  23
ATOM     23  O   UNL     1      33.807 -13.083 -25.762  0.00  0.00    -0.349 OA
ATOM     24  C   UNL     1      33.141 -13.356 -26.984  0.00  0.00    +0.174 C 
ENDBRANCH  22  23
BRANCH  22  25
ATOM     25  C   UNL     1      33.445 -12.589 -23.401  0.00  0.00    +0.088 C 
ATOM     26  C   UNL     1      34.011 -11.218 -23.794  0.00  0.00    +0.011 C 
BRANCH  25  27
ATOM     27  C   UNL     1      32.330 -12.411 -22.383  0.00  0.00    +0.123 C 
ATOM     28  C   UNL     1      32.215 -13.217 -21.311  0.00  0.00    +0.090 C 
BRANCH  28  31
ATOM     29  O   UNL     1      34.352 -14.203 -20.865  0.00  0.00    -0.270 OA
ATOM     30  N   UNL     1      32.490 -15.550 -20.915  0.00  0.00    -0.325 N 
ATOM     31  C   UNL     1      33.143 -14.342 -21.010  0.00  0.00    +0.246 C 
ATOM     32  H   UNL     1      32.997 -16.370 -20.719  0.00  0.00    +0.145 HD
ATOM     33  H   UNL     1      31.514 -15.593 -21.042  0.00  0.00    +0.145 HD
ENDBRANCH  28  31
BRANCH  27  34
ATOM     34  O   UNL     1      31.467 -11.373 -22.671  0.00  0.00    -0.475 OA
ATOM     35  C   UNL     1      30.995 -10.769 -21.482  0.00  0.00    +0.252 C 
ENDBRANCH  27  34
ENDBRANCH  25  27
ENDBRANCH  22  25
ENDBRANCH  20  22
ENDBRANCH   3  21
TORSDOF 12
ENDMDL
MODEL 6
REMARK VINA RESULT:      -8.8      3.102      5.481
REMARK  Name = 10972974
REMARK  12 active torsions:
REMARK  status: ('A' for Active; 'I' for Inactive)
REMARK    1  A    between atoms: C_3  and  C_21
REMARK    2  A    between atoms: C_4  and  C_9
REMARK    3  A    between atoms: C_8  and  C_11
REMARK    4  A    between atoms: C_11  and  C_13
REMARK    5  A    between atoms: C_14  and  C_16
REMARK    6  A    between atoms: C_15  and  C_17
REMARK    7  A    between atoms: C_20  and  C_22
REMARK    8  A    between atoms: C_22  and  O_23
REMARK    9  A    between atoms: C_22  and  C_25
REMARK   10  A    between atoms: C_25  and  C_27
REMARK   11  A    between atoms: C_27  and  O_34
REMARK   12  A    between atoms: C_28  and  C_31
REMARK                            x       y       z     vdW  Elec       q    Type
REMARK                         _______ _______ _______ _____ _____    ______ ____
ROOT
ATOM      1  S   UNL     1      34.842 -18.074 -23.879  0.00  0.00    -0.073 S 
ATOM      2  N   UNL     1      34.481 -17.743 -21.341  0.00  0.00    -0.397 NA
ATOM      3  C   UNL     1      34.963 -19.004 -21.555  0.00  0.00    +0.121 C 
ATOM      4  C   UNL     1      34.374 -17.151 -22.510  0.00  0.00    +0.183 C 
ATOM      5  C   UNL     1      35.224 -19.382 -22.838  0.00  0.00    +0.123 C 
ENDROOT
BRANCH   4   9
ATOM      6  S   UNL     1      32.622 -13.606 -22.223  0.00  0.00    -0.079 S 
ATOM      7  N   UNL     1      34.316 -14.936 -23.652  0.00  0.00    -0.400 NA
ATOM      8  C   UNL     1      33.720 -13.772 -23.532  0.00  0.00    +0.138 C 
ATOM      9  C   UNL     1      33.878 -15.764 -22.640  0.00  0.00    +0.156 C 
ATOM     10  C   UNL     1      32.961 -15.225 -21.767  0.00  0.00    +0.126 C 
BRANCH   8  11
ATOM     11  C   UNL     1      33.937 -12.623 -24.438  0.00  0.00    +0.080 C 
ATOM     12  C   UNL     1      33.408 -12.906 -25.872  0.00  0.00    +0.013 C 
BRANCH  11  13
ATOM     13  C   UNL     1      33.439 -11.264 -23.913  0.00  0.00    -0.019 C 
ATOM     14  C   UNL     1      34.037 -10.068 -24.029  0.00  0.00    -0.004 C 
BRANCH  14  16
ATOM     15  C   UNL     1      32.748  -8.842 -22.342  0.00  0.00    -0.026 C 
ATOM     16  C   UNL     1      33.487  -8.855 -23.462  0.00  0.00    -0.005 C 
BRANCH  15  17
ATOM     17  C   UNL     1      32.126  -7.637 -21.671  0.00  0.00    +0.022 C 
ATOM     18  C   UNL     1      32.608  -7.552 -20.221  0.00  0.00    +0.005 C 
ATOM     19  C   UNL     1      32.355  -6.296 -22.374  0.00  0.00    +0.005 C 
ENDBRANCH  15  17
ENDBRANCH  14  16
ENDBRANCH  11  13
ENDBRANCH   8  11
ENDBRANCH   4   9
BRANCH   3  21
ATOM     20  C   UNL     1      34.327 -20.777 -19.910  0.00  0.00    +0.006 C 
ATOM     21  C   UNL     1      35.170 -19.858 -20.411  0.00  0.00    +0.026 C 
BRANCH  20  22
ATOM     22  C   UNL     1      34.640 -21.611 -18.693  0.00  0.00    +0.144 C 
BRANCH  22  23
ATOM     23  O   UNL     1      35.961 -22.122 -18.876  0.00  0.00    -0.349 OA
ATOM     24  C   UNL     1      36.853 -21.602 -17.903  0.00  0.00    +0.174 C 
ENDBRANCH  22  23
BRANCH  22  25
ATOM     25  C   UNL     1      33.641 -22.784 -18.516  0.00  0.00    +0.088 C 
ATOM     26  C   UNL     1      33.896 -23.906 -19.532  0.00  0.00    +0.011 C 
BRANCH  25  27
ATOM     27  C   UNL     1      33.671 -23.353 -17.107  0.00  0.00    +0.123 C 
ATOM     28  C   UNL     1      32.569 -23.386 -16.335  0.00  0.00    +0.090 C 
BRANCH  28  31
ATOM     29  O   UNL     1      31.079 -21.994 -17.591  0.00  0.00    -0.270 OA
ATOM     30  N   UNL     1      30.200 -23.534 -16.128  0.00  0.00    -0.325 N 
ATOM     31  C   UNL     1      31.234 -22.885 -16.764  0.00  0.00    +0.246 C 
ATOM     32  H   UNL     1      29.268 -23.290 -16.328  0.00  0.00    +0.145 HD
ATOM     33  H   UNL     1      30.393 -24.243 -15.472  0.00  0.00    +0.145 HD
ENDBRANCH  28  31
BRANCH  27  34
ATOM     34  O   UNL     1      34.912 -23.807 -16.710  0.00  0.00    -0.475 OA
ATOM     35  C   UNL     1      34.937 -24.046 -15.316  0.00  0.00    +0.252 C 
ENDBRANCH  27  34
ENDBRANCH  25  27
ENDBRANCH  22  25
ENDBRANCH  20  22
ENDBRANCH   3  21
TORSDOF 12
ENDMDL
MODEL 7
REMARK VINA RESULT:      -8.7      6.391     13.214
REMARK  Name = 10972974
REMARK  12 active torsions:
REMARK  status: ('A' for Active; 'I' for Inactive)
REMARK    1  A    between atoms: C_3  and  C_21
REMARK    2  A    between atoms: C_4  and  C_9
REMARK    3  A    between atoms: C_8  and  C_11
REMARK    4  A    between atoms: C_11  and  C_13
REMARK    5  A    between atoms: C_14  and  C_16
REMARK    6  A    between atoms: C_15  and  C_17
REMARK    7  A    between atoms: C_20  and  C_22
REMARK    8  A    between atoms: C_22  and  O_23
REMARK    9  A    between atoms: C_22  and  C_25
REMARK   10  A    between atoms: C_25  and  C_27
REMARK   11  A    between atoms: C_27  and  O_34
REMARK   12  A    between atoms: C_28  and  C_31
REMARK                            x       y       z     vdW  Elec       q    Type
REMARK                         _______ _______ _______ _____ _____    ______ ____
ROOT
ATOM      1  S   UNL     1      33.796 -14.069 -25.583  0.00  0.00    -0.073 S 
ATOM      2  N   UNL     1      33.717 -12.905 -23.276  0.00  0.00    -0.397 NA
ATOM      3  C   UNL     1      33.475 -11.973 -24.246  0.00  0.00    +0.121 C 
ATOM      4  C   UNL     1      33.905 -14.063 -23.870  0.00  0.00    +0.183 C 
ATOM      5  C   UNL     1      33.471 -12.385 -25.545  0.00  0.00    +0.123 C 
ENDROOT
BRANCH   4   9
ATOM      6  S   UNL     1      34.837 -16.873 -21.234  0.00  0.00    -0.079 S 
ATOM      7  N   UNL     1      34.065 -16.543 -23.678  0.00  0.00    -0.400 NA
ATOM      8  C   UNL     1      34.380 -17.452 -22.784  0.00  0.00    +0.138 C 
ATOM      9  C   UNL     1      34.192 -15.296 -23.105  0.00  0.00    +0.156 C 
ATOM     10  C   UNL     1      34.599 -15.268 -21.791  0.00  0.00    +0.126 C 
BRANCH   8  11
ATOM     11  C   UNL     1      34.361 -18.910 -23.030  0.00  0.00    +0.080 C 
ATOM     12  C   UNL     1      35.436 -19.338 -24.068  0.00  0.00    +0.013 C 
BRANCH  11  13
ATOM     13  C   UNL     1      34.414 -19.794 -21.771  0.00  0.00    -0.019 C 
ATOM     14  C   UNL     1      33.403 -20.114 -20.947  0.00  0.00    -0.004 C 
BRANCH  14  16
ATOM     15  C   UNL     1      34.706 -21.617 -19.513  0.00  0.00    -0.026 C 
ATOM     16  C   UNL     1      33.579 -20.932 -19.766  0.00  0.00    -0.005 C 
BRANCH  15  17
ATOM     17  C   UNL     1      34.990 -22.499 -18.318  0.00  0.00    +0.022 C 
ATOM     18  C   UNL     1      36.064 -21.849 -17.443  0.00  0.00    +0.005 C 
ATOM     19  C   UNL     1      33.774 -22.865 -17.461  0.00  0.00    +0.005 C 
ENDBRANCH  15  17
ENDBRANCH  14  16
ENDBRANCH  11  13
ENDBRANCH   8  11
ENDBRANCH   4   9
BRANCH   3  21
ATOM     20  C   UNL     1      32.104 -10.092 -23.330  0.00  0.00    +0.006 C 
ATOM     21  C   UNL     1      33.235 -10.611 -23.838  0.00  0.00    +0.026 C 
BRANCH  20  22
ATOM     22  C   UNL     1      31.957  -8.641 -22.947  0.00  0.00    +0.144 C 
BRANCH  22  23
ATOM     23  O   UNL     1      32.185  -7.880 -24.134  0.00  0.00    -0.349 OA
ATOM     24  C   UNL     1      31.033  -7.134 -24.495  0.00  0.00    +0.174 C 
ENDBRANCH  22  23
BRANCH  22  25
ATOM     25  C   UNL     1      32.968  -8.221 -21.849  0.00  0.00    +0.088 C 
ATOM     26  C   UNL     1      34.115  -7.380 -22.425  0.00  0.00    +0.011 C 
BRANCH  25  27
ATOM     27  C   UNL     1      32.297  -7.465 -20.714  0.00  0.00    +0.123 C 
ATOM     28  C   UNL     1      31.745  -8.105 -19.667  0.00  0.00    +0.090 C 
BRANCH  28  31
ATOM     29  O   UNL     1      30.922 -10.318 -20.063  0.00  0.00    -0.270 OA
ATOM     30  N   UNL     1      32.726 -10.032 -18.668  0.00  0.00    -0.325 N 
ATOM     31  C   UNL     1      31.731  -9.585 -19.507  0.00  0.00    +0.246 C 
ATOM     32  H   UNL     1      32.819 -10.994 -18.483  0.00  0.00    +0.145 HD
ATOM     33  H   UNL     1      33.345  -9.389 -18.252  0.00  0.00    +0.145 HD
ENDBRANCH  28  31
BRANCH  27  34
ATOM     34  O   UNL     1      32.304  -6.093 -20.871  0.00  0.00    -0.475 OA
ATOM     35  C   UNL     1      31.031  -5.627 -21.271  0.00  0.00    +0.252 C 
ENDBRANCH  27  34
ENDBRANCH  25  27
ENDBRANCH  22  25
ENDBRANCH  20  22
ENDBRANCH   3  21
TORSDOF 12
ENDMDL
MODEL 8
REMARK VINA RESULT:      -8.7      4.593     11.567
REMARK  Name = 10972974
REMARK  12 active torsions:
REMARK  status: ('A' for Active; 'I' for Inactive)
REMARK    1  A    between atoms: C_3  and  C_21
REMARK    2  A    between atoms: C_4  and  C_9
REMARK    3  A    between atoms: C_8  and  C_11
REMARK    4  A    between atoms: C_11  and  C_13
REMARK    5  A    between atoms: C_14  and  C_16
REMARK    6  A    between atoms: C_15  and  C_17
REMARK    7  A    between atoms: C_20  and  C_22
REMARK    8  A    between atoms: C_22  and  O_23
REMARK    9  A    between atoms: C_22  and  C_25
REMARK   10  A    between atoms: C_25  and  C_27
REMARK   11  A    between atoms: C_27  and  O_34
REMARK   12  A    between atoms: C_28  and  C_31
REMARK                            x       y       z     vdW  Elec       q    Type
REMARK                         _______ _______ _______ _____ _____    ______ ____
ROOT
ATOM      1  S   UNL     1      35.009 -19.383 -24.188  0.00  0.00    -0.073 S 
ATOM      2  N   UNL     1      34.766 -17.453 -22.486  0.00  0.00    -0.397 NA
ATOM      3  C   UNL     1      34.512 -16.968 -23.738  0.00  0.00    +0.121 C 
ATOM      4  C   UNL     1      35.045 -18.732 -22.600  0.00  0.00    +0.183 C 
ATOM      5  C   UNL     1      34.587 -17.833 -24.788  0.00  0.00    +0.123 C 
ENDROOT
BRANCH   4   9
ATOM      6  S   UNL     1      36.628 -20.650 -19.513  0.00  0.00    -0.079 S 
ATOM      7  N   UNL     1      34.431 -20.397 -20.849  0.00  0.00    -0.400 NA
ATOM      8  C   UNL     1      34.983 -21.018 -19.832  0.00  0.00    +0.138 C 
ATOM      9  C   UNL     1      35.370 -19.569 -21.425  0.00  0.00    +0.156 C 
ATOM     10  C   UNL     1      36.618 -19.567 -20.843  0.00  0.00    +0.126 C 
BRANCH   8  11
ATOM     11  C   UNL     1      34.283 -21.992 -18.966  0.00  0.00    +0.080 C 
ATOM     12  C   UNL     1      33.885 -23.279 -19.741  0.00  0.00    +0.013 C 
BRANCH  11  13
ATOM     13  C   UNL     1      34.993 -22.330 -17.643  0.00  0.00    -0.019 C 
ATOM     14  C   UNL     1      34.520 -23.052 -16.616  0.00  0.00    -0.004 C 
BRANCH  14  16
ATOM     15  C   UNL     1      36.601 -23.457 -15.384  0.00  0.00    -0.026 C 
ATOM     16  C   UNL     1      35.270 -23.277 -15.399  0.00  0.00    -0.005 C 
BRANCH  15  17
ATOM     17  C   UNL     1      37.477 -23.702 -14.176  0.00  0.00    +0.022 C 
ATOM     18  C   UNL     1      36.699 -23.365 -12.901  0.00  0.00    +0.005 C 
ATOM     19  C   UNL     1      38.073 -25.108 -14.064  0.00  0.00    +0.005 C 
ENDBRANCH  15  17
ENDBRANCH  14  16
ENDBRANCH  11  13
ENDBRANCH   8  11
ENDBRANCH   4   9
BRANCH   3  21
ATOM     20  C   UNL     1      33.110 -15.039 -24.492  0.00  0.00    +0.006 C 
ATOM     21  C   UNL     1      34.177 -15.572 -23.873  0.00  0.00    +0.026 C 
BRANCH  20  22
ATOM     22  C   UNL     1      32.862 -13.554 -24.587  0.00  0.00    +0.144 C 
BRANCH  22  23
ATOM     23  O   UNL     1      33.532 -13.102 -25.764  0.00  0.00    -0.349 OA
ATOM     24  C   UNL     1      33.171 -13.883 -26.893  0.00  0.00    +0.174 C 
ENDBRANCH  22  23
BRANCH  22  25
ATOM     25  C   UNL     1      33.400 -12.792 -23.349  0.00  0.00    +0.088 C 
ATOM     26  C   UNL     1      34.013 -11.439 -23.736  0.00  0.00    +0.011 C 
BRANCH  25  27
ATOM     27  C   UNL     1      32.325 -12.585 -22.294  0.00  0.00    +0.123 C 
ATOM     28  C   UNL     1      32.242 -13.371 -21.205  0.00  0.00    +0.090 C 
BRANCH  28  31
ATOM     29  O   UNL     1      34.368 -14.357 -20.712  0.00  0.00    -0.270 OA
ATOM     30  N   UNL     1      32.528 -15.718 -20.915  0.00  0.00    -0.325 N 
ATOM     31  C   UNL     1      33.169 -14.501 -20.919  0.00  0.00    +0.246 C 
ATOM     32  H   UNL     1      33.036 -16.542 -20.738  0.00  0.00    +0.145 HD
ATOM     33  H   UNL     1      31.559 -15.765 -21.088  0.00  0.00    +0.145 HD
ENDBRANCH  28  31
BRANCH  27  34
ATOM     34  O   UNL     1      31.462 -11.543 -22.567  0.00  0.00    -0.475 OA
ATOM     35  C   UNL     1      30.805 -11.114 -21.391  0.00  0.00    +0.252 C 
ENDBRANCH  27  34
ENDBRANCH  25  27
ENDBRANCH  22  25
ENDBRANCH  20  22
ENDBRANCH   3  21
TORSDOF 12
ENDMDL
MODEL 9
REMARK VINA RESULT:      -8.6      1.860      2.773
REMARK  Name = 10972974
REMARK  12 active torsions:
REMARK  status: ('A' for Active; 'I' for Inactive)
REMARK    1  A    between atoms: C_3  and  C_21
REMARK    2  A    between atoms: C_4  and  C_9
REMARK    3  A    between atoms: C_8  and  C_11
REMARK    4  A    between atoms: C_11  and  C_13
REMARK    5  A    between atoms: C_14  and  C_16
REMARK    6  A    between atoms: C_15  and  C_17
REMARK    7  A    between atoms: C_20  and  C_22
REMARK    8  A    between atoms: C_22  and  O_23
REMARK    9  A    between atoms: C_22  and  C_25
REMARK   10  A    between atoms: C_25  and  C_27
REMARK   11  A    between atoms: C_27  and  O_34
REMARK   12  A    between atoms: C_28  and  C_31
REMARK                            x       y       z     vdW  Elec       q    Type
REMARK                         _______ _______ _______ _____ _____    ______ ____
ROOT
ATOM      1  S   UNL     1      37.224 -20.329 -20.085  0.00  0.00    -0.073 S 
ATOM      2  N   UNL     1      34.709 -20.890 -19.882  0.00  0.00    -0.397 NA
ATOM      3  C   UNL     1      35.387 -21.556 -18.901  0.00  0.00    +0.121 C 
ATOM      4  C   UNL     1      35.585 -20.201 -20.579  0.00  0.00    +0.183 C 
ATOM      5  C   UNL     1      36.738 -21.394 -18.832  0.00  0.00    +0.123 C 
ENDROOT
BRANCH   4   9
ATOM      6  S   UNL     1      34.281 -18.624 -23.974  0.00  0.00    -0.079 S 
ATOM      7  N   UNL     1      35.359 -17.992 -21.712  0.00  0.00    -0.400 NA
ATOM      8  C   UNL     1      34.919 -17.499 -22.848  0.00  0.00    +0.138 C 
ATOM      9  C   UNL     1      35.183 -19.360 -21.727  0.00  0.00    +0.156 C 
ATOM     10  C   UNL     1      34.615 -19.888 -22.864  0.00  0.00    +0.126 C 
BRANCH   8  11
ATOM     11  C   UNL     1      34.941 -16.062 -23.200  0.00  0.00    +0.080 C 
ATOM     12  C   UNL     1      34.971 -15.841 -24.738  0.00  0.00    +0.013 C 
BRANCH  11  13
ATOM     13  C   UNL     1      33.856 -15.201 -22.529  0.00  0.00    -0.019 C 
ATOM     14  C   UNL     1      33.805 -14.787 -21.254  0.00  0.00    -0.004 C 
BRANCH  14  16
ATOM     15  C   UNL     1      32.329 -12.829 -21.251  0.00  0.00    -0.026 C 
ATOM     16  C   UNL     1      32.710 -14.003 -20.723  0.00  0.00    -0.005 C 
BRANCH  15  17
ATOM     17  C   UNL     1      31.207 -11.933 -20.774  0.00  0.00    +0.022 C 
ATOM     18  C   UNL     1      31.623 -11.236 -19.476  0.00  0.00    +0.005 C 
ATOM     19  C   UNL     1      30.712 -10.896 -21.786  0.00  0.00    +0.005 C 
ENDBRANCH  15  17
ENDBRANCH  14  16
ENDBRANCH  11  13
ENDBRANCH   8  11
ENDBRANCH   4   9
BRANCH   3  21
ATOM     20  C   UNL     1      34.948 -22.725 -16.734  0.00  0.00    +0.006 C 
ATOM     21  C   UNL     1      34.633 -22.389 -17.996  0.00  0.00    +0.026 C 
BRANCH  20  22
ATOM     22  C   UNL     1      34.089 -23.619 -15.875  0.00  0.00    +0.144 C 
BRANCH  22  23
ATOM     23  O   UNL     1      32.849 -22.935 -15.685  0.00  0.00    -0.349 OA
ATOM     24  C   UNL     1      31.795 -23.578 -16.384  0.00  0.00    +0.174 C 
ENDBRANCH  22  23
BRANCH  22  25
ATOM     25  C   UNL     1      34.743 -23.914 -14.501  0.00  0.00    +0.088 C 
ATOM     26  C   UNL     1      33.724 -24.458 -13.490  0.00  0.00    +0.011 C 
BRANCH  25  27
ATOM     27  C   UNL     1      35.912 -24.879 -14.621  0.00  0.00    +0.123 C 
ATOM     28  C   UNL     1      36.997 -24.776 -13.831  0.00  0.00    +0.090 C 
BRANCH  28  31
ATOM     29  O   UNL     1      37.629 -22.621 -13.001  0.00  0.00    -0.270 OA
ATOM     30  N   UNL     1      36.755 -24.167 -11.542  0.00  0.00    -0.325 N 
ATOM     31  C   UNL     1      37.169 -23.735 -12.781  0.00  0.00    +0.246 C 
ATOM     32  H   UNL     1      36.819 -23.566 -10.764  0.00  0.00    +0.145 HD
ATOM     33  H   UNL     1      36.393 -25.076 -11.432  0.00  0.00    +0.145 HD
ENDBRANCH  28  31
BRANCH  27  34
ATOM     34  O   UNL     1      35.752 -25.837 -15.602  0.00  0.00    -0.475 OA
ATOM     35  C   UNL     1      36.697 -26.877 -15.446  0.00  0.00    +0.252 C 
ENDBRANCH  27  34
ENDBRANCH  25  27
ENDBRANCH  22  25
ENDBRANCH  20  22
ENDBRANCH   3  21
TORSDOF 12
ENDMDL
