MODEL 1
REMARK VINA RESULT:      -8.9      0.000      0.000
REMARK  Name = 29088
REMARK  8 active torsions:
REMARK  status: ('A' for Active; 'I' for Inactive)
REMARK    1  A    between atoms: N_2  and  C_19
REMARK    2  A    between atoms: N_2  and  C_23
REMARK    3  A    between atoms: C_5  and  C_7
REMARK    4  A    between atoms: C_6  and  C_13
REMARK    5  A    between atoms: C_19  and  C_20
REMARK    6  A    between atoms: C_20  and  O_21
REMARK    7  A    between atoms: C_23  and  C_24
REMARK    8  A    between atoms: C_24  and  O_25
REMARK                            x       y       z     vdW  Elec       q    Type
REMARK                         _______ _______ _______ _____ _____    ______ ____
ROOT
ATOM      1  O   UNL     1      35.698 -23.695 -15.212  0.00  0.00    -0.433 OA
ATOM      2  N   UNL     1      36.462 -24.589 -13.240  0.00  0.00    -0.248 N 
ATOM      3  N   UNL     1      34.120 -24.348 -13.730  0.00  0.00    -0.355 NA
ATOM      4  C   UNL     1      35.401 -24.237 -14.000  0.00  0.00    +0.344 C 
ATOM      5  C   UNL     1      34.476 -23.440 -15.757  0.00  0.00    +0.244 C 
ATOM      6  C   UNL     1      33.527 -23.837 -14.853  0.00  0.00    +0.158 C 
ENDROOT
BRANCH   5   7
ATOM      7  C   UNL     1      34.483 -22.852 -17.065  0.00  0.00    +0.024 C 
ATOM      8  C   UNL     1      35.650 -22.266 -17.568  0.00  0.00    -0.000 C 
ATOM      9  C   UNL     1      33.325 -22.860 -17.850  0.00  0.00    -0.000 C 
ATOM     10  C   UNL     1      35.657 -21.693 -18.840  0.00  0.00    -0.000 C 
ATOM     11  C   UNL     1      33.332 -22.287 -19.122  0.00  0.00    -0.000 C 
ATOM     12  C   UNL     1      34.499 -21.703 -19.617  0.00  0.00    -0.000 C 
ENDBRANCH   5   7
BRANCH   6  13
ATOM     13  C   UNL     1      32.105 -23.744 -15.035  0.00  0.00    +0.029 C 
ATOM     14  C   UNL     1      31.391 -24.835 -15.530  0.00  0.00    +0.002 C 
ATOM     15  C   UNL     1      31.438 -22.561 -14.715  0.00  0.00    +0.002 C 
ATOM     16  C   UNL     1      30.011 -24.744 -15.706  0.00  0.00    +0.000 C 
ATOM     17  C   UNL     1      30.058 -22.470 -14.891  0.00  0.00    +0.000 C 
ATOM     18  C   UNL     1      29.344 -23.561 -15.386  0.00  0.00    +0.000 C 
ENDBRANCH   6  13
BRANCH   2  19
ATOM     19  C   UNL     1      36.310 -25.191 -11.897  0.00  0.00    +0.128 C 
BRANCH  19  20
ATOM     20  C   UNL     1      36.113 -24.112 -10.844  0.00  0.00    +0.159 C 
BRANCH  20  21
ATOM     21  O   UNL     1      35.327 -24.644  -9.786  0.00  0.00    -0.380 OA
ATOM     22  H   UNL     1      35.047 -23.926  -9.198  0.00  0.00    +0.211 HD
ENDBRANCH  20  21
ENDBRANCH  19  20
ENDBRANCH   2  19
BRANCH   2  23
ATOM     23  C   UNL     1      37.859 -24.411 -13.697  0.00  0.00    +0.128 C 
BRANCH  23  24
ATOM     24  C   UNL     1      38.446 -25.736 -14.155  0.00  0.00    +0.159 C 
BRANCH  24  25
ATOM     25  O   UNL     1      37.955 -26.028 -15.457  0.00  0.00    -0.380 OA
ATOM     26  H   UNL     1      37.979 -26.987 -15.603  0.00  0.00    +0.211 HD
ENDBRANCH  24  25
ENDBRANCH  23  24
ENDBRANCH   2  23
TORSDOF 8
ENDMDL
MODEL 2
REMARK VINA RESULT:      -8.8      1.321      1.468
REMARK  Name = 29088
REMARK  8 active torsions:
REMARK  status: ('A' for Active; 'I' for Inactive)
REMARK    1  A    between atoms: N_2  and  C_19
REMARK    2  A    between atoms: N_2  and  C_23
REMARK    3  A    between atoms: C_5  and  C_7
REMARK    4  A    between atoms: C_6  and  C_13
REMARK    5  A    between atoms: C_19  and  C_20
REMARK    6  A    between atoms: C_20  and  O_21
REMARK    7  A    between atoms: C_23  and  C_24
REMARK    8  A    between atoms: C_24  and  O_25
REMARK                            x       y       z     vdW  Elec       q    Type
REMARK                         _______ _______ _______ _____ _____    ______ ____
ROOT
ATOM      1  O   UNL     1      36.617 -23.568 -16.119  0.00  0.00    -0.433 OA
ATOM      2  N   UNL     1      37.552 -24.777 -14.405  0.00  0.00    -0.248 N 
ATOM      3  N   UNL     1      35.198 -24.298 -14.518  0.00  0.00    -0.355 NA
ATOM      4  C   UNL     1      36.435 -24.247 -14.954  0.00  0.00    +0.344 C 
ATOM      5  C   UNL     1      35.362 -23.150 -16.444  0.00  0.00    +0.244 C 
ATOM      6  C   UNL     1      34.509 -23.596 -15.470  0.00  0.00    +0.158 C 
ENDROOT
BRANCH   5   7
ATOM      7  C   UNL     1      35.249 -22.391 -17.656  0.00  0.00    +0.024 C 
ATOM      8  C   UNL     1      36.356 -21.703 -18.162  0.00  0.00    -0.000 C 
ATOM      9  C   UNL     1      34.031 -22.333 -18.343  0.00  0.00    -0.000 C 
ATOM     10  C   UNL     1      36.246 -20.963 -19.340  0.00  0.00    -0.000 C 
ATOM     11  C   UNL     1      33.921 -21.594 -19.520  0.00  0.00    -0.000 C 
ATOM     12  C   UNL     1      35.029 -20.908 -20.019  0.00  0.00    -0.000 C 
ENDBRANCH   5   7
BRANCH   6  13
ATOM     13  C   UNL     1      33.091 -23.374 -15.431  0.00  0.00    +0.029 C 
ATOM     14  C   UNL     1      32.333 -23.496 -16.596  0.00  0.00    +0.002 C 
ATOM     15  C   UNL     1      32.471 -23.036 -14.228  0.00  0.00    +0.002 C 
ATOM     16  C   UNL     1      30.956 -23.280 -16.558  0.00  0.00    +0.000 C 
ATOM     17  C   UNL     1      31.094 -22.821 -14.190  0.00  0.00    +0.000 C 
ATOM     18  C   UNL     1      30.336 -22.943 -15.355  0.00  0.00    +0.000 C 
ENDBRANCH   6  13
BRANCH   2  19
ATOM     19  C   UNL     1      37.525 -25.544 -13.140  0.00  0.00    +0.128 C 
BRANCH  19  20
ATOM     20  C   UNL     1      37.179 -24.637 -11.970  0.00  0.00    +0.159 C 
BRANCH  20  21
ATOM     21  O   UNL     1      35.955 -25.079 -11.396  0.00  0.00    -0.380 OA
ATOM     22  H   UNL     1      35.499 -25.665 -12.020  0.00  0.00    +0.211 HD
ENDBRANCH  20  21
ENDBRANCH  19  20
ENDBRANCH   2  19
BRANCH   2  23
ATOM     23  C   UNL     1      38.885 -24.642 -15.034  0.00  0.00    +0.128 C 
BRANCH  23  24
ATOM     24  C   UNL     1      39.738 -25.867 -14.752  0.00  0.00    +0.159 C 
BRANCH  24  25
ATOM     25  O   UNL     1      40.576 -26.109 -15.874  0.00  0.00    -0.380 OA
ATOM     26  H   UNL     1      40.676 -25.291 -16.385  0.00  0.00    +0.211 HD
ENDBRANCH  24  25
ENDBRANCH  23  24
ENDBRANCH   2  23
TORSDOF 8
ENDMDL
MODEL 3
REMARK VINA RESULT:      -8.7      2.757      5.885
REMARK  Name = 29088
REMARK  8 active torsions:
REMARK  status: ('A' for Active; 'I' for Inactive)
REMARK    1  A    between atoms: N_2  and  C_19
REMARK    2  A    between atoms: N_2  and  C_23
REMARK    3  A    between atoms: C_5  and  C_7
REMARK    4  A    between atoms: C_6  and  C_13
REMARK    5  A    between atoms: C_19  and  C_20
REMARK    6  A    between atoms: C_20  and  O_21
REMARK    7  A    between atoms: C_23  and  C_24
REMARK    8  A    between atoms: C_24  and  O_25
REMARK                            x       y       z     vdW  Elec       q    Type
REMARK                         _______ _______ _______ _____ _____    ______ ____
ROOT
ATOM      1  O   UNL     1      32.594 -22.955 -16.589  0.00  0.00    -0.433 OA
ATOM      2  N   UNL     1      30.691 -23.538 -15.444  0.00  0.00    -0.248 N 
ATOM      3  N   UNL     1      32.894 -24.116 -14.672  0.00  0.00    -0.355 NA
ATOM      4  C   UNL     1      32.041 -23.571 -15.509  0.00  0.00    +0.344 C 
ATOM      5  C   UNL     1      33.932 -23.134 -16.408  0.00  0.00    +0.244 C 
ATOM      6  C   UNL     1      34.105 -23.838 -15.246  0.00  0.00    +0.158 C 
ENDROOT
BRANCH   5   7
ATOM      7  C   UNL     1      34.782 -22.575 -17.420  0.00  0.00    +0.024 C 
ATOM      8  C   UNL     1      34.313 -22.425 -18.729  0.00  0.00    -0.000 C 
ATOM      9  C   UNL     1      36.085 -22.173 -17.106  0.00  0.00    -0.000 C 
ATOM     10  C   UNL     1      35.139 -21.883 -19.714  0.00  0.00    -0.000 C 
ATOM     11  C   UNL     1      36.910 -21.630 -18.090  0.00  0.00    -0.000 C 
ATOM     12  C   UNL     1      36.437 -21.485 -19.395  0.00  0.00    -0.000 C 
ENDBRANCH   5   7
BRANCH   6  13
ATOM     13  C   UNL     1      35.366 -24.237 -14.687  0.00  0.00    +0.029 C 
ATOM     14  C   UNL     1      35.997 -25.395 -15.144  0.00  0.00    +0.002 C 
ATOM     15  C   UNL     1      35.962 -23.467 -13.688  0.00  0.00    +0.002 C 
ATOM     16  C   UNL     1      37.222 -25.782 -14.602  0.00  0.00    +0.000 C 
ATOM     17  C   UNL     1      37.187 -23.854 -13.146  0.00  0.00    +0.000 C 
ATOM     18  C   UNL     1      37.817 -25.012 -13.603  0.00  0.00    +0.000 C 
ENDBRANCH   6  13
BRANCH   2  19
ATOM     19  C   UNL     1      29.936 -24.161 -14.334  0.00  0.00    +0.128 C 
BRANCH  19  20
ATOM     20  C   UNL     1      29.596 -25.606 -14.661  0.00  0.00    +0.159 C 
BRANCH  20  21
ATOM     21  O   UNL     1      28.246 -25.853 -14.291  0.00  0.00    -0.380 OA
ATOM     22  H   UNL     1      28.149 -25.748 -13.332  0.00  0.00    +0.211 HD
ENDBRANCH  20  21
ENDBRANCH  19  20
ENDBRANCH   2  19
BRANCH   2  23
ATOM     23  C   UNL     1      29.864 -22.865 -16.470  0.00  0.00    +0.128 C 
BRANCH  23  24
ATOM     24  C   UNL     1      28.517 -22.462 -15.895  0.00  0.00    +0.159 C 
BRANCH  24  25
ATOM     25  O   UNL     1      27.797 -21.735 -16.882  0.00  0.00    -0.380 OA
ATOM     26  H   UNL     1      27.137 -22.314 -17.293  0.00  0.00    +0.211 HD
ENDBRANCH  24  25
ENDBRANCH  23  24
ENDBRANCH   2  23
TORSDOF 8
ENDMDL
MODEL 4
REMARK VINA RESULT:      -8.7      2.764      6.197
REMARK  Name = 29088
REMARK  8 active torsions:
REMARK  status: ('A' for Active; 'I' for Inactive)
REMARK    1  A    between atoms: N_2  and  C_19
REMARK    2  A    between atoms: N_2  and  C_23
REMARK    3  A    between atoms: C_5  and  C_7
REMARK    4  A    between atoms: C_6  and  C_13
REMARK    5  A    between atoms: C_19  and  C_20
REMARK    6  A    between atoms: C_20  and  O_21
REMARK    7  A    between atoms: C_23  and  C_24
REMARK    8  A    between atoms: C_24  and  O_25
REMARK                            x       y       z     vdW  Elec       q    Type
REMARK                         _______ _______ _______ _____ _____    ______ ____
ROOT
ATOM      1  O   UNL     1      32.836 -23.757 -15.810  0.00  0.00    -0.433 OA
ATOM      2  N   UNL     1      30.549 -23.955 -15.884  0.00  0.00    -0.248 N 
ATOM      3  N   UNL     1      31.805 -22.809 -17.585  0.00  0.00    -0.355 NA
ATOM      4  C   UNL     1      31.676 -23.488 -16.468  0.00  0.00    +0.344 C 
ATOM      5  C   UNL     1      33.789 -23.187 -16.598  0.00  0.00    +0.244 C 
ATOM      6  C   UNL     1      33.157 -22.615 -17.670  0.00  0.00    +0.158 C 
ENDROOT
BRANCH   5   7
ATOM      7  C   UNL     1      35.142 -23.318 -16.138  0.00  0.00    +0.024 C 
ATOM      8  C   UNL     1      35.565 -24.500 -15.521  0.00  0.00    -0.000 C 
ATOM      9  C   UNL     1      36.049 -22.266 -16.304  0.00  0.00    -0.000 C 
ATOM     10  C   UNL     1      36.880 -24.627 -15.073  0.00  0.00    -0.000 C 
ATOM     11  C   UNL     1      37.364 -22.393 -15.856  0.00  0.00    -0.000 C 
ATOM     12  C   UNL     1      37.780 -23.575 -15.240  0.00  0.00    -0.000 C 
ENDBRANCH   5   7
BRANCH   6  13
ATOM     13  C   UNL     1      33.799 -21.909 -18.742  0.00  0.00    +0.029 C 
ATOM     14  C   UNL     1      33.087 -20.964 -19.481  0.00  0.00    +0.002 C 
ATOM     15  C   UNL     1      35.136 -22.167 -19.045  0.00  0.00    +0.002 C 
ATOM     16  C   UNL     1      33.710 -20.278 -20.523  0.00  0.00    +0.000 C 
ATOM     17  C   UNL     1      35.760 -21.481 -20.087  0.00  0.00    +0.000 C 
ATOM     18  C   UNL     1      35.047 -20.537 -20.826  0.00  0.00    +0.000 C 
ENDBRANCH   6  13
BRANCH   2  19
ATOM     19  C   UNL     1      29.207 -23.747 -16.471  0.00  0.00    +0.128 C 
BRANCH  19  20
ATOM     20  C   UNL     1      28.559 -22.496 -15.899  0.00  0.00    +0.159 C 
BRANCH  20  21
ATOM     21  O   UNL     1      27.953 -21.769 -16.961  0.00  0.00    -0.380 OA
ATOM     22  H   UNL     1      28.032 -20.818 -16.787  0.00  0.00    +0.211 HD
ENDBRANCH  20  21
ENDBRANCH  19  20
ENDBRANCH   2  19
BRANCH   2  23
ATOM     23  C   UNL     1      30.572 -24.723 -14.618  0.00  0.00    +0.128 C 
BRANCH  23  24
ATOM     24  C   UNL     1      30.706 -23.789 -13.427  0.00  0.00    +0.159 C 
BRANCH  24  25
ATOM     25  O   UNL     1      32.065 -23.770 -13.010  0.00  0.00    -0.380 OA
ATOM     26  H   UNL     1      32.170 -23.142 -12.279  0.00  0.00    +0.211 HD
ENDBRANCH  24  25
ENDBRANCH  23  24
ENDBRANCH   2  23
TORSDOF 8
ENDMDL
MODEL 5
REMARK VINA RESULT:      -8.7      0.850      4.566
REMARK  Name = 29088
REMARK  8 active torsions:
REMARK  status: ('A' for Active; 'I' for Inactive)
REMARK    1  A    between atoms: N_2  and  C_19
REMARK    2  A    between atoms: N_2  and  C_23
REMARK    3  A    between atoms: C_5  and  C_7
REMARK    4  A    between atoms: C_6  and  C_13
REMARK    5  A    between atoms: C_19  and  C_20
REMARK    6  A    between atoms: C_20  and  O_21
REMARK    7  A    between atoms: C_23  and  C_24
REMARK    8  A    between atoms: C_24  and  O_25
REMARK                            x       y       z     vdW  Elec       q    Type
REMARK                         _______ _______ _______ _____ _____    ______ ____
ROOT
ATOM      1  O   UNL     1      34.652 -24.333 -13.732  0.00  0.00    -0.433 OA
ATOM      2  N   UNL     1      36.837 -24.640 -13.096  0.00  0.00    -0.248 N 
ATOM      3  N   UNL     1      36.228 -23.689 -15.220  0.00  0.00    -0.355 NA
ATOM      4  C   UNL     1      35.971 -24.210 -14.042  0.00  0.00    +0.344 C 
ATOM      5  C   UNL     1      34.019 -23.838 -14.832  0.00  0.00    +0.244 C 
ATOM      6  C   UNL     1      34.980 -23.450 -15.727  0.00  0.00    +0.158 C 
ENDROOT
BRANCH   5   7
ATOM      7  C   UNL     1      32.585 -23.843 -14.785  0.00  0.00    +0.024 C 
ATOM      8  C   UNL     1      31.874 -22.639 -14.810  0.00  0.00    -0.000 C 
ATOM      9  C   UNL     1      31.885 -25.053 -14.714  0.00  0.00    -0.000 C 
ATOM     10  C   UNL     1      30.480 -22.644 -14.762  0.00  0.00    -0.000 C 
ATOM     11  C   UNL     1      30.491 -25.058 -14.667  0.00  0.00    -0.000 C 
ATOM     12  C   UNL     1      29.788 -23.853 -14.691  0.00  0.00    -0.000 C 
ENDBRANCH   5   7
BRANCH   6  13
ATOM     13  C   UNL     1      34.738 -22.873 -17.019  0.00  0.00    +0.029 C 
ATOM     14  C   UNL     1      33.486 -23.004 -17.619  0.00  0.00    +0.002 C 
ATOM     15  C   UNL     1      35.756 -22.179 -17.674  0.00  0.00    +0.002 C 
ATOM     16  C   UNL     1      33.251 -22.442 -18.874  0.00  0.00    +0.000 C 
ATOM     17  C   UNL     1      35.521 -21.617 -18.929  0.00  0.00    +0.000 C 
ATOM     18  C   UNL     1      34.268 -21.748 -19.529  0.00  0.00    +0.000 C 
ENDBRANCH   6  13
BRANCH   2  19
ATOM     19  C   UNL     1      38.304 -24.575 -13.277  0.00  0.00    +0.128 C 
BRANCH  19  20
ATOM     20  C   UNL     1      38.824 -25.859 -13.903  0.00  0.00    +0.159 C 
BRANCH  20  21
ATOM     21  O   UNL     1      38.703 -25.759 -15.316  0.00  0.00    -0.380 OA
ATOM     22  H   UNL     1      39.563 -25.937 -15.728  0.00  0.00    +0.211 HD
ENDBRANCH  20  21
ENDBRANCH  19  20
ENDBRANCH   2  19
BRANCH   2  23
ATOM     23  C   UNL     1      36.384 -25.195 -11.801  0.00  0.00    +0.128 C 
BRANCH  23  24
ATOM     24  C   UNL     1      36.096 -24.079 -10.810  0.00  0.00    +0.159 C 
BRANCH  24  25
ATOM     25  O   UNL     1      35.343 -24.611  -9.729  0.00  0.00    -0.380 OA
ATOM     26  H   UNL     1      34.407 -24.660  -9.979  0.00  0.00    +0.211 HD
ENDBRANCH  24  25
ENDBRANCH  23  24
ENDBRANCH   2  23
TORSDOF 8
ENDMDL
MODEL 6
REMARK VINA RESULT:      -8.4      2.897      6.586
REMARK  Name = 29088
REMARK  8 active torsions:
REMARK  status: ('A' for Active; 'I' for Inactive)
REMARK    1  A    between atoms: N_2  and  C_19
REMARK    2  A    between atoms: N_2  and  C_23
REMARK    3  A    between atoms: C_5  and  C_7
REMARK    4  A    between atoms: C_6  and  C_13
REMARK    5  A    between atoms: C_19  and  C_20
REMARK    6  A    between atoms: C_20  and  O_21
REMARK    7  A    between atoms: C_23  and  C_24
REMARK    8  A    between atoms: C_24  and  O_25
REMARK                            x       y       z     vdW  Elec       q    Type
REMARK                         _______ _______ _______ _____ _____    ______ ____
ROOT
ATOM      1  O   UNL     1      32.758 -23.942 -15.206  0.00  0.00    -0.433 OA
ATOM      2  N   UNL     1      30.545 -23.642 -15.740  0.00  0.00    -0.248 N 
ATOM      3  N   UNL     1      32.333 -22.846 -17.138  0.00  0.00    -0.355 NA
ATOM      4  C   UNL     1      31.839 -23.447 -16.080  0.00  0.00    +0.344 C 
ATOM      5  C   UNL     1      33.950 -23.615 -15.778  0.00  0.00    +0.244 C 
ATOM      6  C   UNL     1      33.684 -22.952 -16.947  0.00  0.00    +0.158 C 
ENDROOT
BRANCH   5   7
ATOM      7  C   UNL     1      35.123 -24.022 -15.059  0.00  0.00    +0.024 C 
ATOM      8  C   UNL     1      35.683 -23.181 -14.091  0.00  0.00    -0.000 C 
ATOM      9  C   UNL     1      35.715 -25.263 -15.317  0.00  0.00    -0.000 C 
ATOM     10  C   UNL     1      36.823 -23.576 -13.392  0.00  0.00    -0.000 C 
ATOM     11  C   UNL     1      36.856 -25.658 -14.618  0.00  0.00    -0.000 C 
ATOM     12  C   UNL     1      37.410 -24.814 -13.655  0.00  0.00    -0.000 C 
ENDBRANCH   5   7
BRANCH   6  13
ATOM     13  C   UNL     1      34.665 -22.434 -17.859  0.00  0.00    +0.029 C 
ATOM     14  C   UNL     1      35.935 -22.090 -17.396  0.00  0.00    +0.002 C 
ATOM     15  C   UNL     1      34.347 -22.275 -19.208  0.00  0.00    +0.002 C 
ATOM     16  C   UNL     1      36.887 -21.587 -18.282  0.00  0.00    +0.000 C 
ATOM     17  C   UNL     1      35.299 -21.772 -20.093  0.00  0.00    +0.000 C 
ATOM     18  C   UNL     1      36.570 -21.428 -19.631  0.00  0.00    +0.000 C 
ENDBRANCH   6  13
BRANCH   2  19
ATOM     19  C   UNL     1      29.425 -23.166 -16.582  0.00  0.00    +0.128 C 
BRANCH  19  20
ATOM     20  C   UNL     1      28.438 -22.358 -15.755  0.00  0.00    +0.159 C 
BRANCH  20  21
ATOM     21  O   UNL     1      27.608 -21.611 -16.635  0.00  0.00    -0.380 OA
ATOM     22  H   UNL     1      27.710 -20.664 -16.451  0.00  0.00    +0.211 HD
ENDBRANCH  20  21
ENDBRANCH  19  20
ENDBRANCH   2  19
BRANCH   2  23
ATOM     23  C   UNL     1      30.148 -24.359 -14.508  0.00  0.00    +0.128 C 
BRANCH  23  24
ATOM     24  C   UNL     1      29.542 -25.711 -14.845  0.00  0.00    +0.159 C 
BRANCH  24  25
ATOM     25  O   UNL     1      28.250 -25.792 -14.258  0.00  0.00    -0.380 OA
ATOM     26  H   UNL     1      28.293 -25.491 -13.337  0.00  0.00    +0.211 HD
ENDBRANCH  24  25
ENDBRANCH  23  24
ENDBRANCH   2  23
TORSDOF 8
ENDMDL
MODEL 7
REMARK VINA RESULT:      -8.2      9.401     12.217
REMARK  Name = 29088
REMARK  8 active torsions:
REMARK  status: ('A' for Active; 'I' for Inactive)
REMARK    1  A    between atoms: N_2  and  C_19
REMARK    2  A    between atoms: N_2  and  C_23
REMARK    3  A    between atoms: C_5  and  C_7
REMARK    4  A    between atoms: C_6  and  C_13
REMARK    5  A    between atoms: C_19  and  C_20
REMARK    6  A    between atoms: C_20  and  O_21
REMARK    7  A    between atoms: C_23  and  C_24
REMARK    8  A    between atoms: C_24  and  O_25
REMARK                            x       y       z     vdW  Elec       q    Type
REMARK                         _______ _______ _______ _____ _____    ______ ____
ROOT
ATOM      1  O   UNL     1      34.326 -15.789 -23.708  0.00  0.00    -0.433 OA
ATOM      2  N   UNL     1      34.830 -17.563 -22.339  0.00  0.00    -0.248 N 
ATOM      3  N   UNL     1      33.618 -15.634 -21.567  0.00  0.00    -0.355 NA
ATOM      4  C   UNL     1      34.248 -16.349 -22.471  0.00  0.00    +0.344 C 
ATOM      5  C   UNL     1      33.676 -14.601 -23.563  0.00  0.00    +0.244 C 
ATOM      6  C   UNL     1      33.251 -14.515 -22.263  0.00  0.00    +0.158 C 
ENDROOT
BRANCH   5   7
ATOM      7  C   UNL     1      33.602 -13.780 -24.737  0.00  0.00    +0.024 C 
ATOM      8  C   UNL     1      33.085 -14.299 -25.928  0.00  0.00    -0.000 C 
ATOM      9  C   UNL     1      34.045 -12.453 -24.700  0.00  0.00    -0.000 C 
ATOM     10  C   UNL     1      33.014 -13.501 -27.070  0.00  0.00    -0.000 C 
ATOM     11  C   UNL     1      33.973 -11.655 -25.841  0.00  0.00    -0.000 C 
ATOM     12  C   UNL     1      33.457 -12.179 -27.027  0.00  0.00    -0.000 C 
ENDBRANCH   5   7
BRANCH   6  13
ATOM     13  C   UNL     1      32.522 -13.418 -21.691  0.00  0.00    +0.029 C 
ATOM     14  C   UNL     1      31.825 -12.537 -22.516  0.00  0.00    +0.002 C 
ATOM     15  C   UNL     1      32.511 -13.235 -20.308  0.00  0.00    +0.002 C 
ATOM     16  C   UNL     1      31.116 -11.472 -21.960  0.00  0.00    +0.000 C 
ATOM     17  C   UNL     1      31.803 -12.171 -19.751  0.00  0.00    +0.000 C 
ATOM     18  C   UNL     1      31.105 -11.289 -20.577  0.00  0.00    +0.000 C 
ENDBRANCH   6  13
BRANCH   2  19
ATOM     19  C   UNL     1      34.833 -18.306 -21.060  0.00  0.00    +0.128 C 
BRANCH  19  20
ATOM     20  C   UNL     1      36.073 -19.178 -20.949  0.00  0.00    +0.159 C 
BRANCH  20  21
ATOM     21  O   UNL     1      35.854 -20.158 -19.943  0.00  0.00    -0.380 OA
ATOM     22  H   UNL     1      35.000 -19.994 -19.512  0.00  0.00    +0.211 HD
ENDBRANCH  20  21
ENDBRANCH  19  20
ENDBRANCH   2  19
BRANCH   2  23
ATOM     23  C   UNL     1      35.495 -18.249 -23.469  0.00  0.00    +0.128 C 
BRANCH  23  24
ATOM     24  C   UNL     1      34.467 -18.845 -24.416  0.00  0.00    +0.159 C 
BRANCH  24  25
ATOM     25  O   UNL     1      34.339 -17.994 -25.547  0.00  0.00    -0.380 OA
ATOM     26  H   UNL     1      33.888 -18.471 -26.261  0.00  0.00    +0.211 HD
ENDBRANCH  24  25
ENDBRANCH  23  24
ENDBRANCH   2  23
TORSDOF 8
ENDMDL
MODEL 8
REMARK VINA RESULT:      -8.1      2.776      6.695
REMARK  Name = 29088
REMARK  8 active torsions:
REMARK  status: ('A' for Active; 'I' for Inactive)
REMARK    1  A    between atoms: N_2  and  C_19
REMARK    2  A    between atoms: N_2  and  C_23
REMARK    3  A    between atoms: C_5  and  C_7
REMARK    4  A    between atoms: C_6  and  C_13
REMARK    5  A    between atoms: C_19  and  C_20
REMARK    6  A    between atoms: C_20  and  O_21
REMARK    7  A    between atoms: C_23  and  C_24
REMARK    8  A    between atoms: C_24  and  O_25
REMARK                            x       y       z     vdW  Elec       q    Type
REMARK                         _______ _______ _______ _____ _____    ______ ____
ROOT
ATOM      1  O   UNL     1      33.398 -22.865 -17.130  0.00  0.00    -0.433 OA
ATOM      2  N   UNL     1      34.613 -22.153 -18.944  0.00  0.00    -0.248 N 
ATOM      3  N   UNL     1      35.645 -23.062 -16.970  0.00  0.00    -0.355 NA
ATOM      4  C   UNL     1      34.620 -22.688 -17.702  0.00  0.00    +0.344 C 
ATOM      5  C   UNL     1      33.690 -23.405 -15.914  0.00  0.00    +0.244 C 
ATOM      6  C   UNL     1      35.052 -23.520 -15.825  0.00  0.00    +0.158 C 
ENDROOT
BRANCH   5   7
ATOM      7  C   UNL     1      32.565 -23.703 -15.075  0.00  0.00    +0.024 C 
ATOM      8  C   UNL     1      32.605 -24.796 -14.204  0.00  0.00    -0.000 C 
ATOM      9  C   UNL     1      31.418 -22.902 -15.120  0.00  0.00    -0.000 C 
ATOM     10  C   UNL     1      31.511 -25.087 -13.388  0.00  0.00    -0.000 C 
ATOM     11  C   UNL     1      30.325 -23.192 -14.304  0.00  0.00    -0.000 C 
ATOM     12  C   UNL     1      30.371 -24.285 -13.438  0.00  0.00    -0.000 C 
ENDBRANCH   5   7
BRANCH   6  13
ATOM     13  C   UNL     1      35.777 -24.046 -14.703  0.00  0.00    +0.029 C 
ATOM     14  C   UNL     1      35.979 -23.256 -13.571  0.00  0.00    +0.002 C 
ATOM     15  C   UNL     1      36.278 -25.347 -14.744  0.00  0.00    +0.002 C 
ATOM     16  C   UNL     1      36.682 -23.767 -12.481  0.00  0.00    +0.000 C 
ATOM     17  C   UNL     1      36.982 -25.857 -13.654  0.00  0.00    +0.000 C 
ATOM     18  C   UNL     1      37.184 -25.068 -12.522  0.00  0.00    +0.000 C 
ENDBRANCH   6  13
BRANCH   2  19
ATOM     19  C   UNL     1      35.857 -21.897 -19.703  0.00  0.00    +0.128 C 
BRANCH  19  20
ATOM     20  C   UNL     1      36.698 -20.835 -19.012  0.00  0.00    +0.159 C 
BRANCH  20  21
ATOM     21  O   UNL     1      36.805 -19.707 -19.871  0.00  0.00    -0.380 OA
ATOM     22  H   UNL     1      36.810 -20.003 -20.794  0.00  0.00    +0.211 HD
ENDBRANCH  20  21
ENDBRANCH  19  20
ENDBRANCH   2  19
BRANCH   2  23
ATOM     23  C   UNL     1      33.361 -21.795 -19.646  0.00  0.00    +0.128 C 
BRANCH  23  24
ATOM     24  C   UNL     1      33.449 -20.391 -20.219  0.00  0.00    +0.159 C 
BRANCH  24  25
ATOM     25  O   UNL     1      32.273 -20.129 -20.973  0.00  0.00    -0.380 OA
ATOM     26  H   UNL     1      31.492 -20.312 -20.428  0.00  0.00    +0.211 HD
ENDBRANCH  24  25
ENDBRANCH  23  24
ENDBRANCH   2  23
TORSDOF 8
ENDMDL
MODEL 9
REMARK VINA RESULT:      -7.7      1.950      4.674
REMARK  Name = 29088
REMARK  8 active torsions:
REMARK  status: ('A' for Active; 'I' for Inactive)
REMARK    1  A    between atoms: N_2  and  C_19
REMARK    2  A    between atoms: N_2  and  C_23
REMARK    3  A    between atoms: C_5  and  C_7
REMARK    4  A    between atoms: C_6  and  C_13
REMARK    5  A    between atoms: C_19  and  C_20
REMARK    6  A    between atoms: C_20  and  O_21
REMARK    7  A    between atoms: C_23  and  C_24
REMARK    8  A    between atoms: C_24  and  O_25
REMARK                            x       y       z     vdW  Elec       q    Type
REMARK                         _______ _______ _______ _____ _____    ______ ____
ROOT
ATOM      1  O   UNL     1      35.773 -24.006 -14.922  0.00  0.00    -0.433 OA
ATOM      2  N   UNL     1      37.991 -24.531 -14.643  0.00  0.00    -0.248 N 
ATOM      3  N   UNL     1      37.186 -23.268 -16.526  0.00  0.00    -0.355 NA
ATOM      4  C   UNL     1      37.045 -23.925 -15.397  0.00  0.00    +0.344 C 
ATOM      5  C   UNL     1      35.042 -23.329 -15.851  0.00  0.00    +0.244 C 
ATOM      6  C   UNL     1      35.905 -22.887 -16.818  0.00  0.00    +0.158 C 
ENDROOT
BRANCH   5   7
ATOM      7  C   UNL     1      33.631 -23.251 -15.603  0.00  0.00    +0.024 C 
ATOM      8  C   UNL     1      33.155 -23.025 -14.308  0.00  0.00    -0.000 C 
ATOM      9  C   UNL     1      32.720 -23.399 -16.654  0.00  0.00    -0.000 C 
ATOM     10  C   UNL     1      31.783 -22.951 -14.065  0.00  0.00    -0.000 C 
ATOM     11  C   UNL     1      31.348 -23.324 -16.412  0.00  0.00    -0.000 C 
ATOM     12  C   UNL     1      30.880 -23.100 -15.117  0.00  0.00    -0.000 C 
ENDBRANCH   5   7
BRANCH   6  13
ATOM     13  C   UNL     1      35.542 -22.127 -17.982  0.00  0.00    +0.029 C 
ATOM     14  C   UNL     1      36.496 -21.342 -18.629  0.00  0.00    +0.002 C 
ATOM     15  C   UNL     1      34.235 -22.177 -18.466  0.00  0.00    +0.002 C 
ATOM     16  C   UNL     1      36.144 -20.605 -19.759  0.00  0.00    +0.000 C 
ATOM     17  C   UNL     1      33.882 -21.440 -19.596  0.00  0.00    +0.000 C 
ATOM     18  C   UNL     1      34.836 -20.654 -20.243  0.00  0.00    +0.000 C 
ENDBRANCH   6  13
BRANCH   2  19
ATOM     19  C   UNL     1      39.422 -24.535 -15.020  0.00  0.00    +0.128 C 
BRANCH  19  20
ATOM     20  C   UNL     1      40.227 -25.398 -14.061  0.00  0.00    +0.159 C 
BRANCH  20  21
ATOM     21  O   UNL     1      40.680 -26.552 -14.756  0.00  0.00    -0.380 OA
ATOM     22  H   UNL     1      39.924 -27.000 -15.166  0.00  0.00    +0.211 HD
ENDBRANCH  20  21
ENDBRANCH  19  20
ENDBRANCH   2  19
BRANCH   2  23
ATOM     23  C   UNL     1      37.670 -25.225 -13.376  0.00  0.00    +0.128 C 
BRANCH  23  24
ATOM     24  C   UNL     1      36.996 -26.559 -13.651  0.00  0.00    +0.159 C 
BRANCH  24  25
ATOM     25  O   UNL     1      37.798 -27.296 -14.564  0.00  0.00    -0.380 OA
ATOM     26  H   UNL     1      37.361 -28.137 -14.772  0.00  0.00    +0.211 HD
ENDBRANCH  24  25
ENDBRANCH  23  24
ENDBRANCH   2  23
TORSDOF 8
ENDMDL
