MODEL 1
REMARK VINA RESULT:     -10.8      0.000      0.000
REMARK  Name = 5277135
REMARK  9 active torsions:
REMARK  status: ('A' for Active; 'I' for Inactive)
REMARK    1  A    between atoms: N_2  and  C_18
REMARK    2  A    between atoms: C_7  and  C_15
REMARK    3  A    between atoms: C_8  and  C_25
REMARK    4  A    between atoms: C_11  and  O_12
REMARK    5  A    between atoms: C_15  and  O_16
REMARK    6  A    between atoms: C_18  and  C_19
REMARK    7  A    between atoms: C_18  and  C_22
REMARK    8  A    between atoms: C_22  and  O_23
REMARK    9  A    between atoms: C_25  and  C_28
REMARK                            x       y       z     vdW  Elec       q    Type
REMARK                         _______ _______ _______ _____ _____    ______ ____
ROOT
ATOM      1  O   UNL     1      33.061 -14.442 -19.805  0.00  0.00    -0.286 OA
ATOM      2  N   UNL     1      32.938 -14.183 -23.874  0.00  0.00    -0.285 N 
ATOM      3  C   UNL     1      33.649 -15.258 -23.293  0.00  0.00    +0.058 C 
ATOM      4  C   UNL     1      33.709 -15.375 -21.885  0.00  0.00    +0.053 C 
ATOM      5  C   UNL     1      32.311 -13.261 -23.054  0.00  0.00    +0.075 C 
ATOM      6  C   UNL     1      34.316 -16.240 -24.048  0.00  0.00    +0.051 C 
ATOM      7  C   UNL     1      32.303 -13.274 -21.716  0.00  0.00    +0.129 C 
ATOM      8  C   UNL     1      35.052 -17.379 -22.044  0.00  0.00    +0.016 C 
ATOM      9  C   UNL     1      33.027 -14.370 -21.028  0.00  0.00    +0.204 C 
ATOM     10  C   UNL     1      34.405 -16.424 -21.268  0.00  0.00    +0.003 C 
ATOM     11  C   UNL     1      35.008 -17.287 -23.432  0.00  0.00    +0.136 C 
ENDROOT
BRANCH  11  12
ATOM     12  O   UNL     1      35.637 -18.213 -24.209  0.00  0.00    -0.472 OA
ATOM     13  C   UNL     1      34.846 -19.294 -24.695  0.00  0.00    +0.252 C 
ENDBRANCH  11  12
BRANCH   7  15
ATOM     14  O   UNL     1      31.802 -11.874 -19.861  0.00  0.00    -0.245 OA
ATOM     15  C   UNL     1      31.585 -12.212 -21.012  0.00  0.00    +0.342 C 
BRANCH  15  16
ATOM     16  O   UNL     1      30.655 -11.672 -21.828  0.00  0.00    -0.477 OA
ATOM     17  H   UNL     1      30.635 -10.746 -21.967  0.00  0.00    +0.295 HD
ENDBRANCH  15  16
ENDBRANCH   7  15
BRANCH   2  18
ATOM     18  C   UNL     1      32.884 -14.077 -25.329  0.00  0.00    +0.106 C 
BRANCH  18  19
ATOM     19  C   UNL     1      33.867 -12.996 -25.836  0.00  0.00    +0.021 C 
ATOM     20  C   UNL     1      33.747 -12.797 -27.351  0.00  0.00    +0.002 C 
ATOM     21  C   UNL     1      33.723 -11.647 -25.123  0.00  0.00    +0.002 C 
ENDBRANCH  18  19
BRANCH  18  22
ATOM     22  C   UNL     1      33.157 -15.455 -25.941  0.00  0.00    +0.157 C 
BRANCH  22  23
ATOM     23  O   UNL     1      32.117 -15.775 -26.859  0.00  0.00    -0.380 OA
ATOM     24  H   UNL     1      32.392 -15.533 -27.757  0.00  0.00    +0.211 HD
ENDBRANCH  22  23
ENDBRANCH  18  22
ENDBRANCH   2  18
BRANCH   8  25
ATOM     25  C   UNL     1      35.787 -18.493 -21.376  0.00  0.00    +0.058 C 
BRANCH  25  28
ATOM     26 CL   UNL     1      35.224 -22.603 -18.231  0.00  0.00    -0.080 Cl
ATOM     27  F   UNL     1      36.727 -20.444 -19.582  0.00  0.00    -0.204 F 
ATOM     28  C   UNL     1      34.885 -19.543 -20.762  0.00  0.00    +0.011 C 
ATOM     29  C   UNL     1      35.422 -20.470 -19.888  0.00  0.00    +0.147 C 
ATOM     30  C   UNL     1      33.542 -19.549 -21.094  0.00  0.00    -0.002 C 
ATOM     31  C   UNL     1      34.586 -21.435 -19.324  0.00  0.00    +0.085 C 
ATOM     32  C   UNL     1      32.707 -20.514 -20.532  0.00  0.00    +0.001 C 
ATOM     33  C   UNL     1      33.229 -21.457 -19.646  0.00  0.00    +0.014 C 
ENDBRANCH  25  28
ENDBRANCH   8  25
TORSDOF 9
ENDMDL
MODEL 2
REMARK VINA RESULT:     -10.7      3.505      5.767
REMARK  Name = 5277135
REMARK  9 active torsions:
REMARK  status: ('A' for Active; 'I' for Inactive)
REMARK    1  A    between atoms: N_2  and  C_18
REMARK    2  A    between atoms: C_7  and  C_15
REMARK    3  A    between atoms: C_8  and  C_25
REMARK    4  A    between atoms: C_11  and  O_12
REMARK    5  A    between atoms: C_15  and  O_16
REMARK    6  A    between atoms: C_18  and  C_19
REMARK    7  A    between atoms: C_18  and  C_22
REMARK    8  A    between atoms: C_22  and  O_23
REMARK    9  A    between atoms: C_25  and  C_28
REMARK                            x       y       z     vdW  Elec       q    Type
REMARK                         _______ _______ _______ _____ _____    ______ ____
ROOT
ATOM      1  O   UNL     1      31.654 -12.939 -20.616  0.00  0.00    -0.286 OA
ATOM      2  N   UNL     1      32.545  -9.425 -22.485  0.00  0.00    -0.285 N 
ATOM      3  C   UNL     1      32.827 -10.633 -23.162  0.00  0.00    +0.058 C 
ATOM      4  C   UNL     1      32.529 -11.868 -22.541  0.00  0.00    +0.053 C 
ATOM      5  C   UNL     1      31.981  -9.470 -21.222  0.00  0.00    +0.075 C 
ATOM      6  C   UNL     1      33.400 -10.683 -24.446  0.00  0.00    +0.051 C 
ATOM      7  C   UNL     1      31.659 -10.576 -20.542  0.00  0.00    +0.129 C 
ATOM      8  C   UNL     1      33.359 -13.102 -24.446  0.00  0.00    +0.016 C 
ATOM      9  C   UNL     1      31.923 -11.887 -21.183  0.00  0.00    +0.204 C 
ATOM     10  C   UNL     1      32.793 -13.089 -23.176  0.00  0.00    +0.003 C 
ATOM     11  C   UNL     1      33.663 -11.902 -25.080  0.00  0.00    +0.136 C 
ENDROOT
BRANCH  11  12
ATOM     12  O   UNL     1      34.218 -11.895 -26.324  0.00  0.00    -0.472 OA
ATOM     13  C   UNL     1      35.269 -10.960 -26.559  0.00  0.00    +0.252 C 
ENDBRANCH  11  12
BRANCH   7  15
ATOM     14  O   UNL     1      29.892 -10.619 -18.952  0.00  0.00    -0.245 OA
ATOM     15  C   UNL     1      31.068 -10.431 -19.212  0.00  0.00    +0.342 C 
BRANCH  15  16
ATOM     16  O   UNL     1      32.020 -10.059 -18.330  0.00  0.00    -0.477 OA
ATOM     17  H   UNL     1      32.480  -9.252 -18.449  0.00  0.00    +0.295 HD
ENDBRANCH  15  16
ENDBRANCH   7  15
BRANCH   2  18
ATOM     18  C   UNL     1      32.859  -8.159 -23.142  0.00  0.00    +0.106 C 
BRANCH  18  19
ATOM     19  C   UNL     1      31.646  -7.201 -23.090  0.00  0.00    +0.021 C 
ATOM     20  C   UNL     1      31.947  -5.963 -22.237  0.00  0.00    +0.002 C 
ATOM     21  C   UNL     1      31.140  -6.770 -24.471  0.00  0.00    +0.002 C 
ENDBRANCH  18  19
BRANCH  18  22
ATOM     22  C   UNL     1      34.112  -7.559 -22.498  0.00  0.00    +0.157 C 
BRANCH  22  23
ATOM     23  O   UNL     1      35.243  -7.847 -23.313  0.00  0.00    -0.380 OA
ATOM     24  H   UNL     1      36.048  -7.814 -22.774  0.00  0.00    +0.211 HD
ENDBRANCH  22  23
ENDBRANCH  18  22
ENDBRANCH   2  18
BRANCH   8  25
ATOM     25  C   UNL     1      33.635 -14.409 -25.113  0.00  0.00    +0.058 C 
BRANCH  25  28
ATOM     26 CL   UNL     1      34.893 -19.393 -24.292  0.00  0.00    -0.080 Cl
ATOM     27  F   UNL     1      33.904 -17.102 -25.878  0.00  0.00    -0.204 F 
ATOM     28  C   UNL     1      34.162 -15.477 -24.177  0.00  0.00    +0.011 C 
ATOM     29  C   UNL     1      34.265 -16.781 -24.627  0.00  0.00    +0.147 C 
ATOM     30  C   UNL     1      34.527 -15.120 -22.891  0.00  0.00    -0.002 C 
ATOM     31  C   UNL     1      34.752 -17.761 -23.761  0.00  0.00    +0.085 C 
ATOM     32  C   UNL     1      35.013 -16.100 -22.026  0.00  0.00    +0.001 C 
ATOM     33  C   UNL     1      35.126 -17.420 -22.461  0.00  0.00    +0.014 C 
ENDBRANCH  25  28
ENDBRANCH   8  25
TORSDOF 9
ENDMDL
MODEL 3
REMARK VINA RESULT:     -10.5      7.235     11.945
REMARK  Name = 5277135
REMARK  9 active torsions:
REMARK  status: ('A' for Active; 'I' for Inactive)
REMARK    1  A    between atoms: N_2  and  C_18
REMARK    2  A    between atoms: C_7  and  C_15
REMARK    3  A    between atoms: C_8  and  C_25
REMARK    4  A    between atoms: C_11  and  O_12
REMARK    5  A    between atoms: C_15  and  O_16
REMARK    6  A    between atoms: C_18  and  C_19
REMARK    7  A    between atoms: C_18  and  C_22
REMARK    8  A    between atoms: C_22  and  O_23
REMARK    9  A    between atoms: C_25  and  C_28
REMARK                            x       y       z     vdW  Elec       q    Type
REMARK                         _______ _______ _______ _____ _____    ______ ____
ROOT
ATOM      1  O   UNL     1      32.079 -23.158 -16.187  0.00  0.00    -0.286 OA
ATOM      2  N   UNL     1      34.732 -24.410 -13.354  0.00  0.00    -0.285 N 
ATOM      3  C   UNL     1      35.240 -23.797 -14.522  0.00  0.00    +0.058 C 
ATOM      4  C   UNL     1      34.346 -23.352 -15.522  0.00  0.00    +0.053 C 
ATOM      5  C   UNL     1      33.365 -24.565 -13.208  0.00  0.00    +0.075 C 
ATOM      6  C   UNL     1      36.613 -23.600 -14.755  0.00  0.00    +0.051 C 
ATOM      7  C   UNL     1      32.430 -24.183 -14.085  0.00  0.00    +0.129 C 
ATOM      8  C   UNL     1      36.171 -22.559 -16.895  0.00  0.00    +0.016 C 
ATOM      9  C   UNL     1      32.881 -23.531 -15.339  0.00  0.00    +0.204 C 
ATOM     10  C   UNL     1      34.806 -22.740 -16.696  0.00  0.00    +0.003 C 
ATOM     11  C   UNL     1      37.073 -22.989 -15.926  0.00  0.00    +0.136 C 
ENDROOT
BRANCH  11  12
ATOM     12  O   UNL     1      38.414 -22.820 -16.103  0.00  0.00    -0.472 OA
ATOM     13  C   UNL     1      39.261 -23.888 -15.685  0.00  0.00    +0.252 C 
ENDBRANCH  11  12
BRANCH   7  15
ATOM     14  O   UNL     1      30.478 -24.066 -12.735  0.00  0.00    -0.245 OA
ATOM     15  C   UNL     1      31.025 -24.429 -13.761  0.00  0.00    +0.342 C 
BRANCH  15  16
ATOM     16  O   UNL     1      30.440 -25.113 -14.767  0.00  0.00    -0.477 OA
ATOM     17  H   UNL     1      29.639 -24.801 -15.141  0.00  0.00    +0.295 HD
ENDBRANCH  15  16
ENDBRANCH   7  15
BRANCH   2  18
ATOM     18  C   UNL     1      35.670 -24.863 -12.330  0.00  0.00    +0.106 C 
BRANCH  18  19
ATOM     19  C   UNL     1      37.044 -25.197 -12.957  0.00  0.00    +0.021 C 
ATOM     20  C   UNL     1      38.196 -24.751 -12.049  0.00  0.00    +0.002 C 
ATOM     21  C   UNL     1      37.214 -26.675 -13.323  0.00  0.00    +0.002 C 
ENDBRANCH  18  19
BRANCH  18  22
ATOM     22  C   UNL     1      35.765 -23.800 -11.233  0.00  0.00    +0.157 C 
BRANCH  22  23
ATOM     23  O   UNL     1      35.435 -24.388  -9.979  0.00  0.00    -0.380 OA
ATOM     24  H   UNL     1      34.866 -25.159 -10.124  0.00  0.00    +0.211 HD
ENDBRANCH  22  23
ENDBRANCH  18  22
ENDBRANCH   2  18
BRANCH   8  25
ATOM     25  C   UNL     1      36.650 -21.905 -18.148  0.00  0.00    +0.058 C 
BRANCH  25  28
ATOM     26 CL   UNL     1      35.104 -18.777 -22.012  0.00  0.00    -0.080 Cl
ATOM     27  F   UNL     1      37.061 -19.957 -20.134  0.00  0.00    -0.204 F 
ATOM     28  C   UNL     1      35.535 -21.398 -19.039  0.00  0.00    +0.011 C 
ATOM     29  C   UNL     1      35.816 -20.437 -19.994  0.00  0.00    +0.147 C 
ATOM     30  C   UNL     1      34.260 -21.908 -18.875  0.00  0.00    -0.002 C 
ATOM     31  C   UNL     1      34.787 -19.973 -20.813  0.00  0.00    +0.085 C 
ATOM     32  C   UNL     1      33.231 -21.444 -19.693  0.00  0.00    +0.001 C 
ATOM     33  C   UNL     1      33.494 -20.476 -20.663  0.00  0.00    +0.014 C 
ENDBRANCH  25  28
ENDBRANCH   8  25
TORSDOF 9
ENDMDL
MODEL 4
REMARK VINA RESULT:     -10.4      5.730     10.174
REMARK  Name = 5277135
REMARK  9 active torsions:
REMARK  status: ('A' for Active; 'I' for Inactive)
REMARK    1  A    between atoms: N_2  and  C_18
REMARK    2  A    between atoms: C_7  and  C_15
REMARK    3  A    between atoms: C_8  and  C_25
REMARK    4  A    between atoms: C_11  and  O_12
REMARK    5  A    between atoms: C_15  and  O_16
REMARK    6  A    between atoms: C_18  and  C_19
REMARK    7  A    between atoms: C_18  and  C_22
REMARK    8  A    between atoms: C_22  and  O_23
REMARK    9  A    between atoms: C_25  and  C_28
REMARK                            x       y       z     vdW  Elec       q    Type
REMARK                         _______ _______ _______ _____ _____    ______ ____
ROOT
ATOM      1  O   UNL     1      30.367 -22.393 -16.983  0.00  0.00    -0.286 OA
ATOM      2  N   UNL     1      34.170 -23.553 -16.076  0.00  0.00    -0.285 N 
ATOM      3  C   UNL     1      33.955 -22.854 -17.286  0.00  0.00    +0.058 C 
ATOM      4  C   UNL     1      32.647 -22.438 -17.628  0.00  0.00    +0.053 C 
ATOM      5  C   UNL     1      33.097 -23.819 -15.245  0.00  0.00    +0.075 C 
ATOM      6  C   UNL     1      34.985 -22.540 -18.191  0.00  0.00    +0.051 C 
ATOM      7  C   UNL     1      31.823 -23.475 -15.468  0.00  0.00    +0.129 C 
ATOM      8  C   UNL     1      33.431 -21.448 -19.690  0.00  0.00    +0.016 C 
ATOM      9  C   UNL     1      31.512 -22.738 -16.717  0.00  0.00    +0.204 C 
ATOM     10  C   UNL     1      32.388 -21.743 -18.818  0.00  0.00    +0.003 C 
ATOM     11  C   UNL     1      34.727 -21.846 -19.377  0.00  0.00    +0.136 C 
ENDROOT
BRANCH  11  12
ATOM     12  O   UNL     1      35.761 -21.567 -20.220  0.00  0.00    -0.472 OA
ATOM     13  C   UNL     1      37.046 -21.388 -19.630  0.00  0.00    +0.252 C 
ENDBRANCH  11  12
BRANCH   7  15
ATOM     14  O   UNL     1      30.908 -23.619 -13.278  0.00  0.00    -0.245 OA
ATOM     15  C   UNL     1      30.816 -23.843 -14.473  0.00  0.00    +0.342 C 
BRANCH  15  16
ATOM     16  O   UNL     1      29.782 -24.462 -15.081  0.00  0.00    -0.477 OA
ATOM     17  H   UNL     1      29.457 -25.273 -14.742  0.00  0.00    +0.295 HD
ENDBRANCH  15  16
ENDBRANCH   7  15
BRANCH   2  18
ATOM     18  C   UNL     1      35.527 -23.974 -15.738  0.00  0.00    +0.106 C 
BRANCH  18  19
ATOM     19  C   UNL     1      36.285 -22.842 -15.006  0.00  0.00    +0.021 C 
ATOM     20  C   UNL     1      36.641 -23.245 -13.570  0.00  0.00    +0.002 C 
ATOM     21  C   UNL     1      37.544 -22.366 -15.739  0.00  0.00    +0.002 C 
ENDBRANCH  18  19
BRANCH  18  22
ATOM     22  C   UNL     1      35.460 -25.265 -14.917  0.00  0.00    +0.157 C 
BRANCH  22  23
ATOM     23  O   UNL     1      36.005 -26.336 -15.680  0.00  0.00    -0.380 OA
ATOM     24  H   UNL     1      36.920 -26.125 -15.925  0.00  0.00    +0.211 HD
ENDBRANCH  22  23
ENDBRANCH  18  22
ENDBRANCH   2  18
BRANCH   8  25
ATOM     25  C   UNL     1      33.143 -20.707 -20.953  0.00  0.00    +0.058 C 
BRANCH  25  28
ATOM     26 CL   UNL     1      32.618 -15.548 -20.489  0.00  0.00    -0.080 Cl
ATOM     27  F   UNL     1      31.686 -18.355 -20.452  0.00  0.00    -0.204 F 
ATOM     28  C   UNL     1      33.769 -19.329 -21.011  0.00  0.00    +0.011 C 
ATOM     29  C   UNL     1      32.985 -18.218 -20.753  0.00  0.00    +0.147 C 
ATOM     30  C   UNL     1      35.112 -19.214 -21.323  0.00  0.00    -0.002 C 
ATOM     31  C   UNL     1      33.566 -16.951 -20.807  0.00  0.00    +0.085 C 
ATOM     32  C   UNL     1      35.691 -17.947 -21.378  0.00  0.00    +0.001 C 
ATOM     33  C   UNL     1      34.919 -16.815 -21.119  0.00  0.00    +0.014 C 
ENDBRANCH  25  28
ENDBRANCH   8  25
TORSDOF 9
ENDMDL
MODEL 5
REMARK VINA RESULT:     -10.3      1.449      3.969
REMARK  Name = 5277135
REMARK  9 active torsions:
REMARK  status: ('A' for Active; 'I' for Inactive)
REMARK    1  A    between atoms: N_2  and  C_18
REMARK    2  A    between atoms: C_7  and  C_15
REMARK    3  A    between atoms: C_8  and  C_25
REMARK    4  A    between atoms: C_11  and  O_12
REMARK    5  A    between atoms: C_15  and  O_16
REMARK    6  A    between atoms: C_18  and  C_19
REMARK    7  A    between atoms: C_18  and  C_22
REMARK    8  A    between atoms: C_22  and  O_23
REMARK    9  A    between atoms: C_25  and  C_28
REMARK                            x       y       z     vdW  Elec       q    Type
REMARK                         _______ _______ _______ _____ _____    ______ ____
ROOT
ATOM      1  O   UNL     1      34.080 -16.106 -26.539  0.00  0.00    -0.286 OA
ATOM      2  N   UNL     1      33.323 -13.334 -23.644  0.00  0.00    -0.285 N 
ATOM      3  C   UNL     1      33.925 -14.554 -23.261  0.00  0.00    +0.058 C 
ATOM      4  C   UNL     1      34.200 -15.535 -24.241  0.00  0.00    +0.053 C 
ATOM      5  C   UNL     1      33.012 -13.119 -24.975  0.00  0.00    +0.075 C 
ATOM      6  C   UNL     1      34.274 -14.859 -21.933  0.00  0.00    +0.051 C 
ATOM      7  C   UNL     1      33.227 -13.972 -25.983  0.00  0.00    +0.129 C 
ATOM      8  C   UNL     1      35.129 -17.028 -22.582  0.00  0.00    +0.016 C 
ATOM      9  C   UNL     1      33.856 -15.277 -25.664  0.00  0.00    +0.204 C 
ATOM     10  C   UNL     1      34.795 -16.759 -23.905  0.00  0.00    +0.003 C 
ATOM     11  C   UNL     1      34.868 -16.080 -21.598  0.00  0.00    +0.136 C 
ENDROOT
BRANCH  11  12
ATOM     12  O   UNL     1      35.188 -16.326 -20.296  0.00  0.00    -0.472 OA
ATOM     13  C   UNL     1      34.536 -15.531 -19.308  0.00  0.00    +0.252 C 
ENDBRANCH  11  12
BRANCH   7  15
ATOM     14  O   UNL     1      31.685 -13.343 -27.679  0.00  0.00    -0.245 OA
ATOM     15  C   UNL     1      32.831 -13.572 -27.333  0.00  0.00    +0.342 C 
BRANCH  15  16
ATOM     16  O   UNL     1      33.922 -13.498 -28.124  0.00  0.00    -0.477 OA
ATOM     17  H   UNL     1      34.198 -12.670 -28.465  0.00  0.00    +0.295 HD
ENDBRANCH  15  16
ENDBRANCH   7  15
BRANCH   2  18
ATOM     18  C   UNL     1      33.046 -12.331 -22.619  0.00  0.00    +0.106 C 
BRANCH  18  19
ATOM     19  C   UNL     1      32.842 -10.938 -23.257  0.00  0.00    +0.021 C 
ATOM     20  C   UNL     1      32.044 -10.011 -22.332  0.00  0.00    +0.002 C 
ATOM     21  C   UNL     1      34.147 -10.253 -23.678  0.00  0.00    +0.002 C 
ENDBRANCH  18  19
BRANCH  18  22
ATOM     22  C   UNL     1      31.840 -12.783 -21.790  0.00  0.00    +0.157 C 
BRANCH  22  23
ATOM     23  O   UNL     1      32.187 -12.772 -20.410  0.00  0.00    -0.380 OA
ATOM     24  H   UNL     1      33.071 -12.386 -20.302  0.00  0.00    +0.211 HD
ENDBRANCH  22  23
ENDBRANCH  18  22
ENDBRANCH   2  18
BRANCH   8  25
ATOM     25  C   UNL     1      35.763 -18.334 -22.236  0.00  0.00    +0.058 C 
BRANCH  25  28
ATOM     26 CL   UNL     1      35.380 -22.109 -18.673  0.00  0.00    -0.080 Cl
ATOM     27  F   UNL     1      36.817 -20.225 -20.442  0.00  0.00    -0.204 F 
ATOM     28  C   UNL     1      34.888 -19.236 -21.391  0.00  0.00    +0.011 C 
ATOM     29  C   UNL     1      35.482 -20.142 -20.531  0.00  0.00    +0.147 C 
ATOM     30  C   UNL     1      33.513 -19.131 -21.502  0.00  0.00    -0.002 C 
ATOM     31  C   UNL     1      34.672 -20.971 -19.754  0.00  0.00    +0.085 C 
ATOM     32  C   UNL     1      32.704 -19.960 -20.725  0.00  0.00    +0.001 C 
ATOM     33  C   UNL     1      33.283 -20.880 -19.851  0.00  0.00    +0.014 C 
ENDBRANCH  25  28
ENDBRANCH   8  25
TORSDOF 9
ENDMDL
MODEL 6
REMARK VINA RESULT:     -10.0      6.405     11.012
REMARK  Name = 5277135
REMARK  9 active torsions:
REMARK  status: ('A' for Active; 'I' for Inactive)
REMARK    1  A    between atoms: N_2  and  C_18
REMARK    2  A    between atoms: C_7  and  C_15
REMARK    3  A    between atoms: C_8  and  C_25
REMARK    4  A    between atoms: C_11  and  O_12
REMARK    5  A    between atoms: C_15  and  O_16
REMARK    6  A    between atoms: C_18  and  C_19
REMARK    7  A    between atoms: C_18  and  C_22
REMARK    8  A    between atoms: C_22  and  O_23
REMARK    9  A    between atoms: C_25  and  C_28
REMARK                            x       y       z     vdW  Elec       q    Type
REMARK                         _______ _______ _______ _____ _____    ______ ____
ROOT
ATOM      1  O   UNL     1      30.864 -23.612 -16.244  0.00  0.00    -0.286 OA
ATOM      2  N   UNL     1      34.531 -23.388 -14.472  0.00  0.00    -0.285 N 
ATOM      3  C   UNL     1      34.436 -23.097 -15.853  0.00  0.00    +0.058 C 
ATOM      4  C   UNL     1      33.178 -23.165 -16.495  0.00  0.00    +0.053 C 
ATOM      5  C   UNL     1      33.390 -23.736 -13.772  0.00  0.00    +0.075 C 
ATOM      6  C   UNL     1      35.541 -22.736 -16.643  0.00  0.00    +0.051 C 
ATOM      7  C   UNL     1      32.154 -23.832 -14.275  0.00  0.00    +0.129 C 
ATOM      8  C   UNL     1      34.153 -22.531 -18.614  0.00  0.00    +0.016 C 
ATOM      9  C   UNL     1      31.968 -23.542 -15.718  0.00  0.00    +0.204 C 
ATOM     10  C   UNL     1      33.039 -22.886 -17.862  0.00  0.00    +0.003 C 
ATOM     11  C   UNL     1      35.402 -22.456 -18.006  0.00  0.00    +0.136 C 
ENDROOT
BRANCH  11  12
ATOM     12  O   UNL     1      36.505 -22.110 -18.728  0.00  0.00    -0.472 OA
ATOM     13  C   UNL     1      37.248 -20.981 -18.274  0.00  0.00    +0.252 C 
ENDBRANCH  11  12
BRANCH   7  15
ATOM     14  O   UNL     1      30.708 -23.573 -12.406  0.00  0.00    -0.245 OA
ATOM     15  C   UNL     1      31.063 -24.215 -13.380  0.00  0.00    +0.342 C 
BRANCH  15  16
ATOM     16  O   UNL     1      30.519 -25.378 -13.798  0.00  0.00    -0.477 OA
ATOM     17  H   UNL     1      29.612 -25.413 -14.033  0.00  0.00    +0.295 HD
ENDBRANCH  15  16
ENDBRANCH   7  15
BRANCH   2  18
ATOM     18  C   UNL     1      35.838 -23.311 -13.824  0.00  0.00    +0.106 C 
BRANCH  18  19
ATOM     19  C   UNL     1      35.724 -23.659 -12.322  0.00  0.00    +0.021 C 
ATOM     20  C   UNL     1      35.906 -25.162 -12.081  0.00  0.00    +0.002 C 
ATOM     21  C   UNL     1      36.688 -22.870 -11.430  0.00  0.00    +0.002 C 
ENDBRANCH  18  19
BRANCH  18  22
ATOM     22  C   UNL     1      36.819 -24.222 -14.568  0.00  0.00    +0.157 C 
BRANCH  22  23
ATOM     23  O   UNL     1      38.125 -23.662 -14.498  0.00  0.00    -0.380 OA
ATOM     24  H   UNL     1      38.226 -22.989 -15.189  0.00  0.00    +0.211 HD
ENDBRANCH  22  23
ENDBRANCH  18  22
ENDBRANCH   2  18
BRANCH   8  25
ATOM     25  C   UNL     1      33.992 -22.234 -20.068  0.00  0.00    +0.058 C 
BRANCH  25  28
ATOM     26 CL   UNL     1      35.933 -17.767 -21.906  0.00  0.00    -0.080 Cl
ATOM     27  F   UNL     1      36.012 -20.637 -21.197  0.00  0.00    -0.204 F 
ATOM     28  C   UNL     1      33.797 -20.764 -20.376  0.00  0.00    +0.011 C 
ATOM     29  C   UNL     1      34.839 -20.044 -20.931  0.00  0.00    +0.147 C 
ATOM     30  C   UNL     1      32.577 -20.175 -20.092  0.00  0.00    -0.002 C 
ATOM     31  C   UNL     1      34.655 -18.690 -21.214  0.00  0.00    +0.085 C 
ATOM     32  C   UNL     1      32.393 -18.822 -20.374  0.00  0.00    +0.001 C 
ATOM     33  C   UNL     1      33.432 -18.079 -20.936  0.00  0.00    +0.014 C 
ENDBRANCH  25  28
ENDBRANCH   8  25
TORSDOF 9
ENDMDL
MODEL 7
REMARK VINA RESULT:      -9.7      4.881      9.132
REMARK  Name = 5277135
REMARK  9 active torsions:
REMARK  status: ('A' for Active; 'I' for Inactive)
REMARK    1  A    between atoms: N_2  and  C_18
REMARK    2  A    between atoms: C_7  and  C_15
REMARK    3  A    between atoms: C_8  and  C_25
REMARK    4  A    between atoms: C_11  and  O_12
REMARK    5  A    between atoms: C_15  and  O_16
REMARK    6  A    between atoms: C_18  and  C_19
REMARK    7  A    between atoms: C_18  and  C_22
REMARK    8  A    between atoms: C_22  and  O_23
REMARK    9  A    between atoms: C_25  and  C_28
REMARK                            x       y       z     vdW  Elec       q    Type
REMARK                         _______ _______ _______ _____ _____    ______ ____
ROOT
ATOM      1  O   UNL     1      33.010 -13.089 -25.690  0.00  0.00    -0.286 OA
ATOM      2  N   UNL     1      33.267 -15.268 -22.252  0.00  0.00    -0.285 N 
ATOM      3  C   UNL     1      32.729 -13.963 -22.178  0.00  0.00    +0.058 C 
ATOM      4  C   UNL     1      32.626 -13.183 -23.353  0.00  0.00    +0.053 C 
ATOM      5  C   UNL     1      33.685 -15.762 -23.475  0.00  0.00    +0.075 C 
ATOM      6  C   UNL     1      32.281 -13.380 -20.979  0.00  0.00    +0.051 C 
ATOM      7  C   UNL     1      33.635 -15.116 -24.645  0.00  0.00    +0.129 C 
ATOM      8  C   UNL     1      31.665 -11.338 -22.122  0.00  0.00    +0.016 C 
ATOM      9  C   UNL     1      33.083 -13.739 -24.653  0.00  0.00    +0.204 C 
ATOM     10  C   UNL     1      32.101 -11.884 -23.324  0.00  0.00    +0.003 C 
ATOM     11  C   UNL     1      31.755 -12.084 -20.951  0.00  0.00    +0.136 C 
ENDROOT
BRANCH  11  12
ATOM     12  O   UNL     1      31.334 -11.565 -19.763  0.00  0.00    -0.472 OA
ATOM     13  C   UNL     1      32.103 -10.499 -19.213  0.00  0.00    +0.252 C 
ENDBRANCH  11  12
BRANCH   7  15
ATOM     14  O   UNL     1      34.982 -16.665 -25.843  0.00  0.00    -0.245 OA
ATOM     15  C   UNL     1      34.125 -15.799 -25.842  0.00  0.00    +0.342 C 
BRANCH  15  16
ATOM     16  O   UNL     1      33.485 -15.323 -26.931  0.00  0.00    -0.477 OA
ATOM     17  H   UNL     1      33.046 -14.495 -26.892  0.00  0.00    +0.295 HD
ENDBRANCH  15  16
ENDBRANCH   7  15
BRANCH   2  18
ATOM     18  C   UNL     1      33.365 -16.061 -21.029  0.00  0.00    +0.106 C 
BRANCH  18  19
ATOM     19  C   UNL     1      33.709 -17.532 -21.356  0.00  0.00    +0.021 C 
ATOM     20  C   UNL     1      35.156 -17.867 -20.975  0.00  0.00    +0.002 C 
ATOM     21  C   UNL     1      32.755 -18.547 -20.717  0.00  0.00    +0.002 C 
ENDBRANCH  18  19
BRANCH  18  22
ATOM     22  C   UNL     1      34.388 -15.411 -20.093  0.00  0.00    +0.157 C 
BRANCH  22  23
ATOM     23  O   UNL     1      35.271 -14.595 -20.855  0.00  0.00    -0.380 OA
ATOM     24  H   UNL     1      35.965 -14.242 -20.278  0.00  0.00    +0.211 HD
ENDBRANCH  22  23
ENDBRANCH  18  22
ENDBRANCH   2  18
BRANCH   8  25
ATOM     25  C   UNL     1      31.105  -9.954 -22.105  0.00  0.00    +0.058 C 
BRANCH  25  28
ATOM     26 CL   UNL     1      31.614  -5.635 -24.966  0.00  0.00    -0.080 Cl
ATOM     27  F   UNL     1      30.116  -7.796 -23.612  0.00  0.00    -0.204 F 
ATOM     28  C   UNL     1      32.009  -8.919 -22.742  0.00  0.00    +0.011 C 
ATOM     29  C   UNL     1      31.447  -7.886 -23.470  0.00  0.00    +0.147 C 
ATOM     30  C   UNL     1      33.378  -9.034 -22.580  0.00  0.00    -0.002 C 
ATOM     31  C   UNL     1      32.283  -6.934 -24.054  0.00  0.00    +0.085 C 
ATOM     32  C   UNL     1      34.213  -8.083 -23.165  0.00  0.00    +0.001 C 
ATOM     33  C   UNL     1      33.666  -7.033 -23.902  0.00  0.00    +0.014 C 
ENDBRANCH  25  28
ENDBRANCH   8  25
TORSDOF 9
ENDMDL
MODEL 8
REMARK VINA RESULT:      -9.6      5.877     10.382
REMARK  Name = 5277135
REMARK  9 active torsions:
REMARK  status: ('A' for Active; 'I' for Inactive)
REMARK    1  A    between atoms: N_2  and  C_18
REMARK    2  A    between atoms: C_7  and  C_15
REMARK    3  A    between atoms: C_8  and  C_25
REMARK    4  A    between atoms: C_11  and  O_12
REMARK    5  A    between atoms: C_15  and  O_16
REMARK    6  A    between atoms: C_18  and  C_19
REMARK    7  A    between atoms: C_18  and  C_22
REMARK    8  A    between atoms: C_22  and  O_23
REMARK    9  A    between atoms: C_25  and  C_28
REMARK                            x       y       z     vdW  Elec       q    Type
REMARK                         _______ _______ _______ _____ _____    ______ ____
ROOT
ATOM      1  O   UNL     1      34.563 -11.517 -26.718  0.00  0.00    -0.286 OA
ATOM      2  N   UNL     1      32.641 -12.701 -23.321  0.00  0.00    -0.285 N 
ATOM      3  C   UNL     1      33.092 -11.364 -23.403  0.00  0.00    +0.058 C 
ATOM      4  C   UNL     1      33.761 -10.923 -24.568  0.00  0.00    +0.053 C 
ATOM      5  C   UNL     1      32.863 -13.559 -24.384  0.00  0.00    +0.075 C 
ATOM      6  C   UNL     1      32.912 -10.424 -22.373  0.00  0.00    +0.051 C 
ATOM      7  C   UNL     1      33.482 -13.251 -25.530  0.00  0.00    +0.129 C 
ATOM      8  C   UNL     1      34.030  -8.702 -23.652  0.00  0.00    +0.016 C 
ATOM      9  C   UNL     1      33.986 -11.866 -25.695  0.00  0.00    +0.204 C 
ATOM     10  C   UNL     1      34.226  -9.606 -24.691  0.00  0.00    +0.003 C 
ATOM     11  C   UNL     1      33.374  -9.110 -22.495  0.00  0.00    +0.136 C 
ENDROOT
BRANCH  11  12
ATOM     12  O   UNL     1      33.173  -8.238 -21.467  0.00  0.00    -0.472 OA
ATOM     13  C   UNL     1      32.309  -8.664 -20.417  0.00  0.00    +0.252 C 
ENDBRANCH  11  12
BRANCH   7  15
ATOM     14  O   UNL     1      33.766 -15.479 -26.309  0.00  0.00    -0.245 OA
ATOM     15  C   UNL     1      33.626 -14.292 -26.547  0.00  0.00    +0.342 C 
BRANCH  15  16
ATOM     16  O   UNL     1      33.581 -13.735 -27.776  0.00  0.00    -0.477 OA
ATOM     17  H   UNL     1      33.281 -14.239 -28.508  0.00  0.00    +0.295 HD
ENDBRANCH  15  16
ENDBRANCH   7  15
BRANCH   2  18
ATOM     18  C   UNL     1      31.951 -13.140 -22.111  0.00  0.00    +0.106 C 
BRANCH  18  19
ATOM     19  C   UNL     1      32.899 -13.960 -21.207  0.00  0.00    +0.021 C 
ATOM     20  C   UNL     1      32.287 -15.316 -20.838  0.00  0.00    +0.002 C 
ATOM     21  C   UNL     1      34.297 -14.165 -21.801  0.00  0.00    +0.002 C 
ENDBRANCH  18  19
BRANCH  18  22
ATOM     22  C   UNL     1      31.366 -11.917 -21.398  0.00  0.00    +0.157 C 
BRANCH  22  23
ATOM     23  O   UNL     1      31.587 -12.041 -19.997  0.00  0.00    -0.380 OA
ATOM     24  H   UNL     1      31.314 -11.222 -19.553  0.00  0.00    +0.211 HD
ENDBRANCH  22  23
ENDBRANCH  18  22
ENDBRANCH   2  18
BRANCH   8  25
ATOM     25  C   UNL     1      34.527  -7.302 -23.795  0.00  0.00    +0.058 C 
BRANCH  25  28
ATOM     26 CL   UNL     1      33.352  -4.184 -27.795  0.00  0.00    -0.080 Cl
ATOM     27  F   UNL     1      35.058  -6.043 -26.253  0.00  0.00    -0.204 F 
ATOM     28  C   UNL     1      33.542  -6.366 -24.465  0.00  0.00    +0.011 C 
ATOM     29  C   UNL     1      33.876  -5.784 -25.674  0.00  0.00    +0.147 C 
ATOM     30  C   UNL     1      32.330  -6.115 -23.847  0.00  0.00    -0.002 C 
ATOM     31  C   UNL     1      32.966  -4.923 -26.288  0.00  0.00    +0.085 C 
ATOM     32  C   UNL     1      31.420  -5.255 -24.460  0.00  0.00    +0.001 C 
ATOM     33  C   UNL     1      31.738  -4.659 -25.681  0.00  0.00    +0.014 C 
ENDBRANCH  25  28
ENDBRANCH   8  25
TORSDOF 9
ENDMDL
MODEL 9
REMARK VINA RESULT:      -9.3      8.380     11.951
REMARK  Name = 5277135
REMARK  9 active torsions:
REMARK  status: ('A' for Active; 'I' for Inactive)
REMARK    1  A    between atoms: N_2  and  C_18
REMARK    2  A    between atoms: C_7  and  C_15
REMARK    3  A    between atoms: C_8  and  C_25
REMARK    4  A    between atoms: C_11  and  O_12
REMARK    5  A    between atoms: C_15  and  O_16
REMARK    6  A    between atoms: C_18  and  C_19
REMARK    7  A    between atoms: C_18  and  C_22
REMARK    8  A    between atoms: C_22  and  O_23
REMARK    9  A    between atoms: C_25  and  C_28
REMARK                            x       y       z     vdW  Elec       q    Type
REMARK                         _______ _______ _______ _____ _____    ______ ____
ROOT
ATOM      1  O   UNL     1      35.756 -22.774 -17.455  0.00  0.00    -0.286 OA
ATOM      2  N   UNL     1      32.249 -23.471 -15.493  0.00  0.00    -0.285 N 
ATOM      3  C   UNL     1      33.460 -23.675 -14.792  0.00  0.00    +0.058 C 
ATOM      4  C   UNL     1      34.692 -23.441 -15.445  0.00  0.00    +0.053 C 
ATOM      5  C   UNL     1      32.289 -23.045 -16.808  0.00  0.00    +0.075 C 
ATOM      6  C   UNL     1      33.515 -24.107 -13.455  0.00  0.00    +0.051 C 
ATOM      7  C   UNL     1      33.392 -22.794 -17.522  0.00  0.00    +0.129 C 
ATOM      8  C   UNL     1      35.934 -24.059 -13.465  0.00  0.00    +0.016 C 
ATOM      9  C   UNL     1      34.706 -22.984 -16.860  0.00  0.00    +0.204 C 
ATOM     10  C   UNL     1      35.916 -23.632 -14.789  0.00  0.00    +0.003 C 
ATOM     11  C   UNL     1      34.735 -24.296 -12.799  0.00  0.00    +0.136 C 
ENDROOT
BRANCH  11  12
ATOM     12  O   UNL     1      34.733 -24.715 -11.502  0.00  0.00    -0.472 OA
ATOM     13  C   UNL     1      35.602 -24.034 -10.601  0.00  0.00    +0.252 C 
ENDBRANCH  11  12
BRANCH   7  15
ATOM     14  O   UNL     1      32.671 -21.329 -19.250  0.00  0.00    -0.245 OA
ATOM     15  C   UNL     1      33.242 -22.350 -18.908  0.00  0.00    +0.342 C 
BRANCH  15  16
ATOM     16  O   UNL     1      33.830 -23.238 -19.737  0.00  0.00    -0.477 OA
ATOM     17  H   UNL     1      34.387 -22.937 -20.427  0.00  0.00    +0.295 HD
ENDBRANCH  15  16
ENDBRANCH   7  15
BRANCH   2  18
ATOM     18  C   UNL     1      30.985 -23.716 -14.803  0.00  0.00    +0.106 C 
BRANCH  18  19
ATOM     19  C   UNL     1      29.787 -23.405 -15.729  0.00  0.00    +0.021 C 
ATOM     20  C   UNL     1      28.977 -24.670 -16.039  0.00  0.00    +0.002 C 
ATOM     21  C   UNL     1      28.857 -22.312 -15.193  0.00  0.00    +0.002 C 
ENDBRANCH  18  19
BRANCH  18  22
ATOM     22  C   UNL     1      30.971 -25.156 -14.282  0.00  0.00    +0.157 C 
BRANCH  22  23
ATOM     23  O   UNL     1      30.523 -25.163 -12.931  0.00  0.00    -0.380 OA
ATOM     24  H   UNL     1      30.916 -24.414 -12.456  0.00  0.00    +0.211 HD
ENDBRANCH  22  23
ENDBRANCH  18  22
ENDBRANCH   2  18
BRANCH   8  25
ATOM     25  C   UNL     1      37.243 -24.257 -12.776  0.00  0.00    +0.058 C 
BRANCH  25  28
ATOM     26 CL   UNL     1      41.413 -27.238 -13.681  0.00  0.00    -0.080 Cl
ATOM     27  F   UNL     1      39.127 -26.232 -12.099  0.00  0.00    -0.204 F 
ATOM     28  C   UNL     1      38.368 -24.666 -13.703  0.00  0.00    +0.011 C 
ATOM     29  C   UNL     1      39.257 -25.646 -13.298  0.00  0.00    +0.147 C 
ATOM     30  C   UNL     1      38.481 -24.047 -14.935  0.00  0.00    -0.002 C 
ATOM     31  C   UNL     1      40.291 -26.021 -14.155  0.00  0.00    +0.085 C 
ATOM     32  C   UNL     1      39.515 -24.421 -15.792  0.00  0.00    +0.001 C 
ATOM     33  C   UNL     1      40.421 -25.408 -15.402  0.00  0.00    +0.014 C 
ENDBRANCH  25  28
ENDBRANCH   8  25
TORSDOF 9
ENDMDL
