MODEL 1
REMARK VINA RESULT:     -10.5      0.000      0.000
REMARK  Name = 11625818
REMARK  4 active torsions:
REMARK  status: ('A' for Active; 'I' for Inactive)
REMARK    1  A    between atoms: N_3  and  C_13
REMARK    2  A    between atoms: C_5  and  C_19
REMARK    3  A    between atoms: C_19  and  N_20
REMARK    4  A    between atoms: C_19  and  C_33
REMARK                            x       y       z     vdW  Elec       q    Type
REMARK                         _______ _______ _______ _____ _____    ______ ____
ROOT
ATOM      1  F   UNL     1      32.343 -20.492 -20.243  0.00  0.00    -0.204 F 
ATOM      2  O   UNL     1      31.517 -21.853 -18.298  0.00  0.00    -0.269 OA
ATOM      3  N   UNL     1      32.994 -22.981 -16.851  0.00  0.00    -0.211 N 
ATOM      4  N   UNL     1      35.329 -22.907 -17.307  0.00  0.00    -0.393 NA
ATOM      5  C   UNL     1      34.329 -23.283 -16.570  0.00  0.00    +0.187 C 
ATOM      6  C   UNL     1      32.654 -22.164 -17.951  0.00  0.00    +0.262 C 
ATOM      7  C   UNL     1      33.790 -21.708 -18.779  0.00  0.00    +0.107 C 
ATOM      8  C   UNL     1      35.077 -22.120 -18.436  0.00  0.00    +0.121 C 
ATOM      9  C   UNL     1      33.574 -20.899 -19.901  0.00  0.00    +0.146 C 
ATOM     10  C   UNL     1      36.154 -21.712 -19.230  0.00  0.00    +0.085 C 
ATOM     11  C   UNL     1      34.655 -20.498 -20.685  0.00  0.00    +0.026 C 
ATOM     12  C   UNL     1      35.944 -20.905 -20.350  0.00  0.00    -0.016 C 
ENDROOT
BRANCH   3  13
ATOM     13  C   UNL     1      31.910 -23.515 -16.073  0.00  0.00    +0.060 C 
ATOM     14  C   UNL     1      31.192 -22.677 -15.230  0.00  0.00    +0.015 C 
ATOM     15  C   UNL     1      31.595 -24.864 -16.174  0.00  0.00    +0.015 C 
ATOM     16  C   UNL     1      30.140 -23.196 -14.476  0.00  0.00    +0.001 C 
ATOM     17  C   UNL     1      30.542 -25.383 -15.420  0.00  0.00    +0.001 C 
ATOM     18  C   UNL     1      29.815 -24.550 -14.571  0.00  0.00    +0.000 C 
ENDBRANCH   3  13
BRANCH   5  19
ATOM     19  C   UNL     1      34.689 -24.043 -15.310  0.00  0.00    +0.138 C 
BRANCH  19  20
ATOM     20  N   UNL     1      36.097 -24.335 -15.390  0.00  0.00    -0.315 N 
ATOM     21  N   UNL     1      36.230 -25.301 -13.199  0.00  0.00    -0.232 NA
ATOM     22  N   UNL     1      39.100 -24.995 -15.478  0.00  0.00    -0.270 NA
ATOM     23  N   UNL     1      40.211 -25.965 -13.808  0.00  0.00    -0.307 N 
ATOM     24  N   UNL     1      38.321 -26.173 -12.294  0.00  0.00    -0.232 NA
ATOM     25  C   UNL     1      36.820 -24.939 -14.371  0.00  0.00    +0.124 C 
ATOM     26  C   UNL     1      38.179 -25.202 -14.492  0.00  0.00    +0.164 C 
ATOM     27  C   UNL     1      38.894 -25.806 -13.465  0.00  0.00    +0.125 C 
ATOM     28  C   UNL     1      40.303 -25.468 -15.023  0.00  0.00    +0.163 C 
ATOM     29  C   UNL     1      37.002 -25.885 -12.252  0.00  0.00    +0.252 C 
ATOM     30  H   UNL     1      36.573 -24.093 -16.216  0.00  0.00    +0.148 HD
ATOM     31  H   UNL     1      38.932 -24.582 -16.356  0.00  0.00    +0.126 HD
ATOM     32  H   UNL     1      40.931 -26.364 -13.265  0.00  0.00    +0.149 HD
ENDBRANCH  19  20
BRANCH  19  33
ATOM     33  C   UNL     1      34.372 -23.191 -14.089  0.00  0.00    +0.028 C 
ATOM     34  C   UNL     1      33.537 -23.948 -13.066  0.00  0.00    +0.002 C 
ENDBRANCH  19  33
ENDBRANCH   5  19
TORSDOF 4
ENDMDL
MODEL 2
REMARK VINA RESULT:     -10.3      2.993      6.608
REMARK  Name = 11625818
REMARK  4 active torsions:
REMARK  status: ('A' for Active; 'I' for Inactive)
REMARK    1  A    between atoms: N_3  and  C_13
REMARK    2  A    between atoms: C_5  and  C_19
REMARK    3  A    between atoms: C_19  and  N_20
REMARK    4  A    between atoms: C_19  and  C_33
REMARK                            x       y       z     vdW  Elec       q    Type
REMARK                         _______ _______ _______ _____ _____    ______ ____
ROOT
ATOM      1  F   UNL     1      35.255 -25.046 -11.649  0.00  0.00    -0.204 F 
ATOM      2  O   UNL     1      33.193 -24.515 -12.987  0.00  0.00    -0.269 OA
ATOM      3  N   UNL     1      33.314 -23.792 -15.226  0.00  0.00    -0.211 N 
ATOM      4  N   UNL     1      35.454 -23.463 -16.212  0.00  0.00    -0.393 NA
ATOM      5  C   UNL     1      34.159 -23.464 -16.289  0.00  0.00    +0.187 C 
ATOM      6  C   UNL     1      33.842 -24.221 -13.989  0.00  0.00    +0.262 C 
ATOM      7  C   UNL     1      35.317 -24.250 -13.903  0.00  0.00    +0.107 C 
ATOM      8  C   UNL     1      36.060 -23.846 -15.011  0.00  0.00    +0.121 C 
ATOM      9  C   UNL     1      35.954 -24.652 -12.723  0.00  0.00    +0.146 C 
ATOM     10  C   UNL     1      37.457 -23.847 -14.928  0.00  0.00    +0.085 C 
ATOM     11  C   UNL     1      37.347 -24.650 -12.652  0.00  0.00    +0.026 C 
ATOM     12  C   UNL     1      38.098 -24.247 -13.754  0.00  0.00    -0.016 C 
ENDROOT
BRANCH   3  13
ATOM     13  C   UNL     1      31.885 -23.667 -15.319  0.00  0.00    +0.060 C 
ATOM     14  C   UNL     1      31.277 -22.466 -14.974  0.00  0.00    +0.015 C 
ATOM     15  C   UNL     1      31.130 -24.748 -15.752  0.00  0.00    +0.015 C 
ATOM     16  C   UNL     1      29.891 -22.345 -15.065  0.00  0.00    +0.001 C 
ATOM     17  C   UNL     1      29.743 -24.627 -15.844  0.00  0.00    +0.001 C 
ATOM     18  C   UNL     1      29.124 -23.426 -15.500  0.00  0.00    +0.000 C 
ENDBRANCH   3  13
BRANCH   5  19
ATOM     19  C   UNL     1      33.579 -23.139 -17.650  0.00  0.00    +0.138 C 
BRANCH  19  20
ATOM     20  N   UNL     1      34.545 -22.314 -18.326  0.00  0.00    -0.315 N 
ATOM     21  N   UNL     1      32.922 -21.121 -19.626  0.00  0.00    -0.232 NA
ATOM     22  N   UNL     1      36.544 -20.509 -19.814  0.00  0.00    -0.270 NA
ATOM     23  N   UNL     1      35.954 -18.978 -21.323  0.00  0.00    -0.307 N 
ATOM     24  N   UNL     1      33.559 -19.374 -21.206  0.00  0.00    -0.232 NA
ATOM     25  C   UNL     1      34.215 -21.351 -19.270  0.00  0.00    +0.124 C 
ATOM     26  C   UNL     1      35.182 -20.576 -19.898  0.00  0.00    +0.164 C 
ATOM     27  C   UNL     1      34.840 -19.616 -20.841  0.00  0.00    +0.125 C 
ATOM     28  C   UNL     1      36.961 -19.538 -20.687  0.00  0.00    +0.163 C 
ATOM     29  C   UNL     1      32.679 -20.164 -20.554  0.00  0.00    +0.252 C 
ATOM     30  H   UNL     1      35.496 -22.440 -18.106  0.00  0.00    +0.148 HD
ATOM     31  H   UNL     1      37.120 -21.058 -19.235  0.00  0.00    +0.126 HD
ATOM     32  H   UNL     1      35.992 -18.260 -21.996  0.00  0.00    +0.149 HD
ENDBRANCH  19  20
BRANCH  19  33
ATOM     33  C   UNL     1      33.322 -24.428 -18.418  0.00  0.00    +0.028 C 
ATOM     34  C   UNL     1      34.052 -24.451 -19.754  0.00  0.00    +0.002 C 
ENDBRANCH  19  33
ENDBRANCH   5  19
TORSDOF 4
ENDMDL
MODEL 3
REMARK VINA RESULT:     -10.1      1.177      1.609
REMARK  Name = 11625818
REMARK  4 active torsions:
REMARK  status: ('A' for Active; 'I' for Inactive)
REMARK    1  A    between atoms: N_3  and  C_13
REMARK    2  A    between atoms: C_5  and  C_19
REMARK    3  A    between atoms: C_19  and  N_20
REMARK    4  A    between atoms: C_19  and  C_33
REMARK                            x       y       z     vdW  Elec       q    Type
REMARK                         _______ _______ _______ _____ _____    ______ ____
ROOT
ATOM      1  F   UNL     1      33.374 -20.799 -20.610  0.00  0.00    -0.204 F 
ATOM      2  O   UNL     1      31.960 -21.969 -18.892  0.00  0.00    -0.269 OA
ATOM      3  N   UNL     1      32.896 -22.930 -16.955  0.00  0.00    -0.211 N 
ATOM      4  N   UNL     1      35.259 -22.873 -16.672  0.00  0.00    -0.393 NA
ATOM      5  C   UNL     1      34.073 -23.186 -16.247  0.00  0.00    +0.187 C 
ATOM      6  C   UNL     1      32.928 -22.231 -18.181  0.00  0.00    +0.262 C 
ATOM      7  C   UNL     1      34.273 -21.845 -18.658  0.00  0.00    +0.107 C 
ATOM      8  C   UNL     1      35.383 -22.205 -17.894  0.00  0.00    +0.121 C 
ATOM      9  C   UNL     1      34.430 -21.154 -19.865  0.00  0.00    +0.146 C 
ATOM     10  C   UNL     1      36.660 -21.864 -18.353  0.00  0.00    +0.085 C 
ATOM     11  C   UNL     1      35.708 -20.820 -20.311  0.00  0.00    +0.026 C 
ATOM     12  C   UNL     1      36.823 -21.175 -19.556  0.00  0.00    -0.016 C 
ENDROOT
BRANCH   3  13
ATOM     13  C   UNL     1      31.615 -23.398 -16.503  0.00  0.00    +0.060 C 
ATOM     14  C   UNL     1      31.404 -24.760 -16.331  0.00  0.00    +0.015 C 
ATOM     15  C   UNL     1      30.604 -22.483 -16.243  0.00  0.00    +0.015 C 
ATOM     16  C   UNL     1      30.161 -25.214 -15.891  0.00  0.00    +0.001 C 
ATOM     17  C   UNL     1      29.360 -22.937 -15.804  0.00  0.00    +0.001 C 
ATOM     18  C   UNL     1      29.139 -24.302 -15.628  0.00  0.00    +0.000 C 
ENDBRANCH   3  13
BRANCH   5  19
ATOM     19  C   UNL     1      34.011 -23.813 -14.869  0.00  0.00    +0.138 C 
BRANCH  19  20
ATOM     20  N   UNL     1      35.367 -23.904 -14.394  0.00  0.00    -0.315 N 
ATOM     21  N   UNL     1      35.758 -26.088 -15.302  0.00  0.00    -0.232 NA
ATOM     22  N   UNL     1      38.271 -24.177 -13.416  0.00  0.00    -0.270 NA
ATOM     23  N   UNL     1      39.548 -25.965 -13.793  0.00  0.00    -0.307 N 
ATOM     24  N   UNL     1      37.894 -27.236 -15.041  0.00  0.00    -0.232 NA
ATOM     25  C   UNL     1      36.191 -24.999 -14.610  0.00  0.00    +0.124 C 
ATOM     26  C   UNL     1      37.495 -25.043 -14.132  0.00  0.00    +0.164 C 
ATOM     27  C   UNL     1      38.310 -26.145 -14.354  0.00  0.00    +0.125 C 
ATOM     28  C   UNL     1      39.492 -24.773 -13.238  0.00  0.00    +0.163 C 
ATOM     29  C   UNL     1      36.620 -27.118 -15.472  0.00  0.00    +0.252 C 
ATOM     30  H   UNL     1      35.731 -23.143 -13.886  0.00  0.00    +0.148 HD
ATOM     31  H   UNL     1      38.004 -23.288 -13.088  0.00  0.00    +0.126 HD
ATOM     32  H   UNL     1      40.311 -26.589 -13.804  0.00  0.00    +0.149 HD
ENDBRANCH  19  20
BRANCH  19  33
ATOM     33  C   UNL     1      33.162 -22.947 -13.949  0.00  0.00    +0.028 C 
ATOM     34  C   UNL     1      32.219 -23.779 -13.092  0.00  0.00    +0.002 C 
ENDBRANCH  19  33
ENDBRANCH   5  19
TORSDOF 4
ENDMDL
MODEL 4
REMARK VINA RESULT:      -9.4      9.509     13.734
REMARK  Name = 11625818
REMARK  4 active torsions:
REMARK  status: ('A' for Active; 'I' for Inactive)
REMARK    1  A    between atoms: N_3  and  C_13
REMARK    2  A    between atoms: C_5  and  C_19
REMARK    3  A    between atoms: C_19  and  N_20
REMARK    4  A    between atoms: C_19  and  C_33
REMARK                            x       y       z     vdW  Elec       q    Type
REMARK                         _______ _______ _______ _____ _____    ______ ____
ROOT
ATOM      1  F   UNL     1      31.957  -8.211 -21.529  0.00  0.00    -0.204 F 
ATOM      2  O   UNL     1      33.213  -9.124 -23.506  0.00  0.00    -0.269 OA
ATOM      3  N   UNL     1      33.512 -11.438 -23.831  0.00  0.00    -0.211 N 
ATOM      4  N   UNL     1      32.685 -12.945 -22.184  0.00  0.00    -0.393 NA
ATOM      5  C   UNL     1      33.276 -12.716 -23.317  0.00  0.00    +0.187 C 
ATOM      6  C   UNL     1      33.045 -10.290 -23.155  0.00  0.00    +0.262 C 
ATOM      7  C   UNL     1      32.346 -10.544 -21.878  0.00  0.00    +0.107 C 
ATOM      8  C   UNL     1      32.218 -11.860 -21.435  0.00  0.00    +0.121 C 
ATOM      9  C   UNL     1      31.845  -9.481 -21.116  0.00  0.00    +0.146 C 
ATOM     10  C   UNL     1      31.580 -12.105 -20.214  0.00  0.00    +0.085 C 
ATOM     11  C   UNL     1      31.210  -9.739 -19.902  0.00  0.00    +0.026 C 
ATOM     12  C   UNL     1      31.078 -11.050 -19.451  0.00  0.00    -0.016 C 
ENDROOT
BRANCH   3  13
ATOM     13  C   UNL     1      34.272 -11.226 -25.031  0.00  0.00    +0.060 C 
ATOM     14  C   UNL     1      35.319 -10.313 -25.028  0.00  0.00    +0.015 C 
ATOM     15  C   UNL     1      33.951 -11.936 -26.180  0.00  0.00    +0.015 C 
ATOM     16  C   UNL     1      36.058 -10.108 -26.194  0.00  0.00    +0.001 C 
ATOM     17  C   UNL     1      34.690 -11.731 -27.346  0.00  0.00    +0.001 C 
ATOM     18  C   UNL     1      35.742 -10.817 -27.353  0.00  0.00    +0.000 C 
ENDBRANCH   3  13
BRANCH   5  19
ATOM     19  C   UNL     1      33.660 -13.942 -24.120  0.00  0.00    +0.138 C 
BRANCH  19  20
ATOM     20  N   UNL     1      34.147 -14.917 -23.179  0.00  0.00    -0.315 N 
ATOM     21  N   UNL     1      34.276 -16.698 -24.779  0.00  0.00    -0.232 NA
ATOM     22  N   UNL     1      35.193 -17.060 -21.236  0.00  0.00    -0.270 NA
ATOM     23  N   UNL     1      35.643 -19.162 -21.826  0.00  0.00    -0.307 N 
ATOM     24  N   UNL     1      35.040 -18.933 -24.169  0.00  0.00    -0.232 NA
ATOM     25  C   UNL     1      34.439 -16.233 -23.510  0.00  0.00    +0.124 C 
ATOM     26  C   UNL     1      34.908 -17.140 -22.569  0.00  0.00    +0.164 C 
ATOM     27  C   UNL     1      35.196 -18.455 -22.912  0.00  0.00    +0.125 C 
ATOM     28  C   UNL     1      35.630 -18.296 -20.835  0.00  0.00    +0.163 C 
ATOM     29  C   UNL     1      34.582 -17.994 -25.025  0.00  0.00    +0.252 C 
ATOM     30  H   UNL     1      34.283 -14.633 -22.247  0.00  0.00    +0.148 HD
ATOM     31  H   UNL     1      35.102 -16.262 -20.666  0.00  0.00    +0.126 HD
ATOM     32  H   UNL     1      35.915 -20.109 -21.794  0.00  0.00    +0.149 HD
ENDBRANCH  19  20
BRANCH  19  33
ATOM     33  C   UNL     1      32.444 -14.463 -24.872  0.00  0.00    +0.028 C 
ATOM     34  C   UNL     1      32.730 -14.657 -26.355  0.00  0.00    +0.002 C 
ENDBRANCH  19  33
ENDBRANCH   5  19
TORSDOF 4
ENDMDL
MODEL 5
REMARK VINA RESULT:      -9.0     13.211     16.714
REMARK  Name = 11625818
REMARK  4 active torsions:
REMARK  status: ('A' for Active; 'I' for Inactive)
REMARK    1  A    between atoms: N_3  and  C_13
REMARK    2  A    between atoms: C_5  and  C_19
REMARK    3  A    between atoms: C_19  and  N_20
REMARK    4  A    between atoms: C_19  and  C_33
REMARK                            x       y       z     vdW  Elec       q    Type
REMARK                         _______ _______ _______ _____ _____    ______ ____
ROOT
ATOM      1  F   UNL     1      30.421  -4.464 -23.085  0.00  0.00    -0.204 F 
ATOM      2  O   UNL     1      30.732  -6.729 -22.039  0.00  0.00    -0.269 OA
ATOM      3  N   UNL     1      32.312  -8.272 -22.858  0.00  0.00    -0.211 N 
ATOM      4  N   UNL     1      33.578  -7.703 -24.792  0.00  0.00    -0.393 NA
ATOM      5  C   UNL     1      33.286  -8.522 -23.828  0.00  0.00    +0.187 C 
ATOM      6  C   UNL     1      31.617  -7.044 -22.832  0.00  0.00    +0.262 C 
ATOM      7  C   UNL     1      31.963  -6.094 -23.909  0.00  0.00    +0.107 C 
ATOM      8  C   UNL     1      32.912  -6.474 -24.858  0.00  0.00    +0.121 C 
ATOM      9  C   UNL     1      31.333  -4.846 -23.990  0.00  0.00    +0.146 C 
ATOM     10  C   UNL     1      33.226  -5.589 -25.895  0.00  0.00    +0.085 C 
ATOM     11  C   UNL     1      31.655  -3.973 -25.027  0.00  0.00    +0.026 C 
ATOM     12  C   UNL     1      32.601  -4.344 -25.980  0.00  0.00    -0.016 C 
ENDROOT
BRANCH   3  13
ATOM     13  C   UNL     1      31.940  -9.256 -21.878  0.00  0.00    +0.060 C 
ATOM     14  C   UNL     1      31.215 -10.374 -22.270  0.00  0.00    +0.015 C 
ATOM     15  C   UNL     1      32.308  -9.076 -20.552  0.00  0.00    +0.015 C 
ATOM     16  C   UNL     1      30.854 -11.329 -21.320  0.00  0.00    +0.001 C 
ATOM     17  C   UNL     1      31.947 -10.031 -19.601  0.00  0.00    +0.001 C 
ATOM     18  C   UNL     1      31.220 -11.156 -19.985  0.00  0.00    +0.000 C 
ENDBRANCH   3  13
BRANCH   5  19
ATOM     19  C   UNL     1      34.121  -9.785 -23.761  0.00  0.00    +0.138 C 
BRANCH  19  20
ATOM     20  N   UNL     1      33.580 -10.692 -24.740  0.00  0.00    -0.315 N 
ATOM     21  N   UNL     1      34.073 -12.671 -23.479  0.00  0.00    -0.232 NA
ATOM     22  N   UNL     1      32.443 -12.698 -26.776  0.00  0.00    -0.270 NA
ATOM     23  N   UNL     1      32.446 -14.907 -26.481  0.00  0.00    -0.307 N 
ATOM     24  N   UNL     1      33.522 -14.901 -24.301  0.00  0.00    -0.232 NA
ATOM     25  C   UNL     1      33.563 -12.071 -24.589  0.00  0.00    +0.124 C 
ATOM     26  C   UNL     1      33.030 -12.910 -25.561  0.00  0.00    +0.164 C 
ATOM     27  C   UNL     1      33.019 -14.289 -25.400  0.00  0.00    +0.125 C 
ATOM     28  C   UNL     1      32.111 -13.925 -27.289  0.00  0.00    +0.163 C 
ATOM     29  C   UNL     1      34.021 -14.022 -23.405  0.00  0.00    +0.252 C 
ATOM     30  H   UNL     1      33.198 -10.311 -25.563  0.00  0.00    +0.148 HD
ATOM     31  H   UNL     1      32.288 -11.826 -27.205  0.00  0.00    +0.126 HD
ATOM     32  H   UNL     1      32.313 -15.874 -26.621  0.00  0.00    +0.149 HD
ENDBRANCH  19  20
BRANCH  19  33
ATOM     33  C   UNL     1      35.576  -9.453 -24.063  0.00  0.00    +0.028 C 
ATOM     34  C   UNL     1      36.006  -9.967 -25.430  0.00  0.00    +0.002 C 
ENDBRANCH  19  33
ENDBRANCH   5  19
TORSDOF 4
ENDMDL
MODEL 6
REMARK VINA RESULT:      -8.2     10.802     14.911
REMARK  Name = 11625818
REMARK  4 active torsions:
REMARK  status: ('A' for Active; 'I' for Inactive)
REMARK    1  A    between atoms: N_3  and  C_13
REMARK    2  A    between atoms: C_5  and  C_19
REMARK    3  A    between atoms: C_19  and  N_20
REMARK    4  A    between atoms: C_19  and  C_33
REMARK                            x       y       z     vdW  Elec       q    Type
REMARK                         _______ _______ _______ _____ _____    ______ ____
ROOT
ATOM      1  F   UNL     1      33.461 -17.120 -20.621  0.00  0.00    -0.204 F 
ATOM      2  O   UNL     1      32.434 -14.852 -20.275  0.00  0.00    -0.269 OA
ATOM      3  N   UNL     1      32.618 -13.143 -21.885  0.00  0.00    -0.211 N 
ATOM      4  N   UNL     1      33.899 -13.549 -23.849  0.00  0.00    -0.393 NA
ATOM      5  C   UNL     1      33.143 -12.779 -23.128  0.00  0.00    +0.187 C 
ATOM      6  C   UNL     1      32.832 -14.435 -21.360  0.00  0.00    +0.262 C 
ATOM      7  C   UNL     1      33.667 -15.328 -22.190  0.00  0.00    +0.107 C 
ATOM      8  C   UNL     1      34.186 -14.838 -23.388  0.00  0.00    +0.121 C 
ATOM      9  C   UNL     1      33.954 -16.632 -21.769  0.00  0.00    +0.146 C 
ATOM     10  C   UNL     1      34.999 -15.669 -24.166  0.00  0.00    +0.085 C 
ATOM     11  C   UNL     1      34.764 -17.452 -22.553  0.00  0.00    +0.026 C 
ATOM     12  C   UNL     1      35.287 -16.970 -23.751  0.00  0.00    -0.016 C 
ENDROOT
BRANCH   3  13
ATOM     13  C   UNL     1      31.883 -12.218 -21.066  0.00  0.00    +0.060 C 
ATOM     14  C   UNL     1      30.640 -11.765 -21.489  0.00  0.00    +0.015 C 
ATOM     15  C   UNL     1      32.426 -11.788 -19.863  0.00  0.00    +0.015 C 
ATOM     16  C   UNL     1      29.927 -10.868 -20.694  0.00  0.00    +0.001 C 
ATOM     17  C   UNL     1      31.713 -10.890 -19.067  0.00  0.00    +0.001 C 
ATOM     18  C   UNL     1      30.464 -10.431 -19.483  0.00  0.00    +0.000 C 
ENDBRANCH   3  13
BRANCH   5  19
ATOM     19  C   UNL     1      32.791 -11.439 -23.741  0.00  0.00    +0.138 C 
BRANCH  19  20
ATOM     20  N   UNL     1      32.928 -10.457 -22.697  0.00  0.00    -0.315 N 
ATOM     21  N   UNL     1      31.539  -8.823 -23.770  0.00  0.00    -0.232 NA
ATOM     22  N   UNL     1      33.165  -8.303 -20.512  0.00  0.00    -0.270 NA
ATOM     23  N   UNL     1      32.167  -6.313 -20.613  0.00  0.00    -0.307 N 
ATOM     24  N   UNL     1      31.088  -6.646 -22.765  0.00  0.00    -0.232 NA
ATOM     25  C   UNL     1      32.321  -9.209 -22.725  0.00  0.00    +0.124 C 
ATOM     26  C   UNL     1      32.481  -8.291 -21.694  0.00  0.00    +0.164 C 
ATOM     27  C   UNL     1      31.869  -7.045 -21.733  0.00  0.00    +0.125 C 
ATOM     28  C   UNL     1      32.947  -7.097 -19.900  0.00  0.00    +0.163 C 
ATOM     29  C   UNL     1      30.981  -7.590 -23.725  0.00  0.00    +0.252 C 
ATOM     30  H   UNL     1      33.483 -10.684 -21.917  0.00  0.00    +0.148 HD
ATOM     31  H   UNL     1      33.714  -9.043 -20.164  0.00  0.00    +0.126 HD
ATOM     32  H   UNL     1      31.864  -5.402 -20.391  0.00  0.00    +0.149 HD
ENDBRANCH  19  20
BRANCH  19  33
ATOM     33  C   UNL     1      33.731 -11.144 -24.901  0.00  0.00    +0.028 C 
ATOM     34  C   UNL     1      34.851 -10.193 -24.500  0.00  0.00    +0.002 C 
ENDBRANCH  19  33
ENDBRANCH   5  19
TORSDOF 4
ENDMDL
MODEL 7
REMARK VINA RESULT:      -8.2      2.211      5.151
REMARK  Name = 11625818
REMARK  4 active torsions:
REMARK  status: ('A' for Active; 'I' for Inactive)
REMARK    1  A    between atoms: N_3  and  C_13
REMARK    2  A    between atoms: C_5  and  C_19
REMARK    3  A    between atoms: C_19  and  N_20
REMARK    4  A    between atoms: C_19  and  C_33
REMARK                            x       y       z     vdW  Elec       q    Type
REMARK                         _______ _______ _______ _____ _____    ______ ____
ROOT
ATOM      1  F   UNL     1      29.228 -22.679 -17.540  0.00  0.00    -0.204 F 
ATOM      2  O   UNL     1      31.687 -22.342 -17.940  0.00  0.00    -0.269 OA
ATOM      3  N   UNL     1      33.320 -23.385 -16.599  0.00  0.00    -0.211 N 
ATOM      4  N   UNL     1      32.615 -24.714 -14.755  0.00  0.00    -0.393 NA
ATOM      5  C   UNL     1      33.553 -24.220 -15.504  0.00  0.00    +0.187 C 
ATOM      6  C   UNL     1      32.004 -23.077 -17.007  0.00  0.00    +0.262 C 
ATOM      7  C   UNL     1      30.929 -23.660 -16.177  0.00  0.00    +0.107 C 
ATOM      8  C   UNL     1      31.281 -24.433 -15.071  0.00  0.00    +0.121 C 
ATOM      9  C   UNL     1      29.584 -23.418 -16.480  0.00  0.00    +0.146 C 
ATOM     10  C   UNL     1      30.269 -24.967 -14.266  0.00  0.00    +0.085 C 
ATOM     11  C   UNL     1      28.584 -23.956 -15.671  0.00  0.00    +0.026 C 
ATOM     12  C   UNL     1      28.926 -24.729 -14.564  0.00  0.00    -0.016 C 
ENDROOT
BRANCH   3  13
ATOM     13  C   UNL     1      34.392 -22.765 -17.329  0.00  0.00    +0.060 C 
ATOM     14  C   UNL     1      35.553 -22.394 -16.662  0.00  0.00    +0.015 C 
ATOM     15  C   UNL     1      34.255 -22.545 -18.693  0.00  0.00    +0.015 C 
ATOM     16  C   UNL     1      36.593 -21.794 -17.371  0.00  0.00    +0.001 C 
ATOM     17  C   UNL     1      35.295 -21.944 -19.403  0.00  0.00    +0.001 C 
ATOM     18  C   UNL     1      36.464 -21.569 -18.741  0.00  0.00    +0.000 C 
ENDBRANCH   3  13
BRANCH   5  19
ATOM     19  C   UNL     1      34.965 -24.652 -15.163  0.00  0.00    +0.138 C 
BRANCH  19  20
ATOM     20  N   UNL     1      35.020 -24.794 -13.731  0.00  0.00    -0.315 N 
ATOM     21  N   UNL     1      36.777 -23.190 -13.434  0.00  0.00    -0.232 NA
ATOM     22  N   UNL     1      35.203 -25.034 -10.669  0.00  0.00    -0.270 NA
ATOM     23  N   UNL     1      36.628 -23.870  -9.412  0.00  0.00    -0.307 N 
ATOM     24  N   UNL     1      37.675 -22.645 -11.232  0.00  0.00    -0.232 NA
ATOM     25  C   UNL     1      35.893 -24.086 -12.917  0.00  0.00    +0.124 C 
ATOM     26  C   UNL     1      35.911 -24.254 -11.538  0.00  0.00    +0.164 C 
ATOM     27  C   UNL     1      36.790 -23.541 -10.733  0.00  0.00    +0.125 C 
ATOM     28  C   UNL     1      35.667 -24.769  -9.408  0.00  0.00    +0.163 C 
ATOM     29  C   UNL     1      37.597 -22.537 -12.576  0.00  0.00    +0.252 C 
ATOM     30  H   UNL     1      34.402 -25.430 -13.305  0.00  0.00    +0.148 HD
ATOM     31  H   UNL     1      34.489 -25.670 -10.905  0.00  0.00    +0.126 HD
ATOM     32  H   UNL     1      37.121 -23.512  -8.638  0.00  0.00    +0.149 HD
ENDBRANCH  19  20
BRANCH  19  33
ATOM     33  C   UNL     1      35.279 -25.969 -15.858  0.00  0.00    +0.028 C 
ATOM     34  C   UNL     1      36.607 -26.554 -15.397  0.00  0.00    +0.002 C 
ENDBRANCH  19  33
ENDBRANCH   5  19
TORSDOF 4
ENDMDL
