MODEL 1
REMARK VINA RESULT:      -9.0      0.000      0.000
REMARK  Name = 834826
REMARK  5 active torsions:
REMARK  status: ('A' for Active; 'I' for Inactive)
REMARK    1  A    between atoms: C_1  and  C_8
REMARK    2  A    between atoms: C_2  and  O_16
REMARK    3  A    between atoms: C_10  and  C_13
REMARK    4  A    between atoms: C_13  and  O_14
REMARK    5  A    between atoms: O_16  and  C_20
REMARK                            x       y       z     vdW  Elec       q    Type
REMARK                         _______ _______ _______ _____ _____    ______ ____
ROOT
ATOM      1  C   UNL     1      35.183 -17.483 -21.523  0.00  0.00    +0.069 C 
ATOM      2  C   UNL     1      35.270 -17.269 -22.899  0.00  0.00    +0.150 C 
ATOM      3  C   UNL     1      34.770 -16.451 -20.681  0.00  0.00    +0.006 C 
ATOM      4  C   UNL     1      34.945 -16.022 -23.432  0.00  0.00    +0.037 C 
ATOM      5  C   UNL     1      34.443 -15.204 -21.215  0.00  0.00    +0.000 C 
ATOM      6  C   UNL     1      34.531 -14.989 -22.591  0.00  0.00    +0.003 C 
ENDROOT
BRANCH   1   8
ATOM      7  O   UNL     1      34.453 -19.543 -20.625  0.00  0.00    -0.447 OA
ATOM      8  C   UNL     1      35.515 -18.767 -20.951  0.00  0.00    +0.149 C 
ATOM      9  C   UNL     1      36.696 -19.395 -20.656  0.00  0.00    +0.041 C 
ATOM     10  C   UNL     1      34.965 -20.692 -20.109  0.00  0.00    +0.220 C 
ATOM     11  C   UNL     1      36.339 -20.649 -20.106  0.00  0.00    +0.047 C 
BRANCH  10  13
ATOM     12  O   UNL     1      32.800 -21.651 -19.766  0.00  0.00    -0.242 OA
ATOM     13  C   UNL     1      34.050 -21.693 -19.680  0.00  0.00    +0.373 C 
BRANCH  13  14
ATOM     14  O   UNL     1      34.657 -22.793 -19.125  0.00  0.00    -0.475 OA
ATOM     15  H   UNL     1      34.939 -22.773 -18.232  0.00  0.00    +0.296 HD
ENDBRANCH  13  14
ENDBRANCH  10  13
ENDBRANCH   1   8
BRANCH   2  16
ATOM     16  O   UNL     1      35.672 -18.260 -23.745  0.00  0.00    -0.404 OA
BRANCH  16  20
ATOM     17  F   UNL     1      34.256 -18.350 -25.538  0.00  0.00    -0.133 F 
ATOM     18  F   UNL     1      33.608 -19.156 -23.614  0.00  0.00    -0.133 F 
ATOM     19  F   UNL     1      35.122 -20.231 -24.766  0.00  0.00    -0.133 F 
ATOM     20  C   UNL     1      34.673 -19.003 -24.432  0.00  0.00    +0.575 C 
ENDBRANCH  16  20
ENDBRANCH   2  16
TORSDOF 5
ENDMDL
MODEL 2
REMARK VINA RESULT:      -8.9      2.173      3.115
REMARK  Name = 834826
REMARK  5 active torsions:
REMARK  status: ('A' for Active; 'I' for Inactive)
REMARK    1  A    between atoms: C_1  and  C_8
REMARK    2  A    between atoms: C_2  and  O_16
REMARK    3  A    between atoms: C_10  and  C_13
REMARK    4  A    between atoms: C_13  and  O_14
REMARK    5  A    between atoms: O_16  and  C_20
REMARK                            x       y       z     vdW  Elec       q    Type
REMARK                         _______ _______ _______ _____ _____    ______ ____
ROOT
ATOM      1  C   UNL     1      35.037 -18.436 -22.869  0.00  0.00    +0.069 C 
ATOM      2  C   UNL     1      35.049 -17.044 -22.787  0.00  0.00    +0.150 C 
ATOM      3  C   UNL     1      34.720 -19.061 -24.075  0.00  0.00    +0.006 C 
ATOM      4  C   UNL     1      34.745 -16.276 -23.911  0.00  0.00    +0.037 C 
ATOM      5  C   UNL     1      34.417 -18.293 -25.200  0.00  0.00    +0.000 C 
ATOM      6  C   UNL     1      34.428 -16.901 -25.118  0.00  0.00    +0.003 C 
ENDROOT
BRANCH   1   8
ATOM      7  O   UNL     1      34.324 -20.004 -21.251  0.00  0.00    -0.447 OA
ATOM      8  C   UNL     1      35.349 -19.249 -21.717  0.00  0.00    +0.149 C 
ATOM      9  C   UNL     1      36.481 -19.435 -20.968  0.00  0.00    +0.041 C 
ATOM     10  C   UNL     1      34.810 -20.687 -20.181  0.00  0.00    +0.220 C 
ATOM     11  C   UNL     1      36.131 -20.371 -19.966  0.00  0.00    +0.047 C 
BRANCH  10  13
ATOM     12  O   UNL     1      32.728 -21.340 -19.199  0.00  0.00    -0.242 OA
ATOM     13  C   UNL     1      33.925 -21.565 -19.496  0.00  0.00    +0.373 C 
BRANCH  13  14
ATOM     14  O   UNL     1      34.497 -22.766 -19.152  0.00  0.00    -0.475 OA
ATOM     15  H   UNL     1      35.146 -22.801 -18.477  0.00  0.00    +0.296 HD
ENDBRANCH  13  14
ENDBRANCH  10  13
ENDBRANCH   1   8
BRANCH   2  16
ATOM     16  O   UNL     1      35.354 -16.407 -21.620  0.00  0.00    -0.404 OA
BRANCH  16  20
ATOM     17  F   UNL     1      34.138 -14.481 -21.419  0.00  0.00    -0.133 F 
ATOM     18  F   UNL     1      34.645 -15.624 -19.628  0.00  0.00    -0.133 F 
ATOM     19  F   UNL     1      33.150 -16.415 -21.012  0.00  0.00    -0.133 F 
ATOM     20  C   UNL     1      34.309 -15.729 -20.933  0.00  0.00    +0.575 C 
ENDBRANCH  16  20
ENDBRANCH   2  16
TORSDOF 5
ENDMDL
MODEL 3
REMARK VINA RESULT:      -8.8      5.841      8.160
REMARK  Name = 834826
REMARK  5 active torsions:
REMARK  status: ('A' for Active; 'I' for Inactive)
REMARK    1  A    between atoms: C_1  and  C_8
REMARK    2  A    between atoms: C_2  and  O_16
REMARK    3  A    between atoms: C_10  and  C_13
REMARK    4  A    between atoms: C_13  and  O_14
REMARK    5  A    between atoms: O_16  and  C_20
REMARK                            x       y       z     vdW  Elec       q    Type
REMARK                         _______ _______ _______ _____ _____    ______ ____
ROOT
ATOM      1  C   UNL     1      33.638 -23.532 -15.434  0.00  0.00    +0.069 C 
ATOM      2  C   UNL     1      33.078 -23.425 -16.707  0.00  0.00    +0.150 C 
ATOM      3  C   UNL     1      32.850 -23.308 -14.305  0.00  0.00    +0.006 C 
ATOM      4  C   UNL     1      31.731 -23.093 -16.851  0.00  0.00    +0.037 C 
ATOM      5  C   UNL     1      31.503 -22.977 -14.449  0.00  0.00    +0.000 C 
ATOM      6  C   UNL     1      30.943 -22.869 -15.722  0.00  0.00    +0.003 C 
ENDROOT
BRANCH   1   8
ATOM      7  O   UNL     1      35.315 -25.195 -15.377  0.00  0.00    -0.447 OA
ATOM      8  C   UNL     1      35.030 -23.874 -15.264  0.00  0.00    +0.149 C 
ATOM      9  C   UNL     1      36.161 -23.144 -15.008  0.00  0.00    +0.041 C 
ATOM     10  C   UNL     1      36.656 -25.312 -15.188  0.00  0.00    +0.220 C 
ATOM     11  C   UNL     1      37.221 -24.080 -14.956  0.00  0.00    +0.047 C 
BRANCH  10  13
ATOM     12  O   UNL     1      38.034 -27.120 -14.441  0.00  0.00    -0.242 OA
ATOM     13  C   UNL     1      37.225 -26.615 -15.255  0.00  0.00    +0.373 C 
BRANCH  13  14
ATOM     14  O   UNL     1      36.808 -27.344 -16.342  0.00  0.00    -0.475 OA
ATOM     15  H   UNL     1      36.739 -28.276 -16.283  0.00  0.00    +0.296 HD
ENDBRANCH  13  14
ENDBRANCH  10  13
ENDBRANCH   1   8
BRANCH   2  16
ATOM     16  O   UNL     1      33.825 -23.637 -17.829  0.00  0.00    -0.404 OA
BRANCH  16  20
ATOM     17  F   UNL     1      33.258 -21.608 -18.717  0.00  0.00    -0.133 F 
ATOM     18  F   UNL     1      34.632 -22.912 -19.805  0.00  0.00    -0.133 F 
ATOM     19  F   UNL     1      35.321 -21.915 -17.986  0.00  0.00    -0.133 F 
ATOM     20  C   UNL     1      34.257 -22.504 -18.572  0.00  0.00    +0.575 C 
ENDBRANCH  16  20
ENDBRANCH   2  16
TORSDOF 5
ENDMDL
MODEL 4
REMARK VINA RESULT:      -8.3      4.298      7.470
REMARK  Name = 834826
REMARK  5 active torsions:
REMARK  status: ('A' for Active; 'I' for Inactive)
REMARK    1  A    between atoms: C_1  and  C_8
REMARK    2  A    between atoms: C_2  and  O_16
REMARK    3  A    between atoms: C_10  and  C_13
REMARK    4  A    between atoms: C_13  and  O_14
REMARK    5  A    between atoms: O_16  and  C_20
REMARK                            x       y       z     vdW  Elec       q    Type
REMARK                         _______ _______ _______ _____ _____    ______ ____
ROOT
ATOM      1  C   UNL     1      33.788 -14.935 -24.077  0.00  0.00    +0.069 C 
ATOM      2  C   UNL     1      34.662 -15.710 -23.315  0.00  0.00    +0.150 C 
ATOM      3  C   UNL     1      33.366 -15.386 -25.327  0.00  0.00    +0.006 C 
ATOM      4  C   UNL     1      35.116 -16.935 -23.804  0.00  0.00    +0.037 C 
ATOM      5  C   UNL     1      33.819 -16.611 -25.817  0.00  0.00    +0.000 C 
ATOM      6  C   UNL     1      34.694 -17.386 -25.055  0.00  0.00    +0.003 C 
ENDROOT
BRANCH   1   8
ATOM      7  O   UNL     1      33.966 -12.579 -24.063  0.00  0.00    -0.447 OA
ATOM      8  C   UNL     1      33.307 -13.664 -23.588  0.00  0.00    +0.149 C 
ATOM      9  C   UNL     1      32.304 -13.298 -22.729  0.00  0.00    +0.041 C 
ATOM     10  C   UNL     1      33.374 -11.496 -23.494  0.00  0.00    +0.220 C 
ATOM     11  C   UNL     1      32.348 -11.885 -22.666  0.00  0.00    +0.047 C 
BRANCH  10  13
ATOM     12  O   UNL     1      33.234  -9.137 -23.872  0.00  0.00    -0.242 OA
ATOM     13  C   UNL     1      33.882 -10.209 -23.828  0.00  0.00    +0.373 C 
BRANCH  13  14
ATOM     14  O   UNL     1      35.225 -10.205 -24.121  0.00  0.00    -0.475 OA
ATOM     15  H   UNL     1      35.538  -9.754 -24.879  0.00  0.00    +0.296 HD
ENDBRANCH  13  14
ENDBRANCH  10  13
ENDBRANCH   1   8
BRANCH   2  16
ATOM     16  O   UNL     1      35.092 -15.293 -22.089  0.00  0.00    -0.404 OA
BRANCH  16  20
ATOM     17  F   UNL     1      33.252 -16.258 -21.133  0.00  0.00    -0.133 F 
ATOM     18  F   UNL     1      34.596 -15.052 -19.903  0.00  0.00    -0.133 F 
ATOM     19  F   UNL     1      35.257 -17.017 -20.596  0.00  0.00    -0.133 F 
ATOM     20  C   UNL     1      34.545 -15.922 -20.937  0.00  0.00    +0.575 C 
ENDBRANCH  16  20
ENDBRANCH   2  16
TORSDOF 5
ENDMDL
MODEL 5
REMARK VINA RESULT:      -8.2      1.498      2.142
REMARK  Name = 834826
REMARK  5 active torsions:
REMARK  status: ('A' for Active; 'I' for Inactive)
REMARK    1  A    between atoms: C_1  and  C_8
REMARK    2  A    between atoms: C_2  and  O_16
REMARK    3  A    between atoms: C_10  and  C_13
REMARK    4  A    between atoms: C_13  and  O_14
REMARK    5  A    between atoms: O_16  and  C_20
REMARK                            x       y       z     vdW  Elec       q    Type
REMARK                         _______ _______ _______ _____ _____    ______ ____
ROOT
ATOM      1  C   UNL     1      33.972 -16.171 -21.672  0.00  0.00    +0.069 C 
ATOM      2  C   UNL     1      34.258 -15.519 -22.871  0.00  0.00    +0.150 C 
ATOM      3  C   UNL     1      33.129 -15.574 -20.736  0.00  0.00    +0.006 C 
ATOM      4  C   UNL     1      33.702 -14.267 -23.133  0.00  0.00    +0.037 C 
ATOM      5  C   UNL     1      32.571 -14.322 -20.998  0.00  0.00    +0.000 C 
ATOM      6  C   UNL     1      32.858 -13.668 -22.196  0.00  0.00    +0.003 C 
ENDROOT
BRANCH   1   8
ATOM      7  O   UNL     1      33.651 -18.400 -20.957  0.00  0.00    -0.447 OA
ATOM      8  C   UNL     1      34.538 -17.468 -21.382  0.00  0.00    +0.149 C 
ATOM      9  C   UNL     1      35.806 -17.983 -21.442  0.00  0.00    +0.041 C 
ATOM     10  C   UNL     1      34.366 -19.536 -20.740  0.00  0.00    +0.220 C 
ATOM     11  C   UNL     1      35.696 -19.330 -21.022  0.00  0.00    +0.047 C 
BRANCH  10  13
ATOM     12  O   UNL     1      32.468 -20.976 -20.518  0.00  0.00    -0.242 OA
ATOM     13  C   UNL     1      33.665 -20.686 -20.281  0.00  0.00    +0.373 C 
BRANCH  13  14
ATOM     14  O   UNL     1      34.429 -21.525 -19.508  0.00  0.00    -0.475 OA
ATOM     15  H   UNL     1      35.255 -21.834 -19.825  0.00  0.00    +0.296 HD
ENDBRANCH  13  14
ENDBRANCH  10  13
ENDBRANCH   1   8
BRANCH   2  16
ATOM     16  O   UNL     1      35.080 -16.079 -23.804  0.00  0.00    -0.404 OA
BRANCH  16  20
ATOM     17  F   UNL     1      34.155 -18.049 -24.504  0.00  0.00    -0.133 F 
ATOM     18  F   UNL     1      35.381 -16.885 -25.887  0.00  0.00    -0.133 F 
ATOM     19  F   UNL     1      33.394 -16.153 -25.346  0.00  0.00    -0.133 F 
ATOM     20  C   UNL     1      34.486 -16.795 -24.879  0.00  0.00    +0.575 C 
ENDBRANCH  16  20
ENDBRANCH   2  16
TORSDOF 5
ENDMDL
MODEL 6
REMARK VINA RESULT:      -8.1      3.935      7.024
REMARK  Name = 834826
REMARK  5 active torsions:
REMARK  status: ('A' for Active; 'I' for Inactive)
REMARK    1  A    between atoms: C_1  and  C_8
REMARK    2  A    between atoms: C_2  and  O_16
REMARK    3  A    between atoms: C_10  and  C_13
REMARK    4  A    between atoms: C_13  and  O_14
REMARK    5  A    between atoms: O_16  and  C_20
REMARK                            x       y       z     vdW  Elec       q    Type
REMARK                         _______ _______ _______ _____ _____    ______ ____
ROOT
ATOM      1  C   UNL     1      34.586 -16.169 -23.162  0.00  0.00    +0.069 C 
ATOM      2  C   UNL     1      34.551 -16.078 -21.771  0.00  0.00    +0.150 C 
ATOM      3  C   UNL     1      35.149 -17.288 -23.775  0.00  0.00    +0.006 C 
ATOM      4  C   UNL     1      35.081 -17.107 -20.992  0.00  0.00    +0.037 C 
ATOM      5  C   UNL     1      35.678 -18.317 -22.996  0.00  0.00    +0.000 C 
ATOM      6  C   UNL     1      35.645 -18.227 -21.604  0.00  0.00    +0.003 C 
ENDROOT
BRANCH   1   8
ATOM      7  O   UNL     1      34.307 -13.857 -23.558  0.00  0.00    -0.447 OA
ATOM      8  C   UNL     1      34.043 -15.115 -23.987  0.00  0.00    +0.149 C 
ATOM      9  C   UNL     1      33.301 -15.101 -25.139  0.00  0.00    +0.041 C 
ATOM     10  C   UNL     1      33.720 -13.019 -24.454  0.00  0.00    +0.220 C 
ATOM     11  C   UNL     1      33.088 -13.735 -25.444  0.00  0.00    +0.047 C 
BRANCH  10  13
ATOM     12  O   UNL     1      33.094 -10.900 -23.534  0.00  0.00    -0.242 OA
ATOM     13  C   UNL     1      33.846 -11.618 -24.235  0.00  0.00    +0.373 C 
BRANCH  13  14
ATOM     14  O   UNL     1      34.918 -11.053 -24.882  0.00  0.00    -0.475 OA
ATOM     15  H   UNL     1      35.695 -11.556 -25.029  0.00  0.00    +0.296 HD
ENDBRANCH  13  14
ENDBRANCH  10  13
ENDBRANCH   1   8
BRANCH   2  16
ATOM     16  O   UNL     1      34.007 -14.995 -21.146  0.00  0.00    -0.404 OA
BRANCH  16  20
ATOM     17  F   UNL     1      32.101 -16.256 -21.069  0.00  0.00    -0.133 F 
ATOM     18  F   UNL     1      31.961 -14.122 -21.514  0.00  0.00    -0.133 F 
ATOM     19  F   UNL     1      32.456 -14.760 -19.482  0.00  0.00    -0.133 F 
ATOM     20  C   UNL     1      32.631 -15.046 -20.789  0.00  0.00    +0.575 C 
ENDBRANCH  16  20
ENDBRANCH   2  16
TORSDOF 5
ENDMDL
MODEL 7
REMARK VINA RESULT:      -8.1      6.825      9.612
REMARK  Name = 834826
REMARK  5 active torsions:
REMARK  status: ('A' for Active; 'I' for Inactive)
REMARK    1  A    between atoms: C_1  and  C_8
REMARK    2  A    between atoms: C_2  and  O_16
REMARK    3  A    between atoms: C_10  and  C_13
REMARK    4  A    between atoms: C_13  and  O_14
REMARK    5  A    between atoms: O_16  and  C_20
REMARK                            x       y       z     vdW  Elec       q    Type
REMARK                         _______ _______ _______ _____ _____    ______ ____
ROOT
ATOM      1  C   UNL     1      32.628 -24.318 -14.486  0.00  0.00    +0.069 C 
ATOM      2  C   UNL     1      32.318 -23.433 -15.518  0.00  0.00    +0.150 C 
ATOM      3  C   UNL     1      31.617 -25.061 -13.876  0.00  0.00    +0.006 C 
ATOM      4  C   UNL     1      30.997 -23.289 -15.940  0.00  0.00    +0.037 C 
ATOM      5  C   UNL     1      30.295 -24.918 -14.299  0.00  0.00    +0.000 C 
ATOM      6  C   UNL     1      29.984 -24.032 -15.331  0.00  0.00    +0.003 C 
ENDROOT
BRANCH   1   8
ATOM      7  O   UNL     1      34.175 -24.326 -12.700  0.00  0.00    -0.447 OA
ATOM      8  C   UNL     1      33.990 -24.482 -14.034  0.00  0.00    +0.149 C 
ATOM      9  C   UNL     1      35.170 -24.768 -14.668  0.00  0.00    +0.041 C 
ATOM     10  C   UNL     1      35.503 -24.516 -12.476  0.00  0.00    +0.220 C 
ATOM     11  C   UNL     1      36.157 -24.789 -13.654  0.00  0.00    +0.047 C 
BRANCH  10  13
ATOM     12  O   UNL     1      36.982 -23.772 -10.749  0.00  0.00    -0.242 OA
ATOM     13  C   UNL     1      35.973 -24.406 -11.137  0.00  0.00    +0.373 C 
BRANCH  13  14
ATOM     14  O   UNL     1      35.201 -25.083 -10.225  0.00  0.00    -0.475 OA
ATOM     15  H   UNL     1      34.270 -25.107 -10.323  0.00  0.00    +0.296 HD
ENDBRANCH  13  14
ENDBRANCH  10  13
ENDBRANCH   1   8
BRANCH   2  16
ATOM     16  O   UNL     1      33.287 -22.694 -16.131  0.00  0.00    -0.404 OA
BRANCH  16  20
ATOM     17  F   UNL     1      33.363 -24.246 -17.808  0.00  0.00    -0.133 F 
ATOM     18  F   UNL     1      34.848 -22.645 -17.757  0.00  0.00    -0.133 F 
ATOM     19  F   UNL     1      32.784 -22.171 -18.299  0.00  0.00    -0.133 F 
ATOM     20  C   UNL     1      33.554 -22.944 -17.505  0.00  0.00    +0.575 C 
ENDBRANCH  16  20
ENDBRANCH   2  16
TORSDOF 5
ENDMDL
MODEL 8
REMARK VINA RESULT:      -8.0      5.902      8.154
REMARK  Name = 834826
REMARK  5 active torsions:
REMARK  status: ('A' for Active; 'I' for Inactive)
REMARK    1  A    between atoms: C_1  and  C_8
REMARK    2  A    between atoms: C_2  and  O_16
REMARK    3  A    between atoms: C_10  and  C_13
REMARK    4  A    between atoms: C_13  and  O_14
REMARK    5  A    between atoms: O_16  and  C_20
REMARK                            x       y       z     vdW  Elec       q    Type
REMARK                         _______ _______ _______ _____ _____    ______ ____
ROOT
ATOM      1  C   UNL     1      35.353 -22.838 -16.896  0.00  0.00    +0.069 C 
ATOM      2  C   UNL     1      34.112 -23.079 -17.484  0.00  0.00    +0.150 C 
ATOM      3  C   UNL     1      36.282 -22.019 -17.539  0.00  0.00    +0.006 C 
ATOM      4  C   UNL     1      33.799 -22.503 -18.716  0.00  0.00    +0.037 C 
ATOM      5  C   UNL     1      35.970 -21.442 -18.770  0.00  0.00    +0.000 C 
ATOM      6  C   UNL     1      34.728 -21.684 -19.359  0.00  0.00    +0.003 C 
ENDROOT
BRANCH   1   8
ATOM      7  O   UNL     1      36.292 -24.640 -15.691  0.00  0.00    -0.447 OA
ATOM      8  C   UNL     1      35.695 -23.425 -15.622  0.00  0.00    +0.149 C 
ATOM      9  C   UNL     1      35.550 -23.018 -14.322  0.00  0.00    +0.041 C 
ATOM     10  C   UNL     1      36.532 -25.020 -14.408  0.00  0.00    +0.220 C 
ATOM     11  C   UNL     1      36.094 -24.057 -13.529  0.00  0.00    +0.047 C 
BRANCH  10  13
ATOM     12  O   UNL     1      37.982 -26.843 -14.954  0.00  0.00    -0.242 OA
ATOM     13  C   UNL     1      37.161 -26.278 -14.193  0.00  0.00    +0.373 C 
BRANCH  13  14
ATOM     14  O   UNL     1      36.792 -26.885 -13.018  0.00  0.00    -0.475 OA
ATOM     15  H   UNL     1      37.336 -26.808 -12.259  0.00  0.00    +0.296 HD
ENDBRANCH  13  14
ENDBRANCH  10  13
ENDBRANCH   1   8
BRANCH   2  16
ATOM     16  O   UNL     1      33.185 -23.877 -16.880  0.00  0.00    -0.404 OA
BRANCH  16  20
ATOM     17  F   UNL     1      32.432 -22.641 -15.109  0.00  0.00    -0.133 F 
ATOM     18  F   UNL     1      31.158 -24.204 -15.948  0.00  0.00    -0.133 F 
ATOM     19  F   UNL     1      31.481 -22.366 -17.085  0.00  0.00    -0.133 F 
ATOM     20  C   UNL     1      32.069 -23.254 -16.256  0.00  0.00    +0.575 C 
ENDBRANCH  16  20
ENDBRANCH   2  16
TORSDOF 5
ENDMDL
MODEL 9
REMARK VINA RESULT:      -8.0      6.720      8.715
REMARK  Name = 834826
REMARK  5 active torsions:
REMARK  status: ('A' for Active; 'I' for Inactive)
REMARK    1  A    between atoms: C_1  and  C_8
REMARK    2  A    between atoms: C_2  and  O_16
REMARK    3  A    between atoms: C_10  and  C_13
REMARK    4  A    between atoms: C_13  and  O_14
REMARK    5  A    between atoms: O_16  and  C_20
REMARK                            x       y       z     vdW  Elec       q    Type
REMARK                         _______ _______ _______ _____ _____    ______ ____
ROOT
ATOM      1  C   UNL     1      33.594 -10.655 -23.700  0.00  0.00    +0.069 C 
ATOM      2  C   UNL     1      32.578 -10.065 -22.949  0.00  0.00    +0.150 C 
ATOM      3  C   UNL     1      34.650  -9.878 -24.178  0.00  0.00    +0.006 C 
ATOM      4  C   UNL     1      32.617  -8.697 -22.676  0.00  0.00    +0.037 C 
ATOM      5  C   UNL     1      34.689  -8.511 -23.905  0.00  0.00    +0.000 C 
ATOM      6  C   UNL     1      33.672  -7.920 -23.155  0.00  0.00    +0.003 C 
ENDROOT
BRANCH   1   8
ATOM      7  O   UNL     1      33.451 -12.382 -25.306  0.00  0.00    -0.447 OA
ATOM      8  C   UNL     1      33.573 -12.069 -23.993  0.00  0.00    +0.149 C 
ATOM      9  C   UNL     1      33.651 -13.198 -23.220  0.00  0.00    +0.041 C 
ATOM     10  C   UNL     1      33.451 -13.740 -25.375  0.00  0.00    +0.220 C 
ATOM     11  C   UNL     1      33.570 -14.287 -24.119  0.00  0.00    +0.047 C 
BRANCH  10  13
ATOM     12  O   UNL     1      33.637 -13.820 -27.759  0.00  0.00    -0.242 OA
ATOM     13  C   UNL     1      33.332 -14.340 -26.660  0.00  0.00    +0.373 C 
BRANCH  13  14
ATOM     14  O   UNL     1      32.828 -15.617 -26.627  0.00  0.00    -0.475 OA
ATOM     15  H   UNL     1      32.208 -15.860 -25.968  0.00  0.00    +0.296 HD
ENDBRANCH  13  14
ENDBRANCH  10  13
ENDBRANCH   1   8
BRANCH   2  16
ATOM     16  O   UNL     1      31.534 -10.800 -22.470  0.00  0.00    -0.404 OA
BRANCH  16  20
ATOM     17  F   UNL     1      32.031 -12.223 -20.751  0.00  0.00    -0.133 F 
ATOM     18  F   UNL     1      30.168 -11.084 -20.699  0.00  0.00    -0.133 F 
ATOM     19  F   UNL     1      32.064 -10.045 -20.378  0.00  0.00    -0.133 F 
ATOM     20  C   UNL     1      31.467 -11.038 -21.069  0.00  0.00    +0.575 C 
ENDBRANCH  16  20
ENDBRANCH   2  16
TORSDOF 5
ENDMDL
