MODEL 1
REMARK VINA RESULT:      -5.5      0.000      0.000
REMARK  Name = 6992086
REMARK  5 active torsions:
REMARK  status: ('A' for Active; 'I' for Inactive)
REMARK    1  A    between atoms: CA_1  and  N_2
REMARK    2  A    between atoms: CA_1  and  C_8
REMARK    3  A    between atoms: CA_1  and  CB_9
REMARK    4  A    between atoms: CB_9  and  CG_10
REMARK    5  A    between atoms: CG_10  and  CD_13
REMARK                            x       y       z     vdW  Elec       q    Type
REMARK                         _______ _______ _______ _____ _____    ______ ____
ROOT
ATOM      1  CA  GLN A   1      36.840 -23.524 -12.019  0.00  0.00    +0.041 C 
ENDROOT
BRANCH   1   2
ATOM      2  N   GLN A   1      38.268 -23.625 -11.576  0.00  0.00    +0.389 N 
ATOM      3  H1  GLN A   1      38.377 -23.163 -10.672  0.00  0.00    -0.088 HD
ATOM      4  H2  GLN A   1      38.871 -23.174 -12.263  0.00  0.00    -0.088 HD
ATOM      5  H3  GLN A   1      38.528 -24.608 -11.488  0.00  0.00    -0.088 HD
ENDBRANCH   1   2
BRANCH   1   8
ATOM      6  O   GLN A   1      36.162 -24.116  -9.817  0.00  0.00    -0.248 OA
ATOM      7  OXT GLN A   1      34.987 -24.926 -11.602  0.00  0.00    -0.248 OA
ATOM      8  C   GLN A   1      35.902 -24.255 -11.045  0.00  0.00    +0.345 C 
ENDBRANCH   1   8
BRANCH   1   9
ATOM      9  CB  GLN A   1      36.786 -24.041 -13.460  0.00  0.00    -0.001 C 
BRANCH   9  10
ATOM     10  CG  GLN A   1      38.090 -24.722 -13.879  0.00  0.00    +0.083 C 
BRANCH  10  13
ATOM     11  OE1 GLN A   1      38.725 -26.906 -14.723  0.00  0.00    -0.275 OA
ATOM     12  NE2 GLN A   1      36.731 -26.688 -13.600  0.00  0.00    -0.329 N 
ATOM     13  CD  GLN A   1      37.912 -26.208 -14.124  0.00  0.00    +0.219 C 
ATOM     14 HE21 GLN A   1      36.500 -27.640 -13.695  0.00  0.00    +0.145 HD
ATOM     15 HE22 GLN A   1      36.117 -26.076 -13.131  0.00  0.00    +0.145 HD
ENDBRANCH  10  13
ENDBRANCH   9  10
ENDBRANCH   1   9
TORSDOF 5
ENDMDL
MODEL 2
REMARK VINA RESULT:      -5.5      1.744      4.634
REMARK  Name = 6992086
REMARK  5 active torsions:
REMARK  status: ('A' for Active; 'I' for Inactive)
REMARK    1  A    between atoms: CA_1  and  N_2
REMARK    2  A    between atoms: CA_1  and  C_8
REMARK    3  A    between atoms: CA_1  and  CB_9
REMARK    4  A    between atoms: CB_9  and  CG_10
REMARK    5  A    between atoms: CG_10  and  CD_13
REMARK                            x       y       z     vdW  Elec       q    Type
REMARK                         _______ _______ _______ _____ _____    ______ ____
ROOT
ATOM      1  CA  GLN A   1      38.750 -25.059 -14.193  0.00  0.00    +0.041 C 
ENDROOT
BRANCH   1   2
ATOM      2  N   GLN A   1      37.775 -25.558 -15.215  0.00  0.00    +0.389 N 
ATOM      3  H1  GLN A   1      37.981 -25.130 -16.118  0.00  0.00    -0.088 HD
ATOM      4  H2  GLN A   1      36.827 -25.312 -14.930  0.00  0.00    -0.088 HD
ATOM      5  H3  GLN A   1      37.854 -26.572 -15.294  0.00  0.00    -0.088 HD
ENDBRANCH   1   2
BRANCH   1   8
ATOM      6  O   GLN A   1      41.082 -24.736 -14.542  0.00  0.00    -0.248 OA
ATOM      7  OXT GLN A   1      40.229 -26.856 -14.589  0.00  0.00    -0.248 OA
ATOM      8  C   GLN A   1      40.164 -25.600 -14.462  0.00  0.00    +0.345 C 
ENDBRANCH   1   8
BRANCH   1   9
ATOM      9  CB  GLN A   1      38.181 -25.429 -12.819  0.00  0.00    -0.001 C 
BRANCH   9  10
ATOM     10  CG  GLN A   1      36.670 -25.201 -12.739  0.00  0.00    +0.083 C 
BRANCH  10  13
ATOM     11  OE1 GLN A   1      35.366 -25.064 -10.698  0.00  0.00    -0.275 OA
ATOM     12  NE2 GLN A   1      36.964 -23.461 -11.103  0.00  0.00    -0.329 N 
ATOM     13  CD  GLN A   1      36.248 -24.597 -11.414  0.00  0.00    +0.219 C 
ATOM     14 HE21 GLN A   1      36.781 -22.977 -10.266  0.00  0.00    +0.145 HD
ATOM     15 HE22 GLN A   1      37.658 -23.134 -11.720  0.00  0.00    +0.145 HD
ENDBRANCH  10  13
ENDBRANCH   9  10
ENDBRANCH   1   9
TORSDOF 5
ENDMDL
MODEL 3
REMARK VINA RESULT:      -5.5      2.096      4.244
REMARK  Name = 6992086
REMARK  5 active torsions:
REMARK  status: ('A' for Active; 'I' for Inactive)
REMARK    1  A    between atoms: CA_1  and  N_2
REMARK    2  A    between atoms: CA_1  and  C_8
REMARK    3  A    between atoms: CA_1  and  CB_9
REMARK    4  A    between atoms: CB_9  and  CG_10
REMARK    5  A    between atoms: CG_10  and  CD_13
REMARK                            x       y       z     vdW  Elec       q    Type
REMARK                         _______ _______ _______ _____ _____    ______ ____
ROOT
ATOM      1  CA  GLN A   1      37.486 -26.595 -13.958  0.00  0.00    +0.041 C 
ENDROOT
BRANCH   1   2
ATOM      2  N   GLN A   1      38.931 -26.221 -14.087  0.00  0.00    +0.389 N 
ATOM      3  H1  GLN A   1      39.040 -25.545 -14.845  0.00  0.00    -0.088 HD
ATOM      4  H2  GLN A   1      39.482 -27.054 -14.293  0.00  0.00    -0.088 HD
ATOM      5  H3  GLN A   1      39.255 -25.806 -13.213  0.00  0.00    -0.088 HD
ENDBRANCH   1   2
BRANCH   1   8
ATOM      6  O   GLN A   1      36.718 -27.276 -16.104  0.00  0.00    -0.248 OA
ATOM      7  OXT GLN A   1      36.206 -25.181 -15.348  0.00  0.00    -0.248 OA
ATOM      8  C   GLN A   1      36.724 -26.332 -15.266  0.00  0.00    +0.345 C 
ENDBRANCH   1   8
BRANCH   1   9
ATOM      9  CB  GLN A   1      36.940 -25.839 -12.742  0.00  0.00    -0.001 C 
BRANCH   9  10
ATOM     10  CG  GLN A   1      37.874 -24.714 -12.294  0.00  0.00    +0.083 C 
BRANCH  10  13
ATOM     11  OE1 GLN A   1      37.441 -22.626 -11.136  0.00  0.00    -0.275 OA
ATOM     12  NE2 GLN A   1      36.057 -23.244 -12.865  0.00  0.00    -0.329 N 
ATOM     13  CD  GLN A   1      37.129 -23.423 -12.017  0.00  0.00    +0.219 C 
ATOM     14 HE21 GLN A   1      35.493 -22.441 -12.784  0.00  0.00    +0.145 HD
ATOM     15 HE22 GLN A   1      35.855 -23.921 -13.551  0.00  0.00    +0.145 HD
ENDBRANCH  10  13
ENDBRANCH   9  10
ENDBRANCH   1   9
TORSDOF 5
ENDMDL
MODEL 4
REMARK VINA RESULT:      -5.3      3.045      3.604
REMARK  Name = 6992086
REMARK  5 active torsions:
REMARK  status: ('A' for Active; 'I' for Inactive)
REMARK    1  A    between atoms: CA_1  and  N_2
REMARK    2  A    between atoms: CA_1  and  C_8
REMARK    3  A    between atoms: CA_1  and  CB_9
REMARK    4  A    between atoms: CB_9  and  CG_10
REMARK    5  A    between atoms: CG_10  and  CD_13
REMARK                            x       y       z     vdW  Elec       q    Type
REMARK                         _______ _______ _______ _____ _____    ______ ____
ROOT
ATOM      1  CA  GLN A   1      36.693 -25.370 -13.860  0.00  0.00    +0.041 C 
ENDROOT
BRANCH   1   2
ATOM      2  N   GLN A   1      36.916 -26.632 -13.083  0.00  0.00    +0.389 N 
ATOM      3  H1  GLN A   1      37.823 -26.588 -12.618  0.00  0.00    -0.088 HD
ATOM      4  H2  GLN A   1      36.896 -27.430 -13.716  0.00  0.00    -0.088 HD
ATOM      5  H3  GLN A   1      36.180 -26.734 -12.383  0.00  0.00    -0.088 HD
ENDBRANCH   1   2
BRANCH   1   8
ATOM      6  O   GLN A   1      35.317 -24.762 -15.703  0.00  0.00    -0.248 OA
ATOM      7  OXT GLN A   1      36.355 -26.798 -15.710  0.00  0.00    -0.248 OA
ATOM      8  C   GLN A   1      36.061 -25.665 -15.230  0.00  0.00    +0.345 C 
ENDBRANCH   1   8
BRANCH   1   9
ATOM      9  CB  GLN A   1      38.042 -24.647 -13.927  0.00  0.00    -0.001 C 
BRANCH   9  10
ATOM     10  CG  GLN A   1      39.185 -25.506 -13.383  0.00  0.00    +0.083 C 
BRANCH  10  13
ATOM     11  OE1 GLN A   1      41.157 -26.608 -14.269  0.00  0.00    -0.275 OA
ATOM     12  NE2 GLN A   1      39.923 -25.254 -15.659  0.00  0.00    -0.329 N 
ATOM     13  CD  GLN A   1      40.198 -25.863 -14.453  0.00  0.00    +0.219 C 
ATOM     14 HE21 GLN A   1      40.510 -25.408 -16.434  0.00  0.00    +0.145 HD
ATOM     15 HE22 GLN A   1      39.139 -24.664 -15.744  0.00  0.00    +0.145 HD
ENDBRANCH  10  13
ENDBRANCH   9  10
ENDBRANCH   1   9
TORSDOF 5
ENDMDL
MODEL 5
REMARK VINA RESULT:      -5.3      2.292      4.744
REMARK  Name = 6992086
REMARK  5 active torsions:
REMARK  status: ('A' for Active; 'I' for Inactive)
REMARK    1  A    between atoms: CA_1  and  N_2
REMARK    2  A    between atoms: CA_1  and  C_8
REMARK    3  A    between atoms: CA_1  and  CB_9
REMARK    4  A    between atoms: CB_9  and  CG_10
REMARK    5  A    between atoms: CG_10  and  CD_13
REMARK                            x       y       z     vdW  Elec       q    Type
REMARK                         _______ _______ _______ _____ _____    ______ ____
ROOT
ATOM      1  CA  GLN A   1      38.917 -25.690 -14.848  0.00  0.00    +0.041 C 
ENDROOT
BRANCH   1   2
ATOM      2  N   GLN A   1      38.270 -26.945 -14.345  0.00  0.00    +0.389 N 
ATOM      3  H1  GLN A   1      37.742 -27.381 -15.101  0.00  0.00    -0.088 HD
ATOM      4  H2  GLN A   1      37.640 -26.718 -13.576  0.00  0.00    -0.088 HD
ATOM      5  H3  GLN A   1      38.989 -27.590 -14.017  0.00  0.00    -0.088 HD
ENDBRANCH   1   2
BRANCH   1   8
ATOM      6  O   GLN A   1      40.958 -26.868 -14.521  0.00  0.00    -0.248 OA
ATOM      7  OXT GLN A   1      40.983 -24.583 -14.569  0.00  0.00    -0.248 OA
ATOM      8  C   GLN A   1      40.438 -25.722 -14.630  0.00  0.00    +0.345 C 
ENDBRANCH   1   8
BRANCH   1   9
ATOM      9  CB  GLN A   1      38.203 -24.519 -14.164  0.00  0.00    -0.001 C 
BRANCH   9  10
ATOM     10  CG  GLN A   1      37.716 -24.880 -12.760  0.00  0.00    +0.083 C 
BRANCH  10  13
ATOM     11  OE1 GLN A   1      38.995 -23.121 -11.685  0.00  0.00    -0.275 OA
ATOM     12  NE2 GLN A   1      36.859 -23.548 -10.948  0.00  0.00    -0.329 N 
ATOM     13  CD  GLN A   1      37.951 -23.762 -11.763  0.00  0.00    +0.219 C 
ATOM     14 HE21 GLN A   1      36.890 -22.847 -10.258  0.00  0.00    +0.145 HD
ATOM     15 HE22 GLN A   1      36.050 -24.098 -11.057  0.00  0.00    +0.145 HD
ENDBRANCH  10  13
ENDBRANCH   9  10
ENDBRANCH   1   9
TORSDOF 5
ENDMDL
MODEL 6
REMARK VINA RESULT:      -5.2      1.992      2.295
REMARK  Name = 6992086
REMARK  5 active torsions:
REMARK  status: ('A' for Active; 'I' for Inactive)
REMARK    1  A    between atoms: CA_1  and  N_2
REMARK    2  A    between atoms: CA_1  and  C_8
REMARK    3  A    between atoms: CA_1  and  CB_9
REMARK    4  A    between atoms: CB_9  and  CG_10
REMARK    5  A    between atoms: CG_10  and  CD_13
REMARK                            x       y       z     vdW  Elec       q    Type
REMARK                         _______ _______ _______ _____ _____    ______ ____
ROOT
ATOM      1  CA  GLN A   1      36.508 -24.784 -12.039  0.00  0.00    +0.041 C 
ENDROOT
BRANCH   1   2
ATOM      2  N   GLN A   1      35.413 -24.849 -13.061  0.00  0.00    +0.389 N 
ATOM      3  H1  GLN A   1      35.328 -25.806 -13.406  0.00  0.00    -0.088 HD
ATOM      4  H2  GLN A   1      35.635 -24.226 -13.837  0.00  0.00    -0.088 HD
ATOM      5  H3  GLN A   1      34.532 -24.562 -12.634  0.00  0.00    -0.088 HD
ENDBRANCH   1   2
BRANCH   1   8
ATOM      6  O   GLN A   1      37.296 -22.840 -10.917  0.00  0.00    -0.248 OA
ATOM      7  OXT GLN A   1      37.544 -22.998 -13.183  0.00  0.00    -0.248 OA
ATOM      8  C   GLN A   1      37.188 -23.406 -12.041  0.00  0.00    +0.345 C 
ENDBRANCH   1   8
BRANCH   1   9
ATOM      9  CB  GLN A   1      37.451 -25.957 -12.325  0.00  0.00    -0.001 C 
BRANCH   9  10
ATOM     10  CG  GLN A   1      37.314 -26.472 -13.759  0.00  0.00    +0.083 C 
BRANCH  10  13
ATOM     11  OE1 GLN A   1      39.533 -26.721 -14.706  0.00  0.00    -0.275 OA
ATOM     12  NE2 GLN A   1      38.262 -24.906 -15.320  0.00  0.00    -0.329 N 
ATOM     13  CD  GLN A   1      38.491 -26.076 -14.628  0.00  0.00    +0.219 C 
ATOM     14 HE21 GLN A   1      38.954 -24.544 -15.919  0.00  0.00    +0.145 HD
ATOM     15 HE22 GLN A   1      37.405 -24.432 -15.213  0.00  0.00    +0.145 HD
ENDBRANCH  10  13
ENDBRANCH   9  10
ENDBRANCH   1   9
TORSDOF 5
ENDMDL
MODEL 7
REMARK VINA RESULT:      -5.2      7.064      8.139
REMARK  Name = 6992086
REMARK  5 active torsions:
REMARK  status: ('A' for Active; 'I' for Inactive)
REMARK    1  A    between atoms: CA_1  and  N_2
REMARK    2  A    between atoms: CA_1  and  C_8
REMARK    3  A    between atoms: CA_1  and  CB_9
REMARK    4  A    between atoms: CB_9  and  CG_10
REMARK    5  A    between atoms: CG_10  and  CD_13
REMARK                            x       y       z     vdW  Elec       q    Type
REMARK                         _______ _______ _______ _____ _____    ______ ____
ROOT
ATOM      1  CA  GLN A   1      29.308 -23.583 -15.603  0.00  0.00    +0.041 C 
ENDROOT
BRANCH   1   2
ATOM      2  N   GLN A   1      28.878 -24.917 -15.072  0.00  0.00    +0.389 N 
ATOM      3  H1  GLN A   1      29.698 -25.509 -14.938  0.00  0.00    -0.088 HD
ATOM      4  H2  GLN A   1      28.244 -25.359 -15.737  0.00  0.00    -0.088 HD
ATOM      5  H3  GLN A   1      28.401 -24.790 -14.179  0.00  0.00    -0.088 HD
ENDBRANCH   1   2
BRANCH   1   8
ATOM      6  O   GLN A   1      28.444 -21.928 -17.078  0.00  0.00    -0.248 OA
ATOM      7  OXT GLN A   1      27.841 -24.112 -17.374  0.00  0.00    -0.248 OA
ATOM      8  C   GLN A   1      28.452 -23.161 -16.807  0.00  0.00    +0.345 C 
ENDBRANCH   1   8
BRANCH   1   9
ATOM      9  CB  GLN A   1      30.808 -23.686 -15.896  0.00  0.00    -0.001 C 
BRANCH   9  10
ATOM     10  CG  GLN A   1      31.661 -23.266 -14.697  0.00  0.00    +0.083 C 
BRANCH  10  13
ATOM     11  OE1 GLN A   1      31.335 -25.040 -13.075  0.00  0.00    -0.275 OA
ATOM     12  NE2 GLN A   1      33.407 -24.785 -14.038  0.00  0.00    -0.329 N 
ATOM     13  CD  GLN A   1      32.084 -24.449 -13.848  0.00  0.00    +0.219 C 
ATOM     14 HE21 GLN A   1      33.801 -25.538 -13.542  0.00  0.00    +0.145 HD
ATOM     15 HE22 GLN A   1      33.958 -24.270 -14.671  0.00  0.00    +0.145 HD
ENDBRANCH  10  13
ENDBRANCH   9  10
ENDBRANCH   1   9
TORSDOF 5
ENDMDL
MODEL 8
REMARK VINA RESULT:      -5.2      1.297      4.077
REMARK  Name = 6992086
REMARK  5 active torsions:
REMARK  status: ('A' for Active; 'I' for Inactive)
REMARK    1  A    between atoms: CA_1  and  N_2
REMARK    2  A    between atoms: CA_1  and  C_8
REMARK    3  A    between atoms: CA_1  and  CB_9
REMARK    4  A    between atoms: CB_9  and  CG_10
REMARK    5  A    between atoms: CG_10  and  CD_13
REMARK                            x       y       z     vdW  Elec       q    Type
REMARK                         _______ _______ _______ _____ _____    ______ ____
ROOT
ATOM      1  CA  GLN A   1      37.141 -25.041 -14.590  0.00  0.00    +0.041 C 
ENDROOT
BRANCH   1   2
ATOM      2  N   GLN A   1      36.156 -26.171 -14.599  0.00  0.00    +0.389 N 
ATOM      3  H1  GLN A   1      36.325 -26.762 -15.414  0.00  0.00    -0.088 HD
ATOM      4  H2  GLN A   1      35.209 -25.797 -14.641  0.00  0.00    -0.088 HD
ATOM      5  H3  GLN A   1      36.267 -26.725 -13.749  0.00  0.00    -0.088 HD
ENDBRANCH   1   2
BRANCH   1   8
ATOM      6  O   GLN A   1      39.114 -24.736 -13.295  0.00  0.00    -0.248 OA
ATOM      7  OXT GLN A   1      38.899 -26.616 -14.577  0.00  0.00    -0.248 OA
ATOM      8  C   GLN A   1      38.520 -25.509 -14.098  0.00  0.00    +0.345 C 
ENDBRANCH   1   8
BRANCH   1   9
ATOM      9  CB  GLN A   1      36.518 -23.917 -13.756  0.00  0.00    -0.001 C 
BRANCH   9  10
ATOM     10  CG  GLN A   1      35.432 -24.433 -12.810  0.00  0.00    +0.083 C 
BRANCH  10  13
ATOM     11  OE1 GLN A   1      35.306 -25.064 -10.471  0.00  0.00    -0.275 OA
ATOM     12  NE2 GLN A   1      37.039 -23.722 -11.167  0.00  0.00    -0.329 N 
ATOM     13  CD  GLN A   1      35.891 -24.459 -11.366  0.00  0.00    +0.219 C 
ATOM     14 HE21 GLN A   1      37.436 -23.660 -10.268  0.00  0.00    +0.145 HD
ATOM     15 HE22 GLN A   1      37.460 -23.255 -11.925  0.00  0.00    +0.145 HD
ENDBRANCH  10  13
ENDBRANCH   9  10
ENDBRANCH   1   9
TORSDOF 5
ENDMDL
MODEL 9
REMARK VINA RESULT:      -5.2      2.065      2.129
REMARK  Name = 6992086
REMARK  5 active torsions:
REMARK  status: ('A' for Active; 'I' for Inactive)
REMARK    1  A    between atoms: CA_1  and  N_2
REMARK    2  A    between atoms: CA_1  and  C_8
REMARK    3  A    between atoms: CA_1  and  CB_9
REMARK    4  A    between atoms: CB_9  and  CG_10
REMARK    5  A    between atoms: CG_10  and  CD_13
REMARK                            x       y       z     vdW  Elec       q    Type
REMARK                         _______ _______ _______ _____ _____    ______ ____
ROOT
ATOM      1  CA  GLN A   1      35.827 -24.333 -12.244  0.00  0.00    +0.041 C 
ENDROOT
BRANCH   1   2
ATOM      2  N   GLN A   1      34.617 -23.607 -12.750  0.00  0.00    +0.389 N 
ATOM      3  H1  GLN A   1      34.383 -22.849 -12.108  0.00  0.00    -0.088 HD
ATOM      4  H2  GLN A   1      33.832 -24.256 -12.810  0.00  0.00    -0.088 HD
ATOM      5  H3  GLN A   1      34.813 -23.222 -13.674  0.00  0.00    -0.088 HD
ENDBRANCH   1   2
BRANCH   1   8
ATOM      6  O   GLN A   1      37.088 -23.137 -10.618  0.00  0.00    -0.248 OA
ATOM      7  OXT GLN A   1      35.400 -24.516  -9.929  0.00  0.00    -0.248 OA
ATOM      8  C   GLN A   1      36.136 -23.949 -10.788  0.00  0.00    +0.345 C 
ENDBRANCH   1   8
BRANCH   1   9
ATOM      9  CB  GLN A   1      36.962 -24.043 -13.230  0.00  0.00    -0.001 C 
BRANCH   9  10
ATOM     10  CG  GLN A   1      37.340 -25.275 -14.055  0.00  0.00    +0.083 C 
BRANCH  10  13
ATOM     11  OE1 GLN A   1      35.567 -24.833 -15.652  0.00  0.00    -0.275 OA
ATOM     12  NE2 GLN A   1      36.155 -27.014 -15.222  0.00  0.00    -0.329 N 
ATOM     13  CD  GLN A   1      36.265 -25.649 -15.057  0.00  0.00    +0.219 C 
ATOM     14 HE21 GLN A   1      35.490 -27.383 -15.847  0.00  0.00    +0.145 HD
ATOM     15 HE22 GLN A   1      36.742 -27.619 -14.714  0.00  0.00    +0.145 HD
ENDBRANCH  10  13
ENDBRANCH   9  10
ENDBRANCH   1   9
TORSDOF 5
ENDMDL
