MODEL 1
REMARK VINA RESULT:      -8.4      0.000      0.000
REMARK  Name = 71955
REMARK  7 active torsions:
REMARK  status: ('A' for Active; 'I' for Inactive)
REMARK    1  A    between atoms: C_1  and  O_2
REMARK    2  A    between atoms: C_1  and  C_12
REMARK    3  A    between atoms: O_2  and  C_5
REMARK    4  A    between atoms: C_12  and  O_13
REMARK    5  A    between atoms: C_12  and  C_15
REMARK    6  A    between atoms: C_15  and  N_16
REMARK    7  A    between atoms: N_16  and  C_19
REMARK                            x       y       z     vdW  Elec       q    Type
REMARK                         _______ _______ _______ _____ _____    ______ ____
ROOT
ATOM      1  C   UNL     1      34.563 -17.924 -23.745  0.00  0.00    +0.232 C 
ENDROOT
BRANCH   1   2
ATOM      2  O   UNL     1      34.521 -17.748 -22.329  0.00  0.00    -0.473 OA
BRANCH   2   5
ATOM      3  C   UNL     1      34.395 -19.648 -20.878  0.00  0.00    +0.016 C 
ATOM      4  C   UNL     1      35.032 -20.622 -20.095  0.00  0.00    -0.001 C 
ATOM      5  C   UNL     1      35.125 -18.696 -21.567  0.00  0.00    +0.135 C 
ATOM      6  C   UNL     1      34.005 -21.514 -19.470  0.00  0.00    -0.004 C 
ATOM      7  C   UNL     1      32.959 -19.849 -20.806  0.00  0.00    +0.055 C 
ATOM      8  C   UNL     1      32.733 -20.906 -20.009  0.00  0.00    -0.021 C 
ATOM      9  C   UNL     1      36.410 -20.666 -19.983  0.00  0.00    -0.000 C 
ATOM     10  C   UNL     1      36.518 -18.732 -21.460  0.00  0.00    +0.037 C 
ATOM     11  C   UNL     1      37.155 -19.709 -20.676  0.00  0.00    +0.003 C 
ENDBRANCH   2   5
ENDBRANCH   1   2
BRANCH   1  12
ATOM     12  C   UNL     1      34.836 -16.572 -24.402  0.00  0.00    +0.133 C 
BRANCH  12  13
ATOM     13  O   UNL     1      34.846 -16.747 -25.822  0.00  0.00    -0.383 OA
ATOM     14  H   UNL     1      34.100 -16.265 -26.211  0.00  0.00    +0.210 HD
ENDBRANCH  12  13
BRANCH  12  15
ATOM     15  C   UNL     1      33.787 -15.511 -24.059  0.00  0.00    -0.048 C 
BRANCH  15  16
ATOM     16  N   UNL     1      34.023 -14.910 -22.754  0.00  0.00    +0.387 N 
ATOM     17  H   UNL     1      34.455 -13.994 -22.882  0.00  0.00    -0.084 HD
ATOM     18  H   UNL     1      34.638 -15.523 -22.219  0.00  0.00    -0.084 HD
BRANCH  16  19
ATOM     19  C   UNL     1      32.775 -14.750 -22.020  0.00  0.00    -0.062 C 
ATOM     20  C   UNL     1      32.260 -13.321 -22.158  0.00  0.00    -0.023 C 
ATOM     21  C   UNL     1      32.999 -15.112 -20.555  0.00  0.00    -0.023 C 
ENDBRANCH  16  19
ENDBRANCH  15  16
ENDBRANCH  12  15
ENDBRANCH   1  12
TORSDOF 7
ENDMDL
MODEL 2
REMARK VINA RESULT:      -8.4      1.516      2.605
REMARK  Name = 71955
REMARK  7 active torsions:
REMARK  status: ('A' for Active; 'I' for Inactive)
REMARK    1  A    between atoms: C_1  and  O_2
REMARK    2  A    between atoms: C_1  and  C_12
REMARK    3  A    between atoms: O_2  and  C_5
REMARK    4  A    between atoms: C_12  and  O_13
REMARK    5  A    between atoms: C_12  and  C_15
REMARK    6  A    between atoms: C_15  and  N_16
REMARK    7  A    between atoms: N_16  and  C_19
REMARK                            x       y       z     vdW  Elec       q    Type
REMARK                         _______ _______ _______ _____ _____    ______ ____
ROOT
ATOM      1  C   UNL     1      34.362 -16.472 -21.212  0.00  0.00    +0.232 C 
ENDROOT
BRANCH   1   2
ATOM      2  O   UNL     1      34.126 -17.807 -21.661  0.00  0.00    -0.473 OA
BRANCH   2   5
ATOM      3  C   UNL     1      34.331 -19.886 -20.493  0.00  0.00    +0.016 C 
ATOM      4  C   UNL     1      35.134 -20.894 -19.940  0.00  0.00    -0.001 C 
ATOM      5  C   UNL     1      34.892 -18.789 -21.121  0.00  0.00    +0.135 C 
ATOM      6  C   UNL     1      34.267 -21.950 -19.330  0.00  0.00    -0.004 C 
ATOM      7  C   UNL     1      32.935 -20.224 -20.279  0.00  0.00    +0.055 C 
ATOM      8  C   UNL     1      32.893 -21.393 -19.620  0.00  0.00    -0.021 C 
ATOM      9  C   UNL     1      36.514 -20.827 -20.001  0.00  0.00    -0.000 C 
ATOM     10  C   UNL     1      36.286 -18.712 -21.188  0.00  0.00    +0.037 C 
ATOM     11  C   UNL     1      37.090 -19.723 -20.634  0.00  0.00    +0.003 C 
ENDBRANCH   2   5
ENDBRANCH   1   2
BRANCH   1  12
ATOM     12  C   UNL     1      33.692 -15.499 -22.179  0.00  0.00    +0.133 C 
BRANCH  12  13
ATOM     13  O   UNL     1      33.415 -14.280 -21.484  0.00  0.00    -0.383 OA
ATOM     14  H   UNL     1      33.313 -14.465 -20.537  0.00  0.00    +0.210 HD
ENDBRANCH  12  13
BRANCH  12  15
ATOM     15  C   UNL     1      34.556 -15.168 -23.399  0.00  0.00    -0.048 C 
BRANCH  15  16
ATOM     16  N   UNL     1      35.314 -16.323 -23.861  0.00  0.00    +0.387 N 
ATOM     17  H   UNL     1      35.218 -17.079 -23.183  0.00  0.00    -0.084 HD
ATOM     18  H   UNL     1      36.292 -16.052 -23.958  0.00  0.00    -0.084 HD
BRANCH  16  19
ATOM     19  C   UNL     1      34.829 -16.781 -25.156  0.00  0.00    -0.062 C 
ATOM     20  C   UNL     1      33.691 -15.888 -25.641  0.00  0.00    -0.023 C 
ATOM     21  C   UNL     1      34.375 -18.232 -25.043  0.00  0.00    -0.023 C 
ENDBRANCH  16  19
ENDBRANCH  15  16
ENDBRANCH  12  15
ENDBRANCH   1  12
TORSDOF 7
ENDMDL
MODEL 3
REMARK VINA RESULT:      -8.1      1.512      2.324
REMARK  Name = 71955
REMARK  7 active torsions:
REMARK  status: ('A' for Active; 'I' for Inactive)
REMARK    1  A    between atoms: C_1  and  O_2
REMARK    2  A    between atoms: C_1  and  C_12
REMARK    3  A    between atoms: O_2  and  C_5
REMARK    4  A    between atoms: C_12  and  O_13
REMARK    5  A    between atoms: C_12  and  C_15
REMARK    6  A    between atoms: C_15  and  N_16
REMARK    7  A    between atoms: N_16  and  C_19
REMARK                            x       y       z     vdW  Elec       q    Type
REMARK                         _______ _______ _______ _____ _____    ______ ____
ROOT
ATOM      1  C   UNL     1      34.531 -16.367 -21.607  0.00  0.00    +0.232 C 
ENDROOT
BRANCH   1   2
ATOM      2  O   UNL     1      34.329 -17.711 -22.045  0.00  0.00    -0.473 OA
BRANCH   2   5
ATOM      3  C   UNL     1      34.322 -19.711 -20.729  0.00  0.00    +0.016 C 
ATOM      4  C   UNL     1      35.020 -20.715 -20.043  0.00  0.00    -0.001 C 
ATOM      5  C   UNL     1      34.992 -18.688 -21.376  0.00  0.00    +0.135 C 
ATOM      6  C   UNL     1      34.048 -21.683 -19.445  0.00  0.00    -0.004 C 
ATOM      7  C   UNL     1      32.896 -19.966 -20.618  0.00  0.00    +0.055 C 
ATOM      8  C   UNL     1      32.736 -21.083 -19.890  0.00  0.00    -0.021 C 
ATOM      9  C   UNL     1      36.402 -20.719 -19.986  0.00  0.00    -0.000 C 
ATOM     10  C   UNL     1      36.389 -18.684 -21.325  0.00  0.00    +0.037 C 
ATOM     11  C   UNL     1      37.088 -19.691 -20.637  0.00  0.00    +0.003 C 
ENDBRANCH   2   5
ENDBRANCH   1   2
BRANCH   1  12
ATOM     12  C   UNL     1      34.766 -15.480 -22.828  0.00  0.00    +0.133 C 
BRANCH  12  13
ATOM     13  O   UNL     1      35.654 -16.157 -23.722  0.00  0.00    -0.383 OA
ATOM     14  H   UNL     1      35.310 -17.045 -23.906  0.00  0.00    +0.210 HD
ENDBRANCH  12  13
BRANCH  12  15
ATOM     15  C   UNL     1      33.480 -15.150 -23.591  0.00  0.00    -0.048 C 
BRANCH  15  16
ATOM     16  N   UNL     1      33.603 -13.922 -24.365  0.00  0.00    +0.387 N 
ATOM     17  H   UNL     1      34.591 -13.736 -24.542  0.00  0.00    -0.084 HD
ATOM     18  H   UNL     1      33.185 -13.159 -23.835  0.00  0.00    -0.084 HD
BRANCH  16  19
ATOM     19  C   UNL     1      32.906 -14.038 -25.640  0.00  0.00    -0.062 C 
ATOM     20  C   UNL     1      33.093 -15.436 -26.219  0.00  0.00    -0.023 C 
ATOM     21  C   UNL     1      33.426 -12.973 -26.600  0.00  0.00    -0.023 C 
ENDBRANCH  16  19
ENDBRANCH  15  16
ENDBRANCH  12  15
ENDBRANCH   1  12
TORSDOF 7
ENDMDL
MODEL 4
REMARK VINA RESULT:      -8.0      0.748      2.307
REMARK  Name = 71955
REMARK  7 active torsions:
REMARK  status: ('A' for Active; 'I' for Inactive)
REMARK    1  A    between atoms: C_1  and  O_2
REMARK    2  A    between atoms: C_1  and  C_12
REMARK    3  A    between atoms: O_2  and  C_5
REMARK    4  A    between atoms: C_12  and  O_13
REMARK    5  A    between atoms: C_12  and  C_15
REMARK    6  A    between atoms: C_15  and  N_16
REMARK    7  A    between atoms: N_16  and  C_19
REMARK                            x       y       z     vdW  Elec       q    Type
REMARK                         _______ _______ _______ _____ _____    ______ ____
ROOT
ATOM      1  C   UNL     1      34.841 -18.218 -23.674  0.00  0.00    +0.232 C 
ENDROOT
BRANCH   1   2
ATOM      2  O   UNL     1      35.152 -18.160 -22.281  0.00  0.00    -0.473 OA
BRANCH   2   5
ATOM      3  C   UNL     1      35.310 -19.942 -20.691  0.00  0.00    +0.016 C 
ATOM      4  C   UNL     1      34.689 -20.887 -19.862  0.00  0.00    -0.001 C 
ATOM      5  C   UNL     1      34.564 -19.079 -21.474  0.00  0.00    +0.135 C 
ATOM      6  C   UNL     1      35.732 -21.679 -19.135  0.00  0.00    -0.004 C 
ATOM      7  C   UNL     1      36.750 -20.065 -20.553  0.00  0.00    +0.055 C 
ATOM      8  C   UNL     1      36.994 -21.048 -19.672  0.00  0.00    -0.021 C 
ATOM      9  C   UNL     1      33.312 -20.992 -19.796  0.00  0.00    -0.000 C 
ATOM     10  C   UNL     1      33.171 -19.177 -21.415  0.00  0.00    +0.037 C 
ATOM     11  C   UNL     1      32.550 -20.124 -20.583  0.00  0.00    +0.003 C 
ENDBRANCH   2   5
ENDBRANCH   1   2
BRANCH   1  12
ATOM     12  C   UNL     1      35.046 -16.834 -24.285  0.00  0.00    +0.133 C 
BRANCH  12  13
ATOM     13  O   UNL     1      34.805 -16.914 -25.692  0.00  0.00    -0.383 OA
ATOM     14  H   UNL     1      34.260 -17.694 -25.882  0.00  0.00    +0.210 HD
ENDBRANCH  12  13
BRANCH  12  15
ATOM     15  C   UNL     1      34.112 -15.772 -23.700  0.00  0.00    -0.048 C 
BRANCH  15  16
ATOM     16  N   UNL     1      34.574 -15.288 -22.406  0.00  0.00    +0.387 N 
ATOM     17  H   UNL     1      35.365 -14.659 -22.548  0.00  0.00    -0.084 HD
ATOM     18  H   UNL     1      34.852 -16.089 -21.839  0.00  0.00    -0.084 HD
BRANCH  16  19
ATOM     19  C   UNL     1      33.515 -14.570 -21.709  0.00  0.00    -0.062 C 
ATOM     20  C   UNL     1      32.707 -15.531 -20.842  0.00  0.00    -0.023 C 
ATOM     21  C   UNL     1      32.623 -13.869 -22.727  0.00  0.00    -0.023 C 
ENDBRANCH  16  19
ENDBRANCH  15  16
ENDBRANCH  12  15
ENDBRANCH   1  12
TORSDOF 7
ENDMDL
MODEL 5
REMARK VINA RESULT:      -8.0      4.873      8.359
REMARK  Name = 71955
REMARK  7 active torsions:
REMARK  status: ('A' for Active; 'I' for Inactive)
REMARK    1  A    between atoms: C_1  and  O_2
REMARK    2  A    between atoms: C_1  and  C_12
REMARK    3  A    between atoms: O_2  and  C_5
REMARK    4  A    between atoms: C_12  and  O_13
REMARK    5  A    between atoms: C_12  and  C_15
REMARK    6  A    between atoms: C_15  and  N_16
REMARK    7  A    between atoms: N_16  and  C_19
REMARK                            x       y       z     vdW  Elec       q    Type
REMARK                         _______ _______ _______ _____ _____    ______ ____
ROOT
ATOM      1  C   UNL     1      35.598 -22.275 -17.375  0.00  0.00    +0.232 C 
ENDROOT
BRANCH   1   2
ATOM      2  O   UNL     1      35.566 -22.402 -18.797  0.00  0.00    -0.473 OA
BRANCH   2   5
ATOM      3  C   UNL     1      35.454 -20.454 -20.184  0.00  0.00    +0.016 C 
ATOM      4  C   UNL     1      34.696 -19.510 -20.893  0.00  0.00    -0.001 C 
ATOM      5  C   UNL     1      34.845 -21.481 -19.487  0.00  0.00    +0.135 C 
ATOM      6  C   UNL     1      35.610 -18.521 -21.548  0.00  0.00    -0.004 C 
ATOM      7  C   UNL     1      36.864 -20.138 -20.336  0.00  0.00    +0.055 C 
ATOM      8  C   UNL     1      36.957 -19.044 -21.108  0.00  0.00    -0.021 C 
ATOM      9  C   UNL     1      33.315 -19.571 -20.920  0.00  0.00    -0.000 C 
ATOM     10  C   UNL     1      33.449 -21.552 -19.509  0.00  0.00    +0.037 C 
ATOM     11  C   UNL     1      32.690 -20.606 -20.219  0.00  0.00    +0.003 C 
ENDBRANCH   2   5
ENDBRANCH   1   2
BRANCH   1  12
ATOM     12  C   UNL     1      37.050 -22.127 -16.925  0.00  0.00    +0.133 C 
BRANCH  12  13
ATOM     13  O   UNL     1      37.373 -20.735 -16.873  0.00  0.00    -0.383 OA
ATOM     14  H   UNL     1      37.944 -20.565 -16.107  0.00  0.00    +0.210 HD
ENDBRANCH  12  13
BRANCH  12  15
ATOM     15  C   UNL     1      37.318 -22.732 -15.545  0.00  0.00    -0.048 C 
BRANCH  15  16
ATOM     16  N   UNL     1      38.173 -23.909 -15.619  0.00  0.00    +0.387 N 
ATOM     17  H   UNL     1      39.126 -23.646 -15.370  0.00  0.00    -0.084 HD
ATOM     18  H   UNL     1      38.141 -24.275 -16.570  0.00  0.00    -0.084 HD
BRANCH  16  19
ATOM     19  C   UNL     1      37.712 -24.947 -14.706  0.00  0.00    -0.062 C 
ATOM     20  C   UNL     1      36.240 -25.259 -14.960  0.00  0.00    -0.023 C 
ATOM     21  C   UNL     1      37.935 -24.492 -13.268  0.00  0.00    -0.023 C 
ENDBRANCH  16  19
ENDBRANCH  15  16
ENDBRANCH  12  15
ENDBRANCH   1  12
TORSDOF 7
ENDMDL
MODEL 6
REMARK VINA RESULT:      -7.9      2.558      4.269
REMARK  Name = 71955
REMARK  7 active torsions:
REMARK  status: ('A' for Active; 'I' for Inactive)
REMARK    1  A    between atoms: C_1  and  O_2
REMARK    2  A    between atoms: C_1  and  C_12
REMARK    3  A    between atoms: O_2  and  C_5
REMARK    4  A    between atoms: C_12  and  O_13
REMARK    5  A    between atoms: C_12  and  C_15
REMARK    6  A    between atoms: C_15  and  N_16
REMARK    7  A    between atoms: N_16  and  C_19
REMARK                            x       y       z     vdW  Elec       q    Type
REMARK                         _______ _______ _______ _____ _____    ______ ____
ROOT
ATOM      1  C   UNL     1      33.814 -14.259 -21.736  0.00  0.00    +0.232 C 
ENDROOT
BRANCH   1   2
ATOM      2  O   UNL     1      34.863 -14.949 -22.416  0.00  0.00    -0.473 OA
BRANCH   2   5
ATOM      3  C   UNL     1      34.736 -17.109 -23.440  0.00  0.00    +0.016 C 
ATOM      4  C   UNL     1      34.752 -18.507 -23.330  0.00  0.00    -0.001 C 
ATOM      5  C   UNL     1      34.877 -16.304 -22.324  0.00  0.00    +0.135 C 
ATOM      6  C   UNL     1      34.582 -19.119 -24.686  0.00  0.00    -0.004 C 
ATOM      7  C   UNL     1      34.559 -16.746 -24.835  0.00  0.00    +0.055 C 
ATOM      8  C   UNL     1      34.471 -17.882 -25.545  0.00  0.00    -0.021 C 
ATOM      9  C   UNL     1      34.908 -19.131 -22.106  0.00  0.00    -0.000 C 
ATOM     10  C   UNL     1      35.035 -16.924 -21.082  0.00  0.00    +0.037 C 
ATOM     11  C   UNL     1      35.052 -18.326 -20.973  0.00  0.00    +0.003 C 
ENDBRANCH   2   5
ENDBRANCH   1   2
BRANCH   1  12
ATOM     12  C   UNL     1      32.667 -14.018 -22.715  0.00  0.00    +0.133 C 
BRANCH  12  13
ATOM     13  O   UNL     1      31.739 -13.107 -22.117  0.00  0.00    -0.383 OA
ATOM     14  H   UNL     1      31.589 -12.360 -22.718  0.00  0.00    +0.210 HD
ENDBRANCH  12  13
BRANCH  12  15
ATOM     15  C   UNL     1      33.125 -13.426 -24.050  0.00  0.00    -0.048 C 
BRANCH  15  16
ATOM     16  N   UNL     1      34.148 -12.404 -23.873  0.00  0.00    +0.387 N 
ATOM     17  H   UNL     1      35.038 -12.757 -24.228  0.00  0.00    -0.084 HD
ATOM     18  H   UNL     1      34.222 -12.185 -22.880  0.00  0.00    -0.084 HD
BRANCH  16  19
ATOM     19  C   UNL     1      33.799 -11.186 -24.592  0.00  0.00    -0.062 C 
ATOM     20  C   UNL     1      35.035 -10.593 -25.260  0.00  0.00    -0.023 C 
ATOM     21  C   UNL     1      33.168 -10.190 -23.625  0.00  0.00    -0.023 C 
ENDBRANCH  16  19
ENDBRANCH  15  16
ENDBRANCH  12  15
ENDBRANCH   1  12
TORSDOF 7
ENDMDL
MODEL 7
REMARK VINA RESULT:      -7.9      2.627      4.212
REMARK  Name = 71955
REMARK  7 active torsions:
REMARK  status: ('A' for Active; 'I' for Inactive)
REMARK    1  A    between atoms: C_1  and  O_2
REMARK    2  A    between atoms: C_1  and  C_12
REMARK    3  A    between atoms: O_2  and  C_5
REMARK    4  A    between atoms: C_12  and  O_13
REMARK    5  A    between atoms: C_12  and  C_15
REMARK    6  A    between atoms: C_15  and  N_16
REMARK    7  A    between atoms: N_16  and  C_19
REMARK                            x       y       z     vdW  Elec       q    Type
REMARK                         _______ _______ _______ _____ _____    ______ ____
ROOT
ATOM      1  C   UNL     1      33.850 -14.434 -22.354  0.00  0.00    +0.232 C 
ENDROOT
BRANCH   1   2
ATOM      2  O   UNL     1      34.934 -14.968 -23.115  0.00  0.00    -0.473 OA
BRANCH   2   5
ATOM      3  C   UNL     1      34.939 -17.326 -22.701  0.00  0.00    +0.016 C 
ATOM      4  C   UNL     1      34.811 -18.641 -23.171  0.00  0.00    -0.001 C 
ATOM      5  C   UNL     1      34.813 -16.246 -23.557  0.00  0.00    +0.135 C 
ATOM      6  C   UNL     1      34.992 -19.600 -22.036  0.00  0.00    -0.004 C 
ATOM      7  C   UNL     1      35.204 -17.358 -21.273  0.00  0.00    +0.055 C 
ATOM      8  C   UNL     1      35.235 -18.645 -20.892  0.00  0.00    -0.021 C 
ATOM      9  C   UNL     1      34.554 -18.907 -24.504  0.00  0.00    -0.000 C 
ATOM     10  C   UNL     1      34.553 -16.504 -24.906  0.00  0.00    +0.037 C 
ATOM     11  C   UNL     1      34.424 -17.822 -25.375  0.00  0.00    +0.003 C 
ENDBRANCH   2   5
ENDBRANCH   1   2
BRANCH   1  12
ATOM     12  C   UNL     1      32.792 -13.894 -23.315  0.00  0.00    +0.133 C 
BRANCH  12  13
ATOM     13  O   UNL     1      31.854 -13.113 -22.570  0.00  0.00    -0.383 OA
ATOM     14  H   UNL     1      32.228 -12.904 -21.700  0.00  0.00    +0.210 HD
ENDBRANCH  12  13
BRANCH  12  15
ATOM     15  C   UNL     1      33.375 -13.014 -24.422  0.00  0.00    -0.048 C 
BRANCH  15  16
ATOM     16  N   UNL     1      34.251 -11.977 -23.894  0.00  0.00    +0.387 N 
ATOM     17  H   UNL     1      35.216 -12.197 -24.143  0.00  0.00    -0.084 HD
ATOM     18  H   UNL     1      34.143 -11.944 -22.880  0.00  0.00    -0.084 HD
BRANCH  16  19
ATOM     19  C   UNL     1      33.904 -10.672 -24.440  0.00  0.00    -0.062 C 
ATOM     20  C   UNL     1      35.167  -9.898 -24.805  0.00  0.00    -0.023 C 
ATOM     21  C   UNL     1      33.066  -9.904 -23.424  0.00  0.00    -0.023 C 
ENDBRANCH  16  19
ENDBRANCH  15  16
ENDBRANCH  12  15
ENDBRANCH   1  12
TORSDOF 7
ENDMDL
MODEL 8
REMARK VINA RESULT:      -7.9      1.561      3.397
REMARK  Name = 71955
REMARK  7 active torsions:
REMARK  status: ('A' for Active; 'I' for Inactive)
REMARK    1  A    between atoms: C_1  and  O_2
REMARK    2  A    between atoms: C_1  and  C_12
REMARK    3  A    between atoms: O_2  and  C_5
REMARK    4  A    between atoms: C_12  and  O_13
REMARK    5  A    between atoms: C_12  and  C_15
REMARK    6  A    between atoms: C_15  and  N_16
REMARK    7  A    between atoms: N_16  and  C_19
REMARK                            x       y       z     vdW  Elec       q    Type
REMARK                         _______ _______ _______ _____ _____    ______ ____
ROOT
ATOM      1  C   UNL     1      34.408 -16.777 -21.175  0.00  0.00    +0.232 C 
ENDROOT
BRANCH   1   2
ATOM      2  O   UNL     1      34.070 -17.996 -21.837  0.00  0.00    -0.473 OA
BRANCH   2   5
ATOM      3  C   UNL     1      35.173 -19.744 -20.630  0.00  0.00    +0.016 C 
ATOM      4  C   UNL     1      35.110 -20.907 -19.848  0.00  0.00    -0.001 C 
ATOM      5  C   UNL     1      34.023 -19.122 -21.080  0.00  0.00    +0.135 C 
ATOM      6  C   UNL     1      36.495 -21.359 -19.506  0.00  0.00    -0.004 C 
ATOM      7  C   UNL     1      36.566 -19.387 -20.833  0.00  0.00    +0.055 C 
ATOM      8  C   UNL     1      37.320 -20.299 -20.198  0.00  0.00    -0.021 C 
ATOM      9  C   UNL     1      33.897 -21.473 -19.499  0.00  0.00    -0.000 C 
ATOM     10  C   UNL     1      32.792 -19.686 -20.732  0.00  0.00    +0.037 C 
ATOM     11  C   UNL     1      32.729 -20.851 -19.948  0.00  0.00    +0.003 C 
ENDBRANCH   2   5
ENDBRANCH   1   2
BRANCH   1  12
ATOM     12  C   UNL     1      33.802 -15.609 -21.950  0.00  0.00    +0.133 C 
BRANCH  12  13
ATOM     13  O   UNL     1      33.759 -14.464 -21.094  0.00  0.00    -0.383 OA
ATOM     14  H   UNL     1      33.048 -14.575 -20.444  0.00  0.00    +0.210 HD
ENDBRANCH  12  13
BRANCH  12  15
ATOM     15  C   UNL     1      34.598 -15.239 -23.204  0.00  0.00    -0.048 C 
BRANCH  15  16
ATOM     16  N   UNL     1      35.333 -16.375 -23.741  0.00  0.00    +0.387 N 
ATOM     17  H   UNL     1      35.205 -17.178 -23.123  0.00  0.00    -0.084 HD
ATOM     18  H   UNL     1      36.320 -16.126 -23.803  0.00  0.00    -0.084 HD
BRANCH  16  19
ATOM     19  C   UNL     1      34.857 -16.721 -25.074  0.00  0.00    -0.062 C 
ATOM     20  C   UNL     1      33.718 -15.795 -25.486  0.00  0.00    -0.023 C 
ATOM     21  C   UNL     1      34.411 -18.179 -25.090  0.00  0.00    -0.023 C 
ENDBRANCH  16  19
ENDBRANCH  15  16
ENDBRANCH  12  15
ENDBRANCH   1  12
TORSDOF 7
ENDMDL
MODEL 9
REMARK VINA RESULT:      -7.7      2.340      4.108
REMARK  Name = 71955
REMARK  7 active torsions:
REMARK  status: ('A' for Active; 'I' for Inactive)
REMARK    1  A    between atoms: C_1  and  O_2
REMARK    2  A    between atoms: C_1  and  C_12
REMARK    3  A    between atoms: O_2  and  C_5
REMARK    4  A    between atoms: C_12  and  O_13
REMARK    5  A    between atoms: C_12  and  C_15
REMARK    6  A    between atoms: C_15  and  N_16
REMARK    7  A    between atoms: N_16  and  C_19
REMARK                            x       y       z     vdW  Elec       q    Type
REMARK                         _______ _______ _______ _____ _____    ______ ____
ROOT
ATOM      1  C   UNL     1      33.917 -13.927 -23.634  0.00  0.00    +0.232 C 
ENDROOT
BRANCH   1   2
ATOM      2  O   UNL     1      34.826 -14.882 -23.086  0.00  0.00    -0.473 OA
BRANCH   2   5
ATOM      3  C   UNL     1      34.881 -17.246 -22.711  0.00  0.00    +0.016 C 
ATOM      4  C   UNL     1      34.796 -18.555 -23.205  0.00  0.00    -0.001 C 
ATOM      5  C   UNL     1      34.746 -16.155 -23.551  0.00  0.00    +0.135 C 
ATOM      6  C   UNL     1      34.978 -19.529 -22.082  0.00  0.00    -0.004 C 
ATOM      7  C   UNL     1      35.117 -17.295 -21.279  0.00  0.00    +0.055 C 
ATOM      8  C   UNL     1      35.173 -18.587 -20.917  0.00  0.00    -0.021 C 
ATOM      9  C   UNL     1      34.574 -18.805 -24.547  0.00  0.00    -0.000 C 
ATOM     10  C   UNL     1      34.521 -16.396 -24.909  0.00  0.00    +0.037 C 
ATOM     11  C   UNL     1      34.435 -17.709 -25.403  0.00  0.00    +0.003 C 
ENDBRANCH   2   5
ENDBRANCH   1   2
BRANCH   1  12
ATOM     12  C   UNL     1      32.793 -13.683 -22.630  0.00  0.00    +0.133 C 
BRANCH  12  13
ATOM     13  O   UNL     1      33.258 -14.042 -21.326  0.00  0.00    -0.383 OA
ATOM     14  H   UNL     1      32.744 -13.562 -20.657  0.00  0.00    +0.210 HD
ENDBRANCH  12  13
BRANCH  12  15
ATOM     15  C   UNL     1      32.328 -12.225 -22.587  0.00  0.00    -0.048 C 
BRANCH  15  16
ATOM     16  N   UNL     1      31.047 -12.078 -21.910  0.00  0.00    +0.387 N 
ATOM     17  H   UNL     1      30.855 -12.923 -21.371  0.00  0.00    -0.084 HD
ATOM     18  H   UNL     1      30.322 -11.931 -22.612  0.00  0.00    -0.084 HD
BRANCH  16  19
ATOM     19  C   UNL     1      31.060 -10.933 -21.010  0.00  0.00    -0.062 C 
ATOM     20  C   UNL     1      31.892  -9.801 -21.606  0.00  0.00    -0.023 C 
ATOM     21  C   UNL     1      31.611 -11.361 -19.654  0.00  0.00    -0.023 C 
ENDBRANCH  16  19
ENDBRANCH  15  16
ENDBRANCH  12  15
ENDBRANCH   1  12
TORSDOF 7
ENDMDL
