MODEL 1
REMARK VINA RESULT:     -12.4      0.000      0.000
REMARK  Name = 11610526
REMARK  3 active torsions:
REMARK  status: ('A' for Active; 'I' for Inactive)
REMARK    1  A    between atoms: C_2  and  C_21
REMARK    2  A    between atoms: C_9  and  C_14
REMARK    3  A    between atoms: C_21  and  C_23
REMARK                            x       y       z     vdW  Elec       q    Type
REMARK                         _______ _______ _______ _____ _____    ______ ____
ROOT
ATOM      1  N   UNL     1      34.521 -15.184 -22.412  0.00  0.00    -0.388 NA
ATOM      2  C   UNL     1      34.614 -16.505 -22.584  0.00  0.00    +0.167 C 
ATOM      3  C   UNL     1      34.442 -17.193 -23.753  0.00  0.00    +0.031 C 
ATOM      4  C   UNL     1      34.225 -14.483 -23.528  0.00  0.00    +0.167 C 
ATOM      5  C   UNL     1      34.139 -16.438 -24.881  0.00  0.00    -0.015 C 
ATOM      6  C   UNL     1      34.027 -15.055 -24.774  0.00  0.00    +0.101 C 
ATOM      7  O   UNL     1      33.597 -12.440 -25.631  0.00  0.00    -0.270 OA
ATOM      8  N   UNL     1      34.111 -13.091 -23.432  0.00  0.00    -0.259 N 
ATOM      9  C   UNL     1      33.814 -12.182 -24.451  0.00  0.00    +0.255 C 
ATOM     10  H   UNL     1      34.255 -12.706 -22.538  0.00  0.00    +0.157 HD
ENDROOT
BRANCH   9  14
ATOM     11  F   UNL     1      31.816 -11.145 -22.779  0.00  0.00    -0.204 F 
ATOM     12  F   UNL     1      35.763 -10.352 -25.299  0.00  0.00    -0.204 F 
ATOM     13  F   UNL     1      33.723  -6.817 -22.907  0.00  0.00    -0.204 F 
ATOM     14  C   UNL     1      33.790 -10.754 -24.040  0.00  0.00    +0.109 C 
ATOM     15  C   UNL     1      32.774 -10.316 -23.215  0.00  0.00    +0.149 C 
ATOM     16  C   UNL     1      34.783  -9.913 -24.497  0.00  0.00    +0.149 C 
ATOM     17  C   UNL     1      32.752  -8.975 -22.829  0.00  0.00    +0.060 C 
ATOM     18  C   UNL     1      34.759  -8.572 -24.111  0.00  0.00    +0.060 C 
ATOM     19  C   UNL     1      33.744  -8.103 -23.277  0.00  0.00    +0.145 C 
ENDBRANCH   9  14
BRANCH   2  21
ATOM     20  O   UNL     1      35.363 -16.672 -20.354  0.00  0.00    -0.289 OA
ATOM     21  C   UNL     1      34.940 -17.264 -21.344  0.00  0.00    +0.202 C 
BRANCH  21  23
ATOM     22  N   UNL     1      34.335 -21.165 -19.732  0.00  0.00    +0.386 N 
ATOM     23  C   UNL     1      34.744 -18.748 -21.326  0.00  0.00    +0.060 C 
ATOM     24  C   UNL     1      33.399 -19.080 -20.678  0.00  0.00    -0.015 C 
ATOM     25  C   UNL     1      35.882 -19.423 -20.563  0.00  0.00    -0.015 C 
ATOM     26  C   UNL     1      33.226 -20.590 -20.504  0.00  0.00    -0.077 C 
ATOM     27  C   UNL     1      35.624 -20.921 -20.393  0.00  0.00    -0.077 C 
ATOM     28  C   UNL     1      34.127 -22.599 -19.529  0.00  0.00    -0.101 C 
ATOM     29  H   UNL     1      34.357 -20.706 -18.821  0.00  0.00    -0.080 HD
ENDBRANCH  21  23
ENDBRANCH   2  21
TORSDOF 3
ENDMDL
MODEL 2
REMARK VINA RESULT:     -12.3      0.019      1.593
REMARK  Name = 11610526
REMARK  3 active torsions:
REMARK  status: ('A' for Active; 'I' for Inactive)
REMARK    1  A    between atoms: C_2  and  C_21
REMARK    2  A    between atoms: C_9  and  C_14
REMARK    3  A    between atoms: C_21  and  C_23
REMARK                            x       y       z     vdW  Elec       q    Type
REMARK                         _______ _______ _______ _____ _____    ______ ____
ROOT
ATOM      1  N   UNL     1      34.512 -15.168 -22.408  0.00  0.00    -0.388 NA
ATOM      2  C   UNL     1      34.606 -16.490 -22.578  0.00  0.00    +0.167 C 
ATOM      3  C   UNL     1      34.446 -17.179 -23.748  0.00  0.00    +0.031 C 
ATOM      4  C   UNL     1      34.226 -14.468 -23.527  0.00  0.00    +0.167 C 
ATOM      5  C   UNL     1      34.152 -16.424 -24.879  0.00  0.00    -0.015 C 
ATOM      6  C   UNL     1      34.039 -15.042 -24.775  0.00  0.00    +0.101 C 
ATOM      7  O   UNL     1      33.617 -12.427 -25.638  0.00  0.00    -0.270 OA
ATOM      8  N   UNL     1      34.110 -13.076 -23.433  0.00  0.00    -0.259 N 
ATOM      9  C   UNL     1      33.822 -12.168 -24.456  0.00  0.00    +0.255 C 
ATOM     10  H   UNL     1      34.247 -12.690 -22.538  0.00  0.00    +0.157 HD
ENDROOT
BRANCH   9  14
ATOM     11  F   UNL     1      35.766 -10.334 -25.306  0.00  0.00    -0.204 F 
ATOM     12  F   UNL     1      31.822 -11.134 -22.784  0.00  0.00    -0.204 F 
ATOM     13  F   UNL     1      33.717  -6.802 -22.915  0.00  0.00    -0.204 F 
ATOM     14  C   UNL     1      33.794 -10.740 -24.046  0.00  0.00    +0.109 C 
ATOM     15  C   UNL     1      34.785  -9.896 -24.504  0.00  0.00    +0.149 C 
ATOM     16  C   UNL     1      32.779 -10.304 -23.221  0.00  0.00    +0.149 C 
ATOM     17  C   UNL     1      34.759  -8.556 -24.118  0.00  0.00    +0.060 C 
ATOM     18  C   UNL     1      32.753  -8.963 -22.836  0.00  0.00    +0.060 C 
ATOM     19  C   UNL     1      33.743  -8.089 -23.284  0.00  0.00    +0.145 C 
ENDBRANCH   9  14
BRANCH   2  21
ATOM     20  O   UNL     1      35.326 -16.654 -20.338  0.00  0.00    -0.289 OA
ATOM     21  C   UNL     1      34.921 -17.247 -21.334  0.00  0.00    +0.202 C 
BRANCH  21  23
ATOM     22  N   UNL     1      34.344 -21.158 -19.734  0.00  0.00    +0.386 N 
ATOM     23  C   UNL     1      34.737 -18.733 -21.321  0.00  0.00    +0.060 C 
ATOM     24  C   UNL     1      33.394 -19.077 -20.678  0.00  0.00    -0.015 C 
ATOM     25  C   UNL     1      35.879 -19.400 -20.556  0.00  0.00    -0.015 C 
ATOM     26  C   UNL     1      33.232 -20.589 -20.508  0.00  0.00    -0.077 C 
ATOM     27  C   UNL     1      35.633 -20.901 -20.391  0.00  0.00    -0.077 C 
ATOM     28  C   UNL     1      34.147 -22.593 -19.536  0.00  0.00    -0.101 C 
ATOM     29  H   UNL     1      34.360 -20.700 -18.822  0.00  0.00    -0.080 HD
ENDBRANCH  21  23
ENDBRANCH   2  21
TORSDOF 3
ENDMDL
MODEL 3
REMARK VINA RESULT:     -12.0      1.508      2.045
REMARK  Name = 11610526
REMARK  3 active torsions:
REMARK  status: ('A' for Active; 'I' for Inactive)
REMARK    1  A    between atoms: C_2  and  C_21
REMARK    2  A    between atoms: C_9  and  C_14
REMARK    3  A    between atoms: C_21  and  C_23
REMARK                            x       y       z     vdW  Elec       q    Type
REMARK                         _______ _______ _______ _____ _____    ______ ____
ROOT
ATOM      1  N   UNL     1      35.208 -16.708 -22.627  0.00  0.00    -0.388 NA
ATOM      2  C   UNL     1      35.552 -17.965 -22.919  0.00  0.00    +0.167 C 
ATOM      3  C   UNL     1      35.268 -18.646 -24.071  0.00  0.00    +0.031 C 
ATOM      4  C   UNL     1      34.504 -16.071 -23.589  0.00  0.00    +0.167 C 
ATOM      5  C   UNL     1      34.542 -17.958 -25.037  0.00  0.00    -0.015 C 
ATOM      6  C   UNL     1      34.149 -16.645 -24.799  0.00  0.00    +0.101 C 
ATOM      7  O   UNL     1      32.948 -14.188 -25.327  0.00  0.00    -0.270 OA
ATOM      8  N   UNL     1      34.104 -14.749 -23.359  0.00  0.00    -0.259 N 
ATOM      9  C   UNL     1      33.375 -13.913 -24.210  0.00  0.00    +0.255 C 
ATOM     10  H   UNL     1      34.366 -14.362 -22.493  0.00  0.00    +0.157 HD
ENDROOT
BRANCH   9  14
ATOM     11  F   UNL     1      31.699 -13.428 -22.015  0.00  0.00    -0.204 F 
ATOM     12  F   UNL     1      34.554 -11.646 -25.367  0.00  0.00    -0.204 F 
ATOM     13  F   UNL     1      32.445  -8.763 -22.266  0.00  0.00    -0.204 F 
ATOM     14  C   UNL     1      33.128 -12.542 -23.693  0.00  0.00    +0.109 C 
ATOM     15  C   UNL     1      32.290 -12.381 -22.608  0.00  0.00    +0.149 C 
ATOM     16  C   UNL     1      33.743 -11.476 -24.313  0.00  0.00    +0.149 C 
ATOM     17  C   UNL     1      32.058 -11.094 -22.123  0.00  0.00    +0.060 C 
ATOM     18  C   UNL     1      33.510 -10.189 -23.827  0.00  0.00    +0.060 C 
ATOM     19  C   UNL     1      32.667  -9.998 -22.732  0.00  0.00    +0.145 C 
ENDBRANCH   9  14
BRANCH   2  21
ATOM     20  O   UNL     1      37.554 -18.676 -21.895  0.00  0.00    -0.289 OA
ATOM     21  C   UNL     1      36.327 -18.653 -21.849  0.00  0.00    +0.202 C 
BRANCH  21  23
ATOM     22  N   UNL     1      34.258 -21.713 -19.718  0.00  0.00    +0.386 N 
ATOM     23  C   UNL     1      35.588 -19.311 -20.725  0.00  0.00    +0.060 C 
ATOM     24  C   UNL     1      36.368 -20.536 -20.247  0.00  0.00    -0.015 C 
ATOM     25  C   UNL     1      34.187 -19.719 -21.180  0.00  0.00    -0.015 C 
ATOM     26  C   UNL     1      35.577 -21.324 -19.201  0.00  0.00    -0.077 C 
ATOM     27  C   UNL     1      33.470 -20.534 -20.103  0.00  0.00    -0.077 C 
ATOM     28  C   UNL     1      33.535 -22.510 -18.727  0.00  0.00    -0.101 C 
ATOM     29  H   UNL     1      34.401 -22.281 -20.553  0.00  0.00    -0.080 HD
ENDBRANCH  21  23
ENDBRANCH   2  21
TORSDOF 3
ENDMDL
MODEL 4
REMARK VINA RESULT:     -12.0      1.513      2.567
REMARK  Name = 11610526
REMARK  3 active torsions:
REMARK  status: ('A' for Active; 'I' for Inactive)
REMARK    1  A    between atoms: C_2  and  C_21
REMARK    2  A    between atoms: C_9  and  C_14
REMARK    3  A    between atoms: C_21  and  C_23
REMARK                            x       y       z     vdW  Elec       q    Type
REMARK                         _______ _______ _______ _____ _____    ______ ____
ROOT
ATOM      1  N   UNL     1      35.207 -16.716 -22.617  0.00  0.00    -0.388 NA
ATOM      2  C   UNL     1      35.555 -17.972 -22.909  0.00  0.00    +0.167 C 
ATOM      3  C   UNL     1      35.275 -18.653 -24.061  0.00  0.00    +0.031 C 
ATOM      4  C   UNL     1      34.504 -16.080 -23.580  0.00  0.00    +0.167 C 
ATOM      5  C   UNL     1      34.550 -17.966 -25.029  0.00  0.00    -0.015 C 
ATOM      6  C   UNL     1      34.154 -16.654 -24.791  0.00  0.00    +0.101 C 
ATOM      7  O   UNL     1      32.950 -14.199 -25.322  0.00  0.00    -0.270 OA
ATOM      8  N   UNL     1      34.102 -14.759 -23.351  0.00  0.00    -0.259 N 
ATOM      9  C   UNL     1      33.373 -13.924 -24.204  0.00  0.00    +0.255 C 
ATOM     10  H   UNL     1      34.361 -14.372 -22.485  0.00  0.00    +0.157 HD
ENDROOT
BRANCH   9  14
ATOM     11  F   UNL     1      34.544 -11.654 -25.361  0.00  0.00    -0.204 F 
ATOM     12  F   UNL     1      31.697 -13.443 -22.007  0.00  0.00    -0.204 F 
ATOM     13  F   UNL     1      32.429  -8.776 -22.259  0.00  0.00    -0.204 F 
ATOM     14  C   UNL     1      33.122 -12.554 -23.686  0.00  0.00    +0.109 C 
ATOM     15  C   UNL     1      33.734 -11.485 -24.308  0.00  0.00    +0.149 C 
ATOM     16  C   UNL     1      32.285 -12.396 -22.602  0.00  0.00    +0.149 C 
ATOM     17  C   UNL     1      33.497 -10.199 -23.821  0.00  0.00    +0.060 C 
ATOM     18  C   UNL     1      32.050 -11.109 -22.115  0.00  0.00    +0.060 C 
ATOM     19  C   UNL     1      32.656 -10.011 -22.725  0.00  0.00    +0.145 C 
ENDBRANCH   9  14
BRANCH   2  21
ATOM     20  O   UNL     1      37.556 -18.679 -21.879  0.00  0.00    -0.289 OA
ATOM     21  C   UNL     1      36.328 -18.659 -21.836  0.00  0.00    +0.202 C 
BRANCH  21  23
ATOM     22  N   UNL     1      34.257 -21.722 -19.712  0.00  0.00    +0.386 N 
ATOM     23  C   UNL     1      35.588 -19.319 -20.715  0.00  0.00    +0.060 C 
ATOM     24  C   UNL     1      36.368 -20.543 -20.237  0.00  0.00    -0.015 C 
ATOM     25  C   UNL     1      34.188 -19.726 -21.172  0.00  0.00    -0.015 C 
ATOM     26  C   UNL     1      35.575 -21.333 -19.193  0.00  0.00    -0.077 C 
ATOM     27  C   UNL     1      33.470 -20.542 -20.097  0.00  0.00    -0.077 C 
ATOM     28  C   UNL     1      33.534 -22.520 -18.723  0.00  0.00    -0.101 C 
ATOM     29  H   UNL     1      34.402 -22.289 -20.548  0.00  0.00    -0.080 HD
ENDBRANCH  21  23
ENDBRANCH   2  21
TORSDOF 3
ENDMDL
MODEL 5
REMARK VINA RESULT:     -11.5      4.728      7.510
REMARK  Name = 11610526
REMARK  3 active torsions:
REMARK  status: ('A' for Active; 'I' for Inactive)
REMARK    1  A    between atoms: C_2  and  C_21
REMARK    2  A    between atoms: C_9  and  C_14
REMARK    3  A    between atoms: C_21  and  C_23
REMARK                            x       y       z     vdW  Elec       q    Type
REMARK                         _______ _______ _______ _____ _____    ______ ____
ROOT
ATOM      1  N   UNL     1      34.401 -21.353 -19.815  0.00  0.00    -0.388 NA
ATOM      2  C   UNL     1      34.802 -22.107 -18.788  0.00  0.00    +0.167 C 
ATOM      3  C   UNL     1      36.030 -22.084 -18.185  0.00  0.00    +0.031 C 
ATOM      4  C   UNL     1      35.328 -20.491 -20.286  0.00  0.00    +0.167 C 
ATOM      5  C   UNL     1      36.957 -21.183 -18.697  0.00  0.00    -0.015 C 
ATOM      6  C   UNL     1      36.607 -20.367 -19.768  0.00  0.00    +0.101 C 
ATOM      7  O   UNL     1      36.943 -18.418 -21.729  0.00  0.00    -0.270 OA
ATOM      8  N   UNL     1      34.985 -19.664 -21.363  0.00  0.00    -0.259 N 
ATOM      9  C   UNL     1      35.783 -18.710 -22.000  0.00  0.00    +0.255 C 
ATOM     10  H   UNL     1      34.072 -19.769 -21.715  0.00  0.00    +0.157 HD
ENDROOT
BRANCH   9  14
ATOM     11  F   UNL     1      35.084 -19.943 -24.421  0.00  0.00    -0.204 F 
ATOM     12  F   UNL     1      35.155 -15.984 -21.797  0.00  0.00    -0.204 F 
ATOM     13  F   UNL     1      33.300 -15.915 -26.148  0.00  0.00    -0.204 F 
ATOM     14  C   UNL     1      35.122 -17.966 -23.104  0.00  0.00    +0.109 C 
ATOM     15  C   UNL     1      34.808 -18.640 -24.267  0.00  0.00    +0.149 C 
ATOM     16  C   UNL     1      34.844 -16.627 -22.931  0.00  0.00    +0.149 C 
ATOM     17  C   UNL     1      34.188 -17.941 -25.303  0.00  0.00    +0.060 C 
ATOM     18  C   UNL     1      34.225 -15.929 -23.968  0.00  0.00    +0.060 C 
ATOM     19  C   UNL     1      33.896 -16.586 -25.154  0.00  0.00    +0.145 C 
ENDBRANCH   9  14
BRANCH   2  21
ATOM     20  O   UNL     1      33.458 -24.038 -18.946  0.00  0.00    -0.289 OA
ATOM     21  C   UNL     1      33.770 -23.053 -18.281  0.00  0.00    +0.202 C 
BRANCH  21  23
ATOM     22  N   UNL     1      31.603 -23.841 -14.693  0.00  0.00    +0.386 N 
ATOM     23  C   UNL     1      33.124 -22.785 -16.957  0.00  0.00    +0.060 C 
ATOM     24  C   UNL     1      33.763 -23.670 -15.887  0.00  0.00    -0.015 C 
ATOM     25  C   UNL     1      31.622 -23.051 -17.038  0.00  0.00    -0.015 C 
ATOM     26  C   UNL     1      33.033 -23.537 -14.549  0.00  0.00    -0.077 C 
ATOM     27  C   UNL     1      30.964 -22.939 -15.661  0.00  0.00    -0.077 C 
ATOM     28  C   UNL     1      30.930 -23.761 -13.397  0.00  0.00    -0.101 C 
ATOM     29  H   UNL     1      31.518 -24.794 -15.048  0.00  0.00    -0.080 HD
ENDBRANCH  21  23
ENDBRANCH   2  21
TORSDOF 3
ENDMDL
MODEL 6
REMARK VINA RESULT:     -11.1      4.118      9.610
REMARK  Name = 11610526
REMARK  3 active torsions:
REMARK  status: ('A' for Active; 'I' for Inactive)
REMARK    1  A    between atoms: C_2  and  C_21
REMARK    2  A    between atoms: C_9  and  C_14
REMARK    3  A    between atoms: C_21  and  C_23
REMARK                            x       y       z     vdW  Elec       q    Type
REMARK                         _______ _______ _______ _____ _____    ______ ____
ROOT
ATOM      1  N   UNL     1      33.365 -15.387 -21.836  0.00  0.00    -0.388 NA
ATOM      2  C   UNL     1      33.109 -14.363 -22.655  0.00  0.00    +0.167 C 
ATOM      3  C   UNL     1      33.336 -14.316 -24.002  0.00  0.00    +0.031 C 
ATOM      4  C   UNL     1      33.906 -16.472 -22.431  0.00  0.00    +0.167 C 
ATOM      5  C   UNL     1      33.893 -15.452 -24.580  0.00  0.00    -0.015 C 
ATOM      6  C   UNL     1      34.186 -16.555 -23.785  0.00  0.00    +0.101 C 
ATOM      7  O   UNL     1      35.096 -19.119 -23.186  0.00  0.00    -0.270 OA
ATOM      8  N   UNL     1      34.203 -17.589 -21.641  0.00  0.00    -0.259 N 
ATOM      9  C   UNL     1      34.762 -18.804 -22.048  0.00  0.00    +0.255 C 
ATOM     10  H   UNL     1      33.996 -17.508 -20.682  0.00  0.00    +0.157 HD
ENDROOT
BRANCH   9  14
ATOM     11  F   UNL     1      37.267 -19.373 -20.922  0.00  0.00    -0.204 F 
ATOM     12  F   UNL     1      32.602 -20.265 -21.013  0.00  0.00    -0.204 F 
ATOM     13  F   UNL     1      35.408 -22.601 -18.005  0.00  0.00    -0.204 F 
ATOM     14  C   UNL     1      34.934 -19.815 -20.972  0.00  0.00    +0.109 C 
ATOM     15  C   UNL     1      36.198 -20.041 -20.466  0.00  0.00    +0.149 C 
ATOM     16  C   UNL     1      33.825 -20.494 -20.513  0.00  0.00    +0.149 C 
ATOM     17  C   UNL     1      36.358 -20.990 -19.457  0.00  0.00    +0.060 C 
ATOM     18  C   UNL     1      33.987 -21.443 -19.504  0.00  0.00    +0.060 C 
ATOM     19  C   UNL     1      35.253 -21.691 -18.975  0.00  0.00    +0.145 C 
ENDBRANCH   9  14
BRANCH   2  21
ATOM     20  O   UNL     1      32.256 -13.210 -20.782  0.00  0.00    -0.289 OA
ATOM     21  C   UNL     1      32.514 -13.174 -21.983  0.00  0.00    +0.202 C 
BRANCH  21  23
ATOM     22  N   UNL     1      32.578  -9.055 -23.082  0.00  0.00    +0.386 N 
ATOM     23  C   UNL     1      32.238 -11.944 -22.791  0.00  0.00    +0.060 C 
ATOM     24  C   UNL     1      33.559 -11.320 -23.241  0.00  0.00    -0.015 C 
ATOM     25  C   UNL     1      31.430 -10.942 -21.969  0.00  0.00    -0.015 C 
ATOM     26  C   UNL     1      33.328  -9.980 -23.942  0.00  0.00    -0.077 C 
ATOM     27  C   UNL     1      31.271  -9.615 -22.713  0.00  0.00    -0.077 C 
ATOM     28  C   UNL     1      32.412  -7.761 -23.745  0.00  0.00    -0.101 C 
ATOM     29  H   UNL     1      33.114  -8.916 -22.225  0.00  0.00    -0.080 HD
ENDBRANCH  21  23
ENDBRANCH   2  21
TORSDOF 3
ENDMDL
MODEL 7
REMARK VINA RESULT:     -11.1      4.125      9.502
REMARK  Name = 11610526
REMARK  3 active torsions:
REMARK  status: ('A' for Active; 'I' for Inactive)
REMARK    1  A    between atoms: C_2  and  C_21
REMARK    2  A    between atoms: C_9  and  C_14
REMARK    3  A    between atoms: C_21  and  C_23
REMARK                            x       y       z     vdW  Elec       q    Type
REMARK                         _______ _______ _______ _____ _____    ______ ____
ROOT
ATOM      1  N   UNL     1      33.371 -15.376 -21.784  0.00  0.00    -0.388 NA
ATOM      2  C   UNL     1      33.122 -14.343 -22.593  0.00  0.00    +0.167 C 
ATOM      3  C   UNL     1      33.370 -14.275 -23.936  0.00  0.00    +0.031 C 
ATOM      4  C   UNL     1      33.928 -16.450 -22.386  0.00  0.00    +0.167 C 
ATOM      5  C   UNL     1      33.943 -15.400 -24.520  0.00  0.00    -0.015 C 
ATOM      6  C   UNL     1      34.230 -16.512 -23.737  0.00  0.00    +0.101 C 
ATOM      7  O   UNL     1      35.145 -19.079 -23.159  0.00  0.00    -0.270 OA
ATOM      8  N   UNL     1      34.220 -17.576 -21.607  0.00  0.00    -0.259 N 
ATOM      9  C   UNL     1      34.792 -18.782 -22.022  0.00  0.00    +0.255 C 
ATOM     10  H   UNL     1      33.998 -17.509 -20.651  0.00  0.00    +0.157 HD
ENDROOT
BRANCH   9  14
ATOM     11  F   UNL     1      32.621 -20.251 -21.024  0.00  0.00    -0.204 F 
ATOM     12  F   UNL     1      37.287 -19.370 -20.882  0.00  0.00    -0.204 F 
ATOM     13  F   UNL     1      35.398 -22.630 -18.022  0.00  0.00    -0.204 F 
ATOM     14  C   UNL     1      34.953 -19.806 -20.958  0.00  0.00    +0.109 C 
ATOM     15  C   UNL     1      33.839 -20.490 -20.517  0.00  0.00    +0.149 C 
ATOM     16  C   UNL     1      36.212 -20.041 -20.445  0.00  0.00    +0.149 C 
ATOM     17  C   UNL     1      33.991 -21.451 -19.517  0.00  0.00    +0.060 C 
ATOM     18  C   UNL     1      36.363 -21.002 -19.445  0.00  0.00    +0.060 C 
ATOM     19  C   UNL     1      35.252 -21.707 -18.981  0.00  0.00    +0.145 C 
ENDBRANCH   9  14
BRANCH   2  21
ATOM     20  O   UNL     1      32.271 -13.207 -20.709  0.00  0.00    -0.289 OA
ATOM     21  C   UNL     1      32.510 -13.166 -21.914  0.00  0.00    +0.202 C 
BRANCH  21  23
ATOM     22  N   UNL     1      32.502  -9.054 -23.042  0.00  0.00    +0.386 N 
ATOM     23  C   UNL     1      32.195 -11.944 -22.719  0.00  0.00    +0.060 C 
ATOM     24  C   UNL     1      33.493 -11.314 -23.223  0.00  0.00    -0.015 C 
ATOM     25  C   UNL     1      31.411 -10.942 -21.874  0.00  0.00    -0.015 C 
ATOM     26  C   UNL     1      33.226  -9.980 -23.923  0.00  0.00    -0.077 C 
ATOM     27  C   UNL     1      31.214  -9.621 -22.620  0.00  0.00    -0.077 C 
ATOM     28  C   UNL     1      32.301  -7.767 -23.707  0.00  0.00    -0.101 C 
ATOM     29  H   UNL     1      33.069  -8.906 -22.207  0.00  0.00    -0.080 HD
ENDBRANCH  21  23
ENDBRANCH   2  21
TORSDOF 3
ENDMDL
MODEL 8
REMARK VINA RESULT:     -11.0      4.152      6.784
REMARK  Name = 11610526
REMARK  3 active torsions:
REMARK  status: ('A' for Active; 'I' for Inactive)
REMARK    1  A    between atoms: C_2  and  C_21
REMARK    2  A    between atoms: C_9  and  C_14
REMARK    3  A    between atoms: C_21  and  C_23
REMARK                            x       y       z     vdW  Elec       q    Type
REMARK                         _______ _______ _______ _____ _____    ______ ____
ROOT
ATOM      1  N   UNL     1      34.212 -20.716 -19.899  0.00  0.00    -0.388 NA
ATOM      2  C   UNL     1      34.636 -21.652 -19.046  0.00  0.00    +0.167 C 
ATOM      3  C   UNL     1      35.934 -22.003 -18.794  0.00  0.00    +0.031 C 
ATOM      4  C   UNL     1      35.191 -20.067 -20.568  0.00  0.00    +0.167 C 
ATOM      5  C   UNL     1      36.913 -21.313 -19.500  0.00  0.00    -0.015 C 
ATOM      6  C   UNL     1      36.543 -20.325 -20.406  0.00  0.00    +0.101 C 
ATOM      7  O   UNL     1      36.897 -18.323 -22.310  0.00  0.00    -0.270 OA
ATOM      8  N   UNL     1      34.829 -19.070 -21.482  0.00  0.00    -0.259 N 
ATOM      9  C   UNL     1      35.672 -18.284 -22.272  0.00  0.00    +0.255 C 
ATOM     10  H   UNL     1      33.864 -18.904 -21.580  0.00  0.00    +0.157 HD
ENDROOT
BRANCH   9  14
ATOM     11  F   UNL     1      35.051 -15.707 -21.355  0.00  0.00    -0.204 F 
ATOM     12  F   UNL     1      34.912 -18.852 -24.912  0.00  0.00    -0.204 F 
ATOM     13  F   UNL     1      33.089 -14.526 -25.495  0.00  0.00    -0.204 F 
ATOM     14  C   UNL     1      34.984 -17.284 -23.130  0.00  0.00    +0.109 C 
ATOM     15  C   UNL     1      34.712 -16.035 -22.610  0.00  0.00    +0.149 C 
ATOM     16  C   UNL     1      34.641 -17.636 -24.418  0.00  0.00    +0.149 C 
ATOM     17  C   UNL     1      34.066 -15.097 -23.415  0.00  0.00    +0.060 C 
ATOM     18  C   UNL     1      33.995 -16.697 -25.223  0.00  0.00    +0.060 C 
ATOM     19  C   UNL     1      33.707 -15.427 -24.722  0.00  0.00    +0.145 C 
ENDBRANCH   9  14
BRANCH   2  21
ATOM     20  O   UNL     1      32.379 -22.231 -18.684  0.00  0.00    -0.289 OA
ATOM     21  C   UNL     1      33.545 -22.358 -18.319  0.00  0.00    +0.202 C 
BRANCH  21  23
ATOM     22  N   UNL     1      34.189 -23.432 -14.242  0.00  0.00    +0.386 N 
ATOM     23  C   UNL     1      33.892 -23.219 -17.144  0.00  0.00    +0.060 C 
ATOM     24  C   UNL     1      32.689 -23.315 -16.206  0.00  0.00    -0.015 C 
ATOM     25  C   UNL     1      35.098 -22.642 -16.403  0.00  0.00    -0.015 C 
ATOM     26  C   UNL     1      33.047 -24.061 -14.919  0.00  0.00    -0.077 C 
ATOM     27  C   UNL     1      35.374 -23.411 -15.111  0.00  0.00    -0.077 C 
ATOM     28  C   UNL     1      34.485 -24.124 -12.988  0.00  0.00    -0.101 C 
ATOM     29  H   UNL     1      33.937 -22.466 -14.031  0.00  0.00    -0.080 HD
ENDBRANCH  21  23
ENDBRANCH   2  21
TORSDOF 3
ENDMDL
MODEL 9
REMARK VINA RESULT:     -10.7      3.914      8.688
REMARK  Name = 11610526
REMARK  3 active torsions:
REMARK  status: ('A' for Active; 'I' for Inactive)
REMARK    1  A    between atoms: C_2  and  C_21
REMARK    2  A    between atoms: C_9  and  C_14
REMARK    3  A    between atoms: C_21  and  C_23
REMARK                            x       y       z     vdW  Elec       q    Type
REMARK                         _______ _______ _______ _____ _____    ______ ____
ROOT
ATOM      1  N   UNL     1      33.987 -14.701 -23.430  0.00  0.00    -0.388 NA
ATOM      2  C   UNL     1      33.554 -13.841 -24.356  0.00  0.00    +0.167 C 
ATOM      3  C   UNL     1      33.223 -14.130 -25.651  0.00  0.00    +0.031 C 
ATOM      4  C   UNL     1      34.099 -15.981 -23.848  0.00  0.00    +0.167 C 
ATOM      5  C   UNL     1      33.351 -15.458 -26.044  0.00  0.00    -0.015 C 
ATOM      6  C   UNL     1      33.797 -16.407 -25.131  0.00  0.00    +0.101 C 
ATOM      7  O   UNL     1      34.538 -18.926 -24.200  0.00  0.00    -0.270 OA
ATOM      8  N   UNL     1      34.546 -16.944 -22.936  0.00  0.00    -0.259 N 
ATOM      9  C   UNL     1      34.734 -18.312 -23.156  0.00  0.00    +0.255 C 
ATOM     10  H   UNL     1      34.756 -16.619 -22.031  0.00  0.00    +0.157 HD
ENDROOT
BRANCH   9  14
ATOM     11  F   UNL     1      37.412 -18.307 -22.323  0.00  0.00    -0.204 F 
ATOM     12  F   UNL     1      32.983 -19.872 -21.616  0.00  0.00    -0.204 F 
ATOM     13  F   UNL     1      36.469 -21.221 -18.717  0.00  0.00    -0.204 F 
ATOM     14  C   UNL     1      35.196 -19.086 -21.974  0.00  0.00    +0.109 C 
ATOM     15  C   UNL     1      36.530 -19.035 -21.625  0.00  0.00    +0.149 C 
ATOM     16  C   UNL     1      34.277 -19.831 -21.266  0.00  0.00    +0.149 C 
ATOM     17  C   UNL     1      36.962 -19.762 -20.516  0.00  0.00    +0.060 C 
ATOM     18  C   UNL     1      34.711 -20.558 -20.157  0.00  0.00    +0.060 C 
ATOM     19  C   UNL     1      36.054 -20.524 -19.782  0.00  0.00    +0.145 C 
ENDBRANCH   9  14
BRANCH   2  21
ATOM     20  O   UNL     1      34.201 -11.573 -24.310  0.00  0.00    -0.289 OA
ATOM     21  C   UNL     1      33.437 -12.434 -23.880  0.00  0.00    +0.202 C 
BRANCH  21  23
ATOM     22  N   UNL     1      31.736 -10.941 -20.266  0.00  0.00    +0.386 N 
ATOM     23  C   UNL     1      32.381 -12.091 -22.876  0.00  0.00    +0.060 C 
ATOM     24  C   UNL     1      32.381 -10.583 -22.627  0.00  0.00    -0.015 C 
ATOM     25  C   UNL     1      32.627 -12.845 -21.570  0.00  0.00    -0.015 C 
ATOM     26  C   UNL     1      31.419 -10.207 -21.498  0.00  0.00    -0.077 C 
ATOM     27  C   UNL     1      31.657 -12.393 -20.478  0.00  0.00    -0.077 C 
ATOM     28  C   UNL     1      30.843 -10.532 -19.183  0.00  0.00    -0.101 C 
ATOM     29  H   UNL     1      32.696 -10.714 -20.002  0.00  0.00    -0.080 HD
ENDBRANCH  21  23
ENDBRANCH   2  21
TORSDOF 3
ENDMDL
