MODEL 1
REMARK VINA RESULT:      -9.5      0.000      0.000
REMARK  Name = 447950
REMARK  2 active torsions:
REMARK  status: ('A' for Active; 'I' for Inactive)
REMARK    1  A    between atoms: N_6  and  C_21
REMARK    2  A    between atoms: C_21  and  C_24
REMARK                            x       y       z     vdW  Elec       q    Type
REMARK                         _______ _______ _______ _____ _____    ______ ____
ROOT
ATOM      1  F   UNL     1      32.687 -13.679 -25.694  0.00  0.00    -0.204 F 
ATOM      2  O   UNL     1      35.833 -17.208 -20.325  0.00  0.00    -0.274 OA
ATOM      3  O   UNL     1      35.404 -14.248 -21.228  0.00  0.00    -0.274 OA
ATOM      4  O   UNL     1      31.360 -15.695 -19.593  0.00  0.00    -0.275 OA
ATOM      5  O   UNL     1      35.275 -19.256 -24.450  0.00  0.00    -0.270 OA
ATOM      6  N   UNL     1      35.446 -18.345 -22.313  0.00  0.00    -0.221 N 
ATOM      7  N   UNL     1      33.364 -14.715 -20.230  0.00  0.00    -0.255 N 
ATOM      8  C   UNL     1      34.166 -16.281 -21.791  0.00  0.00    +0.166 C 
ATOM      9  C   UNL     1      32.817 -16.761 -21.202  0.00  0.00    +0.107 C 
ATOM     10  C   UNL     1      34.041 -16.087 -23.290  0.00  0.00    +0.001 C 
ATOM     11  C   UNL     1      35.240 -17.299 -21.404  0.00  0.00    +0.244 C 
ATOM     12  C   UNL     1      34.419 -14.957 -21.072  0.00  0.00    +0.240 C 
ATOM     13  C   UNL     1      34.459 -17.087 -24.174  0.00  0.00    +0.051 C 
ATOM     14  C   UNL     1      32.395 -15.682 -20.242  0.00  0.00    +0.229 C 
ATOM     15  C   UNL     1      35.079 -18.328 -23.667  0.00  0.00    +0.255 C 
ATOM     16  C   UNL     1      33.428 -14.940 -23.831  0.00  0.00    +0.026 C 
ATOM     17  C   UNL     1      34.295 -16.931 -25.560  0.00  0.00    +0.007 C 
ATOM     18  C   UNL     1      33.268 -14.784 -25.209  0.00  0.00    +0.140 C 
ATOM     19  C   UNL     1      33.704 -15.779 -26.074  0.00  0.00    +0.030 C 
ATOM     20  H   UNL     1      33.309 -13.912 -19.663  0.00  0.00    +0.158 HD
ENDROOT
BRANCH   6  21
ATOM     21  C   UNL     1      36.098 -19.549 -21.810  0.00  0.00    +0.130 C 
BRANCH  21  24
ATOM     22 BR   UNL     1      32.407 -22.500 -17.842  0.00  0.00    -0.049 Br
ATOM     23  F   UNL     1      37.061 -21.432 -19.937  0.00  0.00    -0.204 F 
ATOM     24  C   UNL     1      35.200 -20.270 -20.844  0.00  0.00    +0.026 C 
ATOM     25  C   UNL     1      35.745 -21.183 -19.949  0.00  0.00    +0.138 C 
ATOM     26  C   UNL     1      33.836 -20.012 -20.856  0.00  0.00    +0.000 C 
ATOM     27  C   UNL     1      34.909 -21.849 -19.053  0.00  0.00    +0.036 C 
ATOM     28  C   UNL     1      33.000 -20.678 -19.960  0.00  0.00    +0.007 C 
ATOM     29  C   UNL     1      33.538 -21.597 -19.058  0.00  0.00    +0.037 C 
ENDBRANCH  21  24
ENDBRANCH   6  21
TORSDOF 2
ENDMDL
MODEL 2
REMARK VINA RESULT:      -9.0      5.177      9.058
REMARK  Name = 447950
REMARK  2 active torsions:
REMARK  status: ('A' for Active; 'I' for Inactive)
REMARK    1  A    between atoms: N_6  and  C_21
REMARK    2  A    between atoms: C_21  and  C_24
REMARK                            x       y       z     vdW  Elec       q    Type
REMARK                         _______ _______ _______ _____ _____    ______ ____
ROOT
ATOM      1  F   UNL     1      31.263 -23.223 -12.719  0.00  0.00    -0.204 F 
ATOM      2  O   UNL     1      36.627 -22.475 -17.393  0.00  0.00    -0.274 OA
ATOM      3  O   UNL     1      36.030 -21.778 -14.407  0.00  0.00    -0.274 OA
ATOM      4  O   UNL     1      36.753 -26.314 -14.552  0.00  0.00    -0.275 OA
ATOM      5  O   UNL     1      32.250 -22.789 -18.898  0.00  0.00    -0.270 OA
ATOM      6  N   UNL     1      34.479 -22.782 -18.222  0.00  0.00    -0.221 N 
ATOM      7  N   UNL     1      36.595 -24.020 -14.242  0.00  0.00    -0.255 N 
ATOM      8  C   UNL     1      35.019 -23.441 -15.888  0.00  0.00    +0.166 C 
ATOM      9  C   UNL     1      35.303 -24.963 -15.936  0.00  0.00    +0.107 C 
ATOM     10  C   UNL     1      33.555 -23.194 -15.575  0.00  0.00    +0.001 C 
ATOM     11  C   UNL     1      35.459 -22.835 -17.221  0.00  0.00    +0.244 C 
ATOM     12  C   UNL     1      35.925 -22.944 -14.764  0.00  0.00    +0.240 C 
ATOM     13  C   UNL     1      32.642 -22.934 -16.602  0.00  0.00    +0.051 C 
ATOM     14  C   UNL     1      36.299 -25.217 -14.838  0.00  0.00    +0.229 C 
ATOM     15  C   UNL     1      33.094 -22.844 -18.005  0.00  0.00    +0.255 C 
ATOM     16  C   UNL     1      33.059 -23.301 -14.261  0.00  0.00    +0.026 C 
ATOM     17  C   UNL     1      31.278 -22.758 -16.319  0.00  0.00    +0.007 C 
ATOM     18  C   UNL     1      31.704 -23.121 -13.979  0.00  0.00    +0.140 C 
ATOM     19  C   UNL     1      30.813 -22.848 -15.009  0.00  0.00    +0.030 C 
ATOM     20  H   UNL     1      37.238 -23.939 -13.500  0.00  0.00    +0.158 HD
ENDROOT
BRANCH   6  21
ATOM     21  C   UNL     1      34.937 -22.649 -19.600  0.00  0.00    +0.130 C 
BRANCH  21  24
ATOM     22 BR   UNL     1      34.639 -16.762 -21.424  0.00  0.00    -0.049 Br
ATOM     23  F   UNL     1      37.236 -21.075 -20.065  0.00  0.00    -0.204 F 
ATOM     24  C   UNL     1      34.866 -21.214 -20.043  0.00  0.00    +0.026 C 
ATOM     25  C   UNL     1      36.040 -20.501 -20.253  0.00  0.00    +0.138 C 
ATOM     26  C   UNL     1      33.626 -20.620 -20.239  0.00  0.00    +0.000 C 
ATOM     27  C   UNL     1      35.971 -19.170 -20.666  0.00  0.00    +0.036 C 
ATOM     28  C   UNL     1      33.558 -19.289 -20.651  0.00  0.00    +0.007 C 
ATOM     29  C   UNL     1      34.731 -18.564 -20.864  0.00  0.00    +0.037 C 
ENDBRANCH  21  24
ENDBRANCH   6  21
TORSDOF 2
ENDMDL
MODEL 3
REMARK VINA RESULT:      -7.8      3.958      7.290
REMARK  Name = 447950
REMARK  2 active torsions:
REMARK  status: ('A' for Active; 'I' for Inactive)
REMARK    1  A    between atoms: N_6  and  C_21
REMARK    2  A    between atoms: C_21  and  C_24
REMARK                            x       y       z     vdW  Elec       q    Type
REMARK                         _______ _______ _______ _____ _____    ______ ____
ROOT
ATOM      1  F   UNL     1      35.315 -19.959 -22.164  0.00  0.00    -0.204 F 
ATOM      2  O   UNL     1      31.881 -13.732 -22.950  0.00  0.00    -0.274 OA
ATOM      3  O   UNL     1      31.741 -16.249 -21.104  0.00  0.00    -0.274 OA
ATOM      4  O   UNL     1      35.425 -13.859 -19.748  0.00  0.00    -0.275 OA
ATOM      5  O   UNL     1      34.053 -15.669 -26.563  0.00  0.00    -0.270 OA
ATOM      6  N   UNL     1      33.076 -14.566 -24.758  0.00  0.00    -0.221 N 
ATOM      7  N   UNL     1      33.484 -15.070 -20.129  0.00  0.00    -0.255 N 
ATOM      8  C   UNL     1      33.576 -15.367 -22.460  0.00  0.00    +0.166 C 
ATOM      9  C   UNL     1      34.792 -14.537 -21.981  0.00  0.00    +0.107 C 
ATOM     10  C   UNL     1      34.046 -16.656 -23.108  0.00  0.00    +0.001 C 
ATOM     11  C   UNL     1      32.745 -14.490 -23.399  0.00  0.00    +0.244 C 
ATOM     12  C   UNL     1      32.798 -15.636 -21.174  0.00  0.00    +0.240 C 
ATOM     13  C   UNL     1      34.162 -16.752 -24.498  0.00  0.00    +0.051 C 
ATOM     14  C   UNL     1      34.639 -14.430 -20.489  0.00  0.00    +0.229 C 
ATOM     15  C   UNL     1      33.778 -15.619 -25.365  0.00  0.00    +0.255 C 
ATOM     16  C   UNL     1      34.458 -17.757 -22.333  0.00  0.00    +0.026 C 
ATOM     17  C   UNL     1      34.647 -17.926 -25.097  0.00  0.00    +0.007 C 
ATOM     18  C   UNL     1      34.937 -18.925 -22.927  0.00  0.00    +0.140 C 
ATOM     19  C   UNL     1      35.030 -19.010 -24.311  0.00  0.00    +0.030 C 
ATOM     20  H   UNL     1      33.169 -15.119 -19.197  0.00  0.00    +0.158 HD
ENDROOT
BRANCH   6  21
ATOM     21  C   UNL     1      32.654 -13.462 -25.612  0.00  0.00    +0.130 C 
BRANCH  21  24
ATOM     22 BR   UNL     1      35.012  -8.132 -23.583  0.00  0.00    -0.049 Br
ATOM     23  F   UNL     1      34.748 -12.111 -26.944  0.00  0.00    -0.204 F 
ATOM     24  C   UNL     1      33.231 -12.164 -25.119  0.00  0.00    +0.026 C 
ATOM     25  C   UNL     1      34.260 -11.555 -25.826  0.00  0.00    +0.138 C 
ATOM     26  C   UNL     1      32.725 -11.588 -23.961  0.00  0.00    +0.000 C 
ATOM     27  C   UNL     1      34.792 -10.351 -25.366  0.00  0.00    +0.036 C 
ATOM     28  C   UNL     1      33.257 -10.384 -23.501  0.00  0.00    +0.007 C 
ATOM     29  C   UNL     1      34.291  -9.765 -24.204  0.00  0.00    +0.037 C 
ENDBRANCH  21  24
ENDBRANCH   6  21
TORSDOF 2
ENDMDL
MODEL 4
REMARK VINA RESULT:      -7.4      2.940      4.560
REMARK  Name = 447950
REMARK  2 active torsions:
REMARK  status: ('A' for Active; 'I' for Inactive)
REMARK    1  A    between atoms: N_6  and  C_21
REMARK    2  A    between atoms: C_21  and  C_24
REMARK                            x       y       z     vdW  Elec       q    Type
REMARK                         _______ _______ _______ _____ _____    ______ ____
ROOT
ATOM      1  F   UNL     1      30.440 -11.079 -21.281  0.00  0.00    -0.204 F 
ATOM      2  O   UNL     1      34.361 -15.822 -24.931  0.00  0.00    -0.274 OA
ATOM      3  O   UNL     1      31.646 -14.309 -25.253  0.00  0.00    -0.274 OA
ATOM      4  O   UNL     1      34.949 -11.213 -26.046  0.00  0.00    -0.275 OA
ATOM      5  O   UNL     1      34.744 -15.539 -20.316  0.00  0.00    -0.270 OA
ATOM      6  N   UNL     1      34.715 -15.627 -22.644  0.00  0.00    -0.221 N 
ATOM      7  N   UNL     1      33.154 -12.677 -25.915  0.00  0.00    -0.255 N 
ATOM      8  C   UNL     1      33.610 -13.786 -23.893  0.00  0.00    +0.166 C 
ATOM      9  C   UNL     1      34.726 -12.756 -24.198  0.00  0.00    +0.107 C 
ATOM     10  C   UNL     1      32.921 -13.435 -22.587  0.00  0.00    +0.001 C 
ATOM     11  C   UNL     1      34.241 -15.179 -23.884  0.00  0.00    +0.244 C 
ATOM     12  C   UNL     1      32.663 -13.650 -25.082  0.00  0.00    +0.240 C 
ATOM     13  C   UNL     1      33.289 -14.068 -21.396  0.00  0.00    +0.051 C 
ATOM     14  C   UNL     1      34.321 -12.102 -25.490  0.00  0.00    +0.229 C 
ATOM     15  C   UNL     1      34.319 -15.127 -21.394  0.00  0.00    +0.255 C 
ATOM     16  C   UNL     1      31.957 -12.410 -22.521  0.00  0.00    +0.026 C 
ATOM     17  C   UNL     1      32.689 -13.706 -20.179  0.00  0.00    +0.007 C 
ATOM     18  C   UNL     1      31.358 -12.054 -21.312  0.00  0.00    +0.140 C 
ATOM     19  C   UNL     1      31.723 -12.704 -20.140  0.00  0.00    +0.030 C 
ATOM     20  H   UNL     1      32.703 -12.414 -26.751  0.00  0.00    +0.158 HD
ENDROOT
BRANCH   6  21
ATOM     21  C   UNL     1      35.700 -16.703 -22.653  0.00  0.00    +0.130 C 
BRANCH  21  24
ATOM     22 BR   UNL     1      33.556 -21.612 -19.589  0.00  0.00    -0.049 Br
ATOM     23  F   UNL     1      37.395 -18.663 -21.528  0.00  0.00    -0.204 F 
ATOM     24  C   UNL     1      35.180 -17.900 -21.907  0.00  0.00    +0.026 C 
ATOM     25  C   UNL     1      36.073 -18.824 -21.380  0.00  0.00    +0.138 C 
ATOM     26  C   UNL     1      33.809 -18.066 -21.754  0.00  0.00    +0.000 C 
ATOM     27  C   UNL     1      35.587 -19.933 -20.688  0.00  0.00    +0.036 C 
ATOM     28  C   UNL     1      33.324 -19.176 -21.061  0.00  0.00    +0.007 C 
ATOM     29  C   UNL     1      34.213 -20.109 -20.528  0.00  0.00    +0.037 C 
ENDBRANCH  21  24
ENDBRANCH   6  21
TORSDOF 2
ENDMDL
MODEL 5
REMARK VINA RESULT:      -6.9      6.204      9.576
REMARK  Name = 447950
REMARK  2 active torsions:
REMARK  status: ('A' for Active; 'I' for Inactive)
REMARK    1  A    between atoms: N_6  and  C_21
REMARK    2  A    between atoms: C_21  and  C_24
REMARK                            x       y       z     vdW  Elec       q    Type
REMARK                         _______ _______ _______ _____ _____    ______ ____
ROOT
ATOM      1  F   UNL     1      32.253 -15.636 -26.845  0.00  0.00    -0.204 F 
ATOM      2  O   UNL     1      32.995 -10.352 -22.080  0.00  0.00    -0.274 OA
ATOM      3  O   UNL     1      30.883 -12.528 -22.829  0.00  0.00    -0.274 OA
ATOM      4  O   UNL     1      34.293 -14.730 -20.674  0.00  0.00    -0.275 OA
ATOM      5  O   UNL     1      35.235 -10.163 -26.138  0.00  0.00    -0.270 OA
ATOM      6  N   UNL     1      34.264 -10.268 -24.023  0.00  0.00    -0.221 N 
ATOM      7  N   UNL     1      32.378 -13.768 -21.564  0.00  0.00    -0.255 N 
ATOM      8  C   UNL     1      33.287 -12.424 -23.266  0.00  0.00    +0.166 C 
ATOM      9  C   UNL     1      34.420 -13.154 -22.504  0.00  0.00    +0.107 C 
ATOM     10  C   UNL     1      33.291 -12.835 -24.727  0.00  0.00    +0.001 C 
ATOM     11  C   UNL     1      33.475 -10.919 -23.065  0.00  0.00    +0.244 C 
ATOM     12  C   UNL     1      32.019 -12.890 -22.555  0.00  0.00    +0.240 C 
ATOM     13  C   UNL     1      33.919 -12.037 -25.688  0.00  0.00    +0.051 C 
ATOM     14  C   UNL     1      33.725 -13.990 -21.464  0.00  0.00    +0.229 C 
ATOM     15  C   UNL     1      34.544 -10.754 -25.310  0.00  0.00    +0.255 C 
ATOM     16  C   UNL     1      32.742 -14.063 -25.142  0.00  0.00    +0.026 C 
ATOM     17  C   UNL     1      33.970 -12.443 -27.032  0.00  0.00    +0.007 C 
ATOM     18  C   UNL     1      32.789 -14.465 -26.478  0.00  0.00    +0.140 C 
ATOM     19  C   UNL     1      33.402 -13.653 -27.424  0.00  0.00    +0.030 C 
ATOM     20  H   UNL     1      31.721 -14.201 -20.972  0.00  0.00    +0.158 HD
ENDROOT
BRANCH   6  21
ATOM     21  C   UNL     1      34.841  -8.981 -23.652  0.00  0.00    +0.130 C 
BRANCH  21  24
ATOM     22 BR   UNL     1      30.861  -4.416 -24.838  0.00  0.00    -0.049 Br
ATOM     23  F   UNL     1      35.306  -7.024 -25.636  0.00  0.00    -0.204 F 
ATOM     24  C   UNL     1      33.873  -7.867 -23.942  0.00  0.00    +0.026 C 
ATOM     25  C   UNL     1      34.168  -6.940 -24.933  0.00  0.00    +0.138 C 
ATOM     26  C   UNL     1      32.694  -7.781 -23.214  0.00  0.00    +0.000 C 
ATOM     27  C   UNL     1      33.268  -5.909 -25.201  0.00  0.00    +0.036 C 
ATOM     28  C   UNL     1      31.793  -6.749 -23.481  0.00  0.00    +0.007 C 
ATOM     29  C   UNL     1      32.081  -5.813 -24.475  0.00  0.00    +0.037 C 
ENDBRANCH  21  24
ENDBRANCH   6  21
TORSDOF 2
ENDMDL
MODEL 6
REMARK VINA RESULT:      -6.9      7.381     10.844
REMARK  Name = 447950
REMARK  2 active torsions:
REMARK  status: ('A' for Active; 'I' for Inactive)
REMARK    1  A    between atoms: N_6  and  C_21
REMARK    2  A    between atoms: C_21  and  C_24
REMARK                            x       y       z     vdW  Elec       q    Type
REMARK                         _______ _______ _______ _____ _____    ______ ____
ROOT
ATOM      1  F   UNL     1      32.548 -14.759 -24.226  0.00  0.00    -0.204 F 
ATOM      2  O   UNL     1      31.393  -8.067 -21.974  0.00  0.00    -0.274 OA
ATOM      3  O   UNL     1      29.711 -10.573 -22.781  0.00  0.00    -0.274 OA
ATOM      4  O   UNL     1      31.480 -11.488 -18.639  0.00  0.00    -0.275 OA
ATOM      5  O   UNL     1      35.299  -9.121 -24.244  0.00  0.00    -0.270 OA
ATOM      6  N   UNL     1      33.435  -8.558 -22.965  0.00  0.00    -0.221 N 
ATOM      7  N   UNL     1      30.311 -11.113 -20.607  0.00  0.00    -0.255 N 
ATOM      8  C   UNL     1      32.032 -10.385 -22.035  0.00  0.00    +0.166 C 
ATOM      9  C   UNL     1      32.598 -10.672 -20.622  0.00  0.00    +0.107 C 
ATOM     10  C   UNL     1      32.694 -11.292 -23.055  0.00  0.00    +0.001 C 
ATOM     11  C   UNL     1      32.232  -8.898 -22.332  0.00  0.00    +0.244 C 
ATOM     12  C   UNL     1      30.543 -10.693 -21.892  0.00  0.00    +0.240 C 
ATOM     13  C   UNL     1      33.770 -10.834 -23.822  0.00  0.00    +0.051 C 
ATOM     14  C   UNL     1      31.423 -11.145 -19.811  0.00  0.00    +0.229 C 
ATOM     15  C   UNL     1      34.249  -9.443 -23.690  0.00  0.00    +0.255 C 
ATOM     16  C   UNL     1      32.304 -12.637 -23.201  0.00  0.00    +0.026 C 
ATOM     17  C   UNL     1      34.418 -11.688 -24.729  0.00  0.00    +0.007 C 
ATOM     18  C   UNL     1      32.945 -13.485 -24.105  0.00  0.00    +0.140 C 
ATOM     19  C   UNL     1      34.002 -13.010 -24.871  0.00  0.00    +0.030 C 
ATOM     20  H   UNL     1      29.416 -11.370 -20.285  0.00  0.00    +0.158 HD
ENDROOT
BRANCH   6  21
ATOM     21  C   UNL     1      33.875  -7.172 -22.865  0.00  0.00    +0.130 C 
BRANCH  21  24
ATOM     22 BR   UNL     1      32.867  -4.184 -28.169  0.00  0.00    -0.049 Br
ATOM     23  F   UNL     1      31.440  -5.861 -23.442  0.00  0.00    -0.204 F 
ATOM     24  C   UNL     1      33.627  -6.444 -24.157  0.00  0.00    +0.026 C 
ATOM     25  C   UNL     1      32.404  -5.822 -24.371  0.00  0.00    +0.138 C 
ATOM     26  C   UNL     1      34.627  -6.403 -25.120  0.00  0.00    +0.000 C 
ATOM     27  C   UNL     1      32.177  -5.146 -25.571  0.00  0.00    +0.036 C 
ATOM     28  C   UNL     1      34.400  -5.728 -26.320  0.00  0.00    +0.007 C 
ATOM     29  C   UNL     1      33.174  -5.100 -26.545  0.00  0.00    +0.037 C 
ENDBRANCH  21  24
ENDBRANCH   6  21
TORSDOF 2
ENDMDL
