MODEL 1
REMARK VINA RESULT:      -8.1      0.000      0.000
REMARK  Name = 6604229
REMARK  3 active torsions:
REMARK  status: ('A' for Active; 'I' for Inactive)
REMARK    1  A    between atoms: C_7  and  C_18
REMARK    2  A    between atoms: C_11  and  S_19
REMARK    3  A    between atoms: S_19  and  N_22
REMARK                            x       y       z     vdW  Elec       q    Type
REMARK                         _______ _______ _______ _____ _____    ______ ____
ROOT
ATOM      1 CL   UNL     1      35.673 -22.308 -18.467  0.00  0.00    -0.081 Cl
ATOM      2  S   UNL     1      31.675 -23.795 -13.888  0.00  0.00    +0.063 S 
ATOM      3  O   UNL     1      32.135 -23.123 -12.688  0.00  0.00    -0.153 OA
ATOM      4  O   UNL     1      31.521 -25.235 -13.933  0.00  0.00    -0.153 OA
ATOM      5  N   UNL     1      30.240 -23.036 -14.403  0.00  0.00    -0.160 NA
ATOM      6  N   UNL     1      30.928 -22.884 -16.754  0.00  0.00    -0.318 N 
ATOM      7  C   UNL     1      29.853 -23.174 -15.823  0.00  0.00    +0.178 C 
ATOM      8  C   UNL     1      32.775 -23.370 -15.198  0.00  0.00    +0.136 C 
ATOM      9  C   UNL     1      32.273 -22.988 -16.449  0.00  0.00    +0.065 C 
ATOM     10  C   UNL     1      34.146 -23.430 -14.929  0.00  0.00    +0.042 C 
ATOM     11  C   UNL     1      35.055 -23.103 -15.930  0.00  0.00    +0.134 C 
ATOM     12  C   UNL     1      33.217 -22.662 -17.437  0.00  0.00    +0.028 C 
ATOM     13  C   UNL     1      34.591 -22.720 -17.185  0.00  0.00    +0.078 C 
ATOM     14  H   UNL     1      30.339 -22.038 -14.211  0.00  0.00    +0.151 HD
ATOM     15  H   UNL     1      30.684 -22.595 -17.663  0.00  0.00    +0.148 HD
ENDROOT
BRANCH   7  18
ATOM     16 CL   UNL     1      28.000 -24.437 -17.340  0.00  0.00    -0.094 Cl
ATOM     17 CL   UNL     1      28.602 -25.243 -14.608  0.00  0.00    -0.094 Cl
ATOM     18  C   UNL     1      29.267 -24.551 -16.101  0.00  0.00    +0.193 C 
ENDBRANCH   7  18
BRANCH  11  19
ATOM     19  S   UNL     1      36.763 -23.201 -15.556  0.00  0.00    +0.058 S 
ATOM     20  O   UNL     1      37.498 -22.529 -16.616  0.00  0.00    -0.153 OA
ATOM     21  O   UNL     1      36.951 -22.796 -14.172  0.00  0.00    -0.153 OA
BRANCH  19  22
ATOM     22  N   UNL     1      37.023 -24.884 -15.681  0.00  0.00    -0.203 NA
ATOM     23  H   UNL     1      37.319 -25.112 -16.630  0.00  0.00    +0.144 HD
ATOM     24  H   UNL     1      36.157 -25.378 -15.467  0.00  0.00    +0.144 HD
ENDBRANCH  19  22
ENDBRANCH  11  19
TORSDOF 3
ENDMDL
MODEL 2
REMARK VINA RESULT:      -8.1      3.646      5.918
REMARK  Name = 6604229
REMARK  3 active torsions:
REMARK  status: ('A' for Active; 'I' for Inactive)
REMARK    1  A    between atoms: C_7  and  C_18
REMARK    2  A    between atoms: C_11  and  S_19
REMARK    3  A    between atoms: S_19  and  N_22
REMARK                            x       y       z     vdW  Elec       q    Type
REMARK                         _______ _______ _______ _____ _____    ______ ____
ROOT
ATOM      1 CL   UNL     1      31.449 -23.252 -16.856  0.00  0.00    -0.081 Cl
ATOM      2  S   UNL     1      37.434 -23.053 -15.037  0.00  0.00    +0.063 S 
ATOM      3  O   UNL     1      38.019 -21.866 -15.631  0.00  0.00    -0.153 OA
ATOM      4  O   UNL     1      37.981 -24.370 -15.293  0.00  0.00    -0.153 OA
ATOM      5  N   UNL     1      37.292 -22.792 -13.360  0.00  0.00    -0.160 NA
ATOM      6  N   UNL     1      34.983 -23.613 -13.227  0.00  0.00    -0.318 N 
ATOM      7  C   UNL     1      36.298 -23.594 -12.615  0.00  0.00    +0.178 C 
ATOM      8  C   UNL     1      35.740 -23.116 -15.518  0.00  0.00    +0.136 C 
ATOM      9  C   UNL     1      34.745 -23.396 -14.573  0.00  0.00    +0.065 C 
ATOM     10  C   UNL     1      35.444 -22.874 -16.864  0.00  0.00    +0.042 C 
ATOM     11  C   UNL     1      34.122 -22.912 -17.293  0.00  0.00    +0.134 C 
ATOM     12  C   UNL     1      33.419 -23.424 -15.037  0.00  0.00    +0.028 C 
ATOM     13  C   UNL     1      33.108 -23.187 -16.380  0.00  0.00    +0.078 C 
ATOM     14  H   UNL     1      37.051 -21.809 -13.226  0.00  0.00    +0.151 HD
ATOM     15  H   UNL     1      34.208 -23.790 -12.646  0.00  0.00    +0.148 HD
ENDROOT
BRANCH   7  18
ATOM     16 CL   UNL     1      38.569 -25.026 -12.264  0.00  0.00    -0.094 Cl
ATOM     17 CL   UNL     1      36.271 -26.065 -13.720  0.00  0.00    -0.094 Cl
ATOM     18  C   UNL     1      36.797 -25.014 -12.389  0.00  0.00    +0.193 C 
ENDBRANCH   7  18
BRANCH  11  19
ATOM     19  S   UNL     1      33.796 -22.613 -18.987  0.00  0.00    +0.058 S 
ATOM     20  O   UNL     1      33.810 -23.890 -19.683  0.00  0.00    -0.153 OA
ATOM     21  O   UNL     1      32.632 -21.746 -19.082  0.00  0.00    -0.153 OA
BRANCH  19  22
ATOM     22  N   UNL     1      35.185 -21.724 -19.428  0.00  0.00    -0.203 NA
ATOM     23  H   UNL     1      36.010 -22.319 -19.346  0.00  0.00    +0.144 HD
ATOM     24  H   UNL     1      35.284 -20.919 -18.811  0.00  0.00    +0.144 HD
ENDBRANCH  19  22
ENDBRANCH  11  19
TORSDOF 3
ENDMDL
MODEL 3
REMARK VINA RESULT:      -8.0     12.339     13.984
REMARK  Name = 6604229
REMARK  3 active torsions:
REMARK  status: ('A' for Active; 'I' for Inactive)
REMARK    1  A    between atoms: C_7  and  C_18
REMARK    2  A    between atoms: C_11  and  S_19
REMARK    3  A    between atoms: S_19  and  N_22
REMARK                            x       y       z     vdW  Elec       q    Type
REMARK                         _______ _______ _______ _____ _____    ______ ____
ROOT
ATOM      1 CL   UNL     1      32.286 -15.735 -20.525  0.00  0.00    -0.081 Cl
ATOM      2  S   UNL     1      33.838 -11.069 -24.397  0.00  0.00    +0.063 S 
ATOM      3  O   UNL     1      33.885 -11.625 -25.735  0.00  0.00    -0.153 OA
ATOM      4  O   UNL     1      34.993 -10.420 -23.810  0.00  0.00    -0.153 OA
ATOM      5  N   UNL     1      32.478 -10.049 -24.294  0.00  0.00    -0.160 NA
ATOM      6  N   UNL     1      31.710 -10.957 -22.147  0.00  0.00    -0.318 N 
ATOM      7  C   UNL     1      31.919  -9.770 -22.954  0.00  0.00    +0.178 C 
ATOM      8  C   UNL     1      33.379 -12.362 -23.291  0.00  0.00    +0.136 C 
ATOM      9  C   UNL     1      32.400 -12.145 -22.314  0.00  0.00    +0.065 C 
ATOM     10  C   UNL     1      34.027 -13.593 -23.439  0.00  0.00    +0.042 C 
ATOM     11  C   UNL     1      33.699 -14.646 -22.591  0.00  0.00    +0.134 C 
ATOM     12  C   UNL     1      32.089 -13.229 -21.476  0.00  0.00    +0.028 C 
ATOM     13  C   UNL     1      32.731 -14.465 -21.609  0.00  0.00    +0.078 C 
ATOM     14  H   UNL     1      31.736 -10.477 -24.849  0.00  0.00    +0.151 HD
ATOM     15  H   UNL     1      31.031 -10.916 -21.435  0.00  0.00    +0.148 HD
ENDROOT
BRANCH   7  18
ATOM     16 CL   UNL     1      32.397  -8.812 -20.467  0.00  0.00    -0.094 Cl
ATOM     17 CL   UNL     1      32.500  -7.129 -22.840  0.00  0.00    -0.094 Cl
ATOM     18  C   UNL     1      32.776  -8.762 -22.201  0.00  0.00    +0.193 C 
ENDBRANCH   7  18
BRANCH  11  19
ATOM     19  S   UNL     1      34.541 -16.167 -22.803  0.00  0.00    +0.058 S 
ATOM     20  O   UNL     1      35.268 -16.457 -21.578  0.00  0.00    -0.153 OA
ATOM     21  O   UNL     1      33.599 -17.139 -23.336  0.00  0.00    -0.153 OA
BRANCH  19  22
ATOM     22  N   UNL     1      35.656 -15.749 -24.026  0.00  0.00    -0.203 NA
ATOM     23  H   UNL     1      36.422 -16.422 -24.032  0.00  0.00    +0.144 HD
ATOM     24  H   UNL     1      36.025 -14.816 -23.845  0.00  0.00    +0.144 HD
ENDBRANCH  19  22
ENDBRANCH  11  19
TORSDOF 3
ENDMDL
MODEL 4
REMARK VINA RESULT:      -7.8      2.544      2.927
REMARK  Name = 6604229
REMARK  3 active torsions:
REMARK  status: ('A' for Active; 'I' for Inactive)
REMARK    1  A    between atoms: C_7  and  C_18
REMARK    2  A    between atoms: C_11  and  S_19
REMARK    3  A    between atoms: S_19  and  N_22
REMARK                            x       y       z     vdW  Elec       q    Type
REMARK                         _______ _______ _______ _____ _____    ______ ____
ROOT
ATOM      1 CL   UNL     1      37.223 -25.115 -15.082  0.00  0.00    -0.081 Cl
ATOM      2  S   UNL     1      31.531 -23.329 -13.189  0.00  0.00    +0.063 S 
ATOM      3  O   UNL     1      31.720 -22.403 -12.090  0.00  0.00    -0.153 OA
ATOM      4  O   UNL     1      30.756 -24.543 -13.026  0.00  0.00    -0.153 OA
ATOM      5  N   UNL     1      30.965 -22.449 -14.533  0.00  0.00    -0.160 NA
ATOM      6  N   UNL     1      32.528 -23.480 -16.119  0.00  0.00    -0.318 N 
ATOM      7  C   UNL     1      31.171 -23.027 -15.878  0.00  0.00    +0.178 C 
ATOM      8  C   UNL     1      33.124 -23.828 -13.754  0.00  0.00    +0.136 C 
ATOM      9  C   UNL     1      33.414 -23.853 -15.124  0.00  0.00    +0.065 C 
ATOM     10  C   UNL     1      34.066 -24.185 -12.784  0.00  0.00    +0.042 C 
ATOM     11  C   UNL     1      35.338 -24.585 -13.179  0.00  0.00    +0.134 C 
ATOM     12  C   UNL     1      34.709 -24.258 -15.490  0.00  0.00    +0.028 C 
ATOM     13  C   UNL     1      35.661 -24.622 -14.532  0.00  0.00    +0.078 C 
ATOM     14  H   UNL     1      31.431 -21.541 -14.518  0.00  0.00    +0.151 HD
ATOM     15  H   UNL     1      32.839 -23.525 -17.052  0.00  0.00    +0.148 HD
ENDROOT
BRANCH   7  18
ATOM     16 CL   UNL     1      28.587 -23.734 -15.486  0.00  0.00    -0.094 Cl
ATOM     17 CL   UNL     1      30.765 -25.666 -15.435  0.00  0.00    -0.094 Cl
ATOM     18  C   UNL     1      30.181 -24.150 -16.151  0.00  0.00    +0.193 C 
ENDBRANCH   7  18
BRANCH  11  19
ATOM     19  S   UNL     1      36.485 -25.035 -11.934  0.00  0.00    +0.058 S 
ATOM     20  O   UNL     1      36.898 -26.408 -12.173  0.00  0.00    -0.153 OA
ATOM     21  O   UNL     1      37.483 -23.982 -11.831  0.00  0.00    -0.153 OA
BRANCH  19  22
ATOM     22  N   UNL     1      35.488 -24.988 -10.549  0.00  0.00    -0.203 NA
ATOM     23  H   UNL     1      34.834 -25.771 -10.574  0.00  0.00    +0.144 HD
ATOM     24  H   UNL     1      34.968 -24.111 -10.534  0.00  0.00    +0.144 HD
ENDBRANCH  19  22
ENDBRANCH  11  19
TORSDOF 3
ENDMDL
MODEL 5
REMARK VINA RESULT:      -7.4      9.359     11.151
REMARK  Name = 6604229
REMARK  3 active torsions:
REMARK  status: ('A' for Active; 'I' for Inactive)
REMARK    1  A    between atoms: C_7  and  C_18
REMARK    2  A    between atoms: C_11  and  S_19
REMARK    3  A    between atoms: S_19  and  N_22
REMARK                            x       y       z     vdW  Elec       q    Type
REMARK                         _______ _______ _______ _____ _____    ______ ____
ROOT
ATOM      1 CL   UNL     1      33.063 -13.133 -20.294  0.00  0.00    -0.081 Cl
ATOM      2  S   UNL     1      35.044 -17.913 -23.813  0.00  0.00    +0.063 S 
ATOM      3  O   UNL     1      35.695 -17.343 -24.977  0.00  0.00    -0.153 OA
ATOM      4  O   UNL     1      33.917 -18.815 -23.947  0.00  0.00    -0.153 OA
ATOM      5  N   UNL     1      36.242 -18.614 -22.826  0.00  0.00    -0.160 NA
ATOM      6  N   UNL     1      35.394 -17.621 -20.749  0.00  0.00    -0.318 N 
ATOM      7  C   UNL     1      35.936 -18.803 -21.392  0.00  0.00    +0.178 C 
ATOM      8  C   UNL     1      34.498 -16.583 -22.795  0.00  0.00    +0.136 C 
ATOM      9  C   UNL     1      34.725 -16.608 -21.413  0.00  0.00    +0.065 C 
ATOM     10  C   UNL     1      33.843 -15.519 -23.425  0.00  0.00    +0.042 C 
ATOM     11  C   UNL     1      33.394 -14.444 -22.665  0.00  0.00    +0.134 C 
ATOM     12  C   UNL     1      34.262 -15.506 -20.675  0.00  0.00    +0.028 C 
ATOM     13  C   UNL     1      33.603 -14.438 -21.289  0.00  0.00    +0.078 C 
ATOM     14  H   UNL     1      37.069 -18.019 -22.885  0.00  0.00    +0.151 HD
ATOM     15  H   UNL     1      35.508 -17.534 -19.775  0.00  0.00    +0.148 HD
ENDROOT
BRANCH   7  18
ATOM     16 CL   UNL     1      33.399 -19.436 -20.694  0.00  0.00    -0.094 Cl
ATOM     17 CL   UNL     1      35.685 -21.073 -19.940  0.00  0.00    -0.094 Cl
ATOM     18  C   UNL     1      35.013 -19.994 -21.180  0.00  0.00    +0.193 C 
ENDBRANCH   7  18
BRANCH  11  19
ATOM     19  S   UNL     1      32.570 -13.138 -23.491  0.00  0.00    +0.058 S 
ATOM     20  O   UNL     1      32.111 -13.634 -24.778  0.00  0.00    -0.153 OA
ATOM     21  O   UNL     1      31.624 -12.537 -22.564  0.00  0.00    -0.153 OA
BRANCH  19  22
ATOM     22  N   UNL     1      33.864 -12.052 -23.743  0.00  0.00    -0.203 NA
ATOM     23  H   UNL     1      34.015 -11.932 -24.745  0.00  0.00    +0.144 HD
ATOM     24  H   UNL     1      34.709 -12.426 -23.313  0.00  0.00    +0.144 HD
ENDBRANCH  19  22
ENDBRANCH  11  19
TORSDOF 3
ENDMDL
MODEL 6
REMARK VINA RESULT:      -7.2     13.983     15.253
REMARK  Name = 6604229
REMARK  3 active torsions:
REMARK  status: ('A' for Active; 'I' for Inactive)
REMARK    1  A    between atoms: C_7  and  C_18
REMARK    2  A    between atoms: C_11  and  S_19
REMARK    3  A    between atoms: S_19  and  N_22
REMARK                            x       y       z     vdW  Elec       q    Type
REMARK                         _______ _______ _______ _____ _____    ______ ____
ROOT
ATOM      1 CL   UNL     1      34.543  -7.508 -24.577  0.00  0.00    -0.081 Cl
ATOM      2  S   UNL     1      31.419 -11.911 -21.412  0.00  0.00    +0.063 S 
ATOM      3  O   UNL     1      30.028 -11.501 -21.375  0.00  0.00    -0.153 OA
ATOM      4  O   UNL     1      32.167 -12.145 -20.193  0.00  0.00    -0.153 OA
ATOM      5  N   UNL     1      31.547 -13.257 -22.447  0.00  0.00    -0.160 NA
ATOM      6  N   UNL     1      33.499 -12.392 -23.658  0.00  0.00    -0.318 N 
ATOM      7  C   UNL     1      32.867 -13.547 -23.048  0.00  0.00    +0.178 C 
ATOM      8  C   UNL     1      32.314 -10.695 -22.320  0.00  0.00    +0.136 C 
ATOM      9  C   UNL     1      33.236 -11.080 -23.302  0.00  0.00    +0.065 C 
ATOM     10  C   UNL     1      32.061  -9.353 -22.019  0.00  0.00    +0.042 C 
ATOM     11  C   UNL     1      32.742  -8.356 -22.709  0.00  0.00    +0.134 C 
ATOM     12  C   UNL     1      33.904 -10.049 -23.983  0.00  0.00    +0.028 C 
ATOM     13  C   UNL     1      33.664  -8.703 -23.691  0.00  0.00    +0.078 C 
ATOM     14  H   UNL     1      30.889 -13.114 -23.214  0.00  0.00    +0.151 HD
ATOM     15  H   UNL     1      34.158 -12.551 -24.371  0.00  0.00    +0.148 HD
ENDROOT
BRANCH   7  18
ATOM     16 CL   UNL     1      34.929 -15.290 -22.857  0.00  0.00    -0.094 Cl
ATOM     17 CL   UNL     1      32.864 -15.076 -20.815  0.00  0.00    -0.094 Cl
ATOM     18  C   UNL     1      33.802 -14.190 -22.035  0.00  0.00    +0.193 C 
ENDBRANCH   7  18
BRANCH  11  19
ATOM     19  S   UNL     1      32.403  -6.688 -22.295  0.00  0.00    +0.058 S 
ATOM     20  O   UNL     1      32.676  -6.509 -20.877  0.00  0.00    -0.153 OA
ATOM     21  O   UNL     1      33.055  -5.833 -23.274  0.00  0.00    -0.153 OA
BRANCH  19  22
ATOM     22  N   UNL     1      30.716  -6.632 -22.547  0.00  0.00    -0.203 NA
ATOM     23  H   UNL     1      30.428  -7.438 -23.102  0.00  0.00    +0.144 HD
ATOM     24  H   UNL     1      30.475  -5.774 -23.043  0.00  0.00    +0.144 HD
ENDBRANCH  19  22
ENDBRANCH  11  19
TORSDOF 3
ENDMDL
MODEL 7
REMARK VINA RESULT:      -7.1     13.472     14.729
REMARK  Name = 6604229
REMARK  3 active torsions:
REMARK  status: ('A' for Active; 'I' for Inactive)
REMARK    1  A    between atoms: C_7  and  C_18
REMARK    2  A    between atoms: C_11  and  S_19
REMARK    3  A    between atoms: S_19  and  N_22
REMARK                            x       y       z     vdW  Elec       q    Type
REMARK                         _______ _______ _______ _____ _____    ______ ____
ROOT
ATOM      1 CL   UNL     1      35.322  -9.128 -25.699  0.00  0.00    -0.081 Cl
ATOM      2  S   UNL     1      31.742 -12.165 -21.560  0.00  0.00    +0.063 S 
ATOM      3  O   UNL     1      30.450 -11.506 -21.552  0.00  0.00    -0.153 OA
ATOM      4  O   UNL     1      32.532 -12.289 -20.352  0.00  0.00    -0.153 OA
ATOM      5  N   UNL     1      31.555 -13.689 -22.297  0.00  0.00    -0.160 NA
ATOM      6  N   UNL     1      33.526 -13.455 -23.741  0.00  0.00    -0.318 N 
ATOM      7  C   UNL     1      32.753 -14.331 -22.879  0.00  0.00    +0.178 C 
ATOM      8  C   UNL     1      32.760 -11.339 -22.738  0.00  0.00    +0.136 C 
ATOM      9  C   UNL     1      33.521 -12.074 -23.656  0.00  0.00    +0.065 C 
ATOM     10  C   UNL     1      32.767  -9.941 -22.713  0.00  0.00    +0.042 C 
ATOM     11  C   UNL     1      33.553  -9.243 -23.623  0.00  0.00    +0.134 C 
ATOM     12  C   UNL     1      34.303 -11.339 -24.563  0.00  0.00    +0.028 C 
ATOM     13  C   UNL     1      34.322  -9.941 -24.548  0.00  0.00    +0.078 C 
ATOM     14  H   UNL     1      30.873 -13.581 -23.049  0.00  0.00    +0.151 HD
ATOM     15  H   UNL     1      34.090 -13.872 -24.432  0.00  0.00    +0.148 HD
ENDROOT
BRANCH   7  18
ATOM     16 CL   UNL     1      34.838 -16.019 -22.515  0.00  0.00    -0.094 Cl
ATOM     17 CL   UNL     1      32.650 -15.796 -20.606  0.00  0.00    -0.094 Cl
ATOM     18  C   UNL     1      33.640 -14.923 -21.794  0.00  0.00    +0.193 C 
ENDBRANCH   7  18
BRANCH  11  19
ATOM     19  S   UNL     1      33.541  -7.493 -23.551  0.00  0.00    +0.058 S 
ATOM     20  O   UNL     1      34.915  -7.026 -23.639  0.00  0.00    -0.153 OA
ATOM     21  O   UNL     1      32.545  -7.004 -24.491  0.00  0.00    -0.153 OA
BRANCH  19  22
ATOM     22  N   UNL     1      32.970  -7.242 -21.961  0.00  0.00    -0.203 NA
ATOM     23  H   UNL     1      33.742  -6.936 -21.368  0.00  0.00    +0.144 HD
ATOM     24  H   UNL     1      32.585  -8.112 -21.597  0.00  0.00    +0.144 HD
ENDBRANCH  19  22
ENDBRANCH  11  19
TORSDOF 3
ENDMDL
MODEL 8
REMARK VINA RESULT:      -6.9     10.814     12.361
REMARK  Name = 6604229
REMARK  3 active torsions:
REMARK  status: ('A' for Active; 'I' for Inactive)
REMARK    1  A    between atoms: C_7  and  C_18
REMARK    2  A    between atoms: C_11  and  S_19
REMARK    3  A    between atoms: S_19  and  N_22
REMARK                            x       y       z     vdW  Elec       q    Type
REMARK                         _______ _______ _______ _____ _____    ______ ____
ROOT
ATOM      1 CL   UNL     1      33.630 -12.800 -26.534  0.00  0.00    -0.081 Cl
ATOM      2  S   UNL     1      33.693 -15.151 -20.735  0.00  0.00    +0.063 S 
ATOM      3  O   UNL     1      32.621 -14.504 -20.002  0.00  0.00    -0.153 OA
ATOM      4  O   UNL     1      35.067 -15.077 -20.281  0.00  0.00    -0.153 OA
ATOM      5  N   UNL     1      33.249 -16.774 -21.000  0.00  0.00    -0.160 NA
ATOM      6  N   UNL     1      33.875 -16.766 -23.373  0.00  0.00    -0.318 N 
ATOM      7  C   UNL     1      33.892 -17.495 -22.118  0.00  0.00    +0.178 C 
ATOM      8  C   UNL     1      33.678 -14.520 -22.380  0.00  0.00    +0.136 C 
ATOM      9  C   UNL     1      33.783 -15.389 -23.473  0.00  0.00    +0.065 C 
ATOM     10  C   UNL     1      33.556 -13.135 -22.536  0.00  0.00    +0.042 C 
ATOM     11  C   UNL     1      33.539 -12.588 -23.814  0.00  0.00    +0.134 C 
ATOM     12  C   UNL     1      33.759 -14.806 -24.751  0.00  0.00    +0.028 C 
ATOM     13  C   UNL     1      33.641 -13.423 -24.923  0.00  0.00    +0.078 C 
ATOM     14  H   UNL     1      32.242 -16.788 -21.167  0.00  0.00    +0.151 HD
ATOM     15  H   UNL     1      33.932 -17.285 -24.207  0.00  0.00    +0.148 HD
ENDROOT
BRANCH   7  18
ATOM     16 CL   UNL     1      36.235 -18.257 -23.239  0.00  0.00    -0.094 Cl
ATOM     17 CL   UNL     1      35.291 -19.329 -20.702  0.00  0.00    -0.094 Cl
ATOM     18  C   UNL     1      35.314 -17.905 -21.762  0.00  0.00    +0.193 C 
ENDBRANCH   7  18
BRANCH  11  19
ATOM     19  S   UNL     1      33.395 -10.850 -23.965  0.00  0.00    +0.058 S 
ATOM     20  O   UNL     1      32.769 -10.556 -25.245  0.00  0.00    -0.153 OA
ATOM     21  O   UNL     1      32.815 -10.331 -22.736  0.00  0.00    -0.153 OA
BRANCH  19  22
ATOM     22  N   UNL     1      35.040 -10.397 -24.035  0.00  0.00    -0.203 NA
ATOM     23  H   UNL     1      35.616 -11.154 -23.667  0.00  0.00    +0.144 HD
ATOM     24  H   UNL     1      35.184  -9.557 -23.475  0.00  0.00    +0.144 HD
ENDBRANCH  19  22
ENDBRANCH  11  19
TORSDOF 3
ENDMDL
MODEL 9
REMARK VINA RESULT:      -6.6     14.159     15.382
REMARK  Name = 6604229
REMARK  3 active torsions:
REMARK  status: ('A' for Active; 'I' for Inactive)
REMARK    1  A    between atoms: C_7  and  C_18
REMARK    2  A    between atoms: C_11  and  S_19
REMARK    3  A    between atoms: S_19  and  N_22
REMARK                            x       y       z     vdW  Elec       q    Type
REMARK                         _______ _______ _______ _____ _____    ______ ____
ROOT
ATOM      1 CL   UNL     1      34.634 -12.171 -26.150  0.00  0.00    -0.081 Cl
ATOM      2  S   UNL     1      31.819  -9.976 -21.010  0.00  0.00    +0.063 S 
ATOM      3  O   UNL     1      32.318 -10.749 -19.889  0.00  0.00    -0.153 OA
ATOM      4  O   UNL     1      30.403  -9.918 -21.314  0.00  0.00    -0.153 OA
ATOM      5  N   UNL     1      32.458  -8.401 -20.894  0.00  0.00    -0.160 NA
ATOM      6  N   UNL     1      33.123  -8.283 -23.254  0.00  0.00    -0.318 N 
ATOM      7  C   UNL     1      32.528  -7.588 -22.127  0.00  0.00    +0.178 C 
ATOM      8  C   UNL     1      32.617 -10.562 -22.467  0.00  0.00    +0.136 C 
ATOM      9  C   UNL     1      33.148  -9.659 -23.397  0.00  0.00    +0.065 C 
ATOM     10  C   UNL     1      32.696 -11.948 -22.643  0.00  0.00    +0.042 C 
ATOM     11  C   UNL     1      33.317 -12.461 -23.776  0.00  0.00    +0.134 C 
ATOM     12  C   UNL     1      33.772 -10.209 -24.529  0.00  0.00    +0.028 C 
ATOM     13  C   UNL     1      33.855 -11.592 -24.721  0.00  0.00    +0.078 C 
ATOM     14  H   UNL     1      33.409  -8.486 -20.532  0.00  0.00    +0.151 HD
ATOM     15  H   UNL     1      33.536  -7.740 -23.963  0.00  0.00    +0.148 HD
ENDROOT
BRANCH   7  18
ATOM     16 CL   UNL     1      30.838  -7.334 -24.227  0.00  0.00    -0.094 Cl
ATOM     17 CL   UNL     1      31.075  -5.305 -22.151  0.00  0.00    -0.094 Cl
ATOM     18  C   UNL     1      31.158  -7.044 -22.504  0.00  0.00    +0.193 C 
ENDBRANCH   7  18
BRANCH  11  19
ATOM     19  S   UNL     1      33.385 -14.200 -23.963  0.00  0.00    +0.058 S 
ATOM     20  O   UNL     1      32.715 -14.549 -25.206  0.00  0.00    -0.153 OA
ATOM     21  O   UNL     1      34.754 -14.632 -23.730  0.00  0.00    -0.153 OA
BRANCH  19  22
ATOM     22  N   UNL     1      32.416 -14.702 -22.650  0.00  0.00    -0.203 NA
ATOM     23  H   UNL     1      31.657 -15.290 -22.994  0.00  0.00    +0.144 HD
ATOM     24  H   UNL     1      32.027 -13.883 -22.183  0.00  0.00    +0.144 HD
ENDBRANCH  19  22
ENDBRANCH  11  19
TORSDOF 3
ENDMDL
