MODEL 1
REMARK VINA RESULT:      -4.6      0.000      0.000
REMARK  Name = 23644529
REMARK  9 active torsions:
REMARK  status: ('A' for Active; 'I' for Inactive)
REMARK    1  A    between atoms: C_1  and  S_2
REMARK    2  A    between atoms: C_1  and  C_10
REMARK    3  A    between atoms: S_2  and  C_3
REMARK    4  A    between atoms: C_3  and  C_4
REMARK    5  A    between atoms: C_4  and  C_5
REMARK    6  A    between atoms: C_5  and  N_6
REMARK    7  A    between atoms: C_10  and  N_11
REMARK    8  A    between atoms: C_10  and  C_15
REMARK    9  A    between atoms: C_15  and  O_16
REMARK                            x       y       z     vdW  Elec       q    Type
REMARK                         _______ _______ _______ _____ _____    ______ ____
ROOT
ATOM      1  C   UNK     1      36.165 -18.298 -21.736  0.00  0.00    +0.038 C 
ENDROOT
BRANCH   1   2
ATOM      2  S   UNK     1      35.510 -19.802 -20.950  0.00  0.00    -0.142 S 
BRANCH   2   3
ATOM      3  C   UNK     1      33.766 -19.571 -21.363  0.00  0.00    +0.055 C 
BRANCH   3   4
ATOM      4  C   UNK     1      32.872 -20.266 -20.338  0.00  0.00    -0.012 C 
BRANCH   4   5
ATOM      5  C   UNK     1      33.652 -21.339 -19.576  0.00  0.00    -0.085 C 
BRANCH   5   6
ATOM      6  N   UNK     1      32.742 -22.172 -18.799  0.00  0.00    +0.380 N 
ATOM      7  H   UNK     1      32.870 -21.978 -17.805  0.00  0.00    -0.089 HD
ATOM      8  H   UNK     1      32.941 -23.155 -18.983  0.00  0.00    -0.089 HD
ATOM      9  H   UNK     1      31.779 -21.963 -19.065  0.00  0.00    -0.089 HD
ENDBRANCH   5   6
ENDBRANCH   4   5
ENDBRANCH   3   4
ENDBRANCH   2   3
ENDBRANCH   1   2
BRANCH   1  10
ATOM     10  C   UNK     1      35.067 -17.427 -22.366  0.00  0.00    -0.025 C 
BRANCH  10  11
ATOM     11  N   UNK     1      35.461 -17.087 -23.740  0.00  0.00    +0.384 N 
ATOM     12  H   UNK     1      35.798 -17.926 -24.214  0.00  0.00    -0.089 HD
ATOM     13  H   UNK     1      36.203 -16.388 -23.718  0.00  0.00    -0.089 HD
ATOM     14  H   UNK     1      34.655 -16.714 -24.242  0.00  0.00    -0.089 HD
ENDBRANCH  10  11
BRANCH  10  15
ATOM     15  C   UNK     1      34.777 -16.122 -21.610  0.00  0.00    +0.116 C 
BRANCH  15  16
ATOM     16  O   UNK     1      35.086 -16.254 -20.229  0.00  0.00    -0.384 OA
ATOM     17  H   UNK     1      35.835 -15.678 -20.009  0.00  0.00    +0.210 HD
ENDBRANCH  15  16
ENDBRANCH  10  15
ENDBRANCH   1  10
TORSDOF 9
ENDMDL
MODEL 2
REMARK VINA RESULT:      -4.6      2.391      2.598
REMARK  Name = 23644529
REMARK  9 active torsions:
REMARK  status: ('A' for Active; 'I' for Inactive)
REMARK    1  A    between atoms: C_1  and  S_2
REMARK    2  A    between atoms: C_1  and  C_10
REMARK    3  A    between atoms: S_2  and  C_3
REMARK    4  A    between atoms: C_3  and  C_4
REMARK    5  A    between atoms: C_4  and  C_5
REMARK    6  A    between atoms: C_5  and  N_6
REMARK    7  A    between atoms: C_10  and  N_11
REMARK    8  A    between atoms: C_10  and  C_15
REMARK    9  A    between atoms: C_15  and  O_16
REMARK                            x       y       z     vdW  Elec       q    Type
REMARK                         _______ _______ _______ _____ _____    ______ ____
ROOT
ATOM      1  C   UNK     1      34.737 -19.299 -23.111  0.00  0.00    +0.038 C 
ENDROOT
BRANCH   1   2
ATOM      2  S   UNK     1      34.493 -18.808 -21.376  0.00  0.00    -0.142 S 
BRANCH   2   3
ATOM      3  C   UNK     1      35.694 -19.927 -20.620  0.00  0.00    +0.055 C 
BRANCH   3   4
ATOM      4  C   UNK     1      34.985 -21.069 -19.895  0.00  0.00    -0.012 C 
BRANCH   4   5
ATOM      5  C   UNK     1      33.468 -20.877 -19.931  0.00  0.00    -0.085 C 
BRANCH   5   6
ATOM      6  N   UNK     1      32.807 -21.909 -19.141  0.00  0.00    +0.380 N 
ATOM      7  H   UNK     1      33.438 -22.702 -19.022  0.00  0.00    -0.089 HD
ATOM      8  H   UNK     1      31.962 -22.216 -19.623  0.00  0.00    -0.089 HD
ATOM      9  H   UNK     1      32.560 -21.531 -18.226  0.00  0.00    -0.089 HD
ENDBRANCH   5   6
ENDBRANCH   4   5
ENDBRANCH   3   4
ENDBRANCH   2   3
ENDBRANCH   1   2
BRANCH   1  10
ATOM     10  C   UNK     1      35.264 -18.152 -23.988  0.00  0.00    -0.025 C 
BRANCH  10  11
ATOM     11  N   UNK     1      35.600 -17.012 -23.125  0.00  0.00    +0.384 N 
ATOM     12  H   UNK     1      34.862 -16.881 -22.432  0.00  0.00    -0.089 HD
ATOM     13  H   UNK     1      35.686 -16.169 -23.693  0.00  0.00    -0.089 HD
ATOM     14  H   UNK     1      36.483 -17.194 -22.648  0.00  0.00    -0.089 HD
ENDBRANCH  10  11
BRANCH  10  15
ATOM     15  C   UNK     1      34.282 -17.670 -25.065  0.00  0.00    +0.116 C 
BRANCH  15  16
ATOM     16  O   UNK     1      34.863 -16.645 -25.862  0.00  0.00    -0.384 OA
ATOM     17  H   UNK     1      34.749 -16.863 -26.800  0.00  0.00    +0.210 HD
ENDBRANCH  15  16
ENDBRANCH  10  15
ENDBRANCH   1  10
TORSDOF 9
ENDMDL
MODEL 3
REMARK VINA RESULT:      -4.5     10.123     10.785
REMARK  Name = 23644529
REMARK  9 active torsions:
REMARK  status: ('A' for Active; 'I' for Inactive)
REMARK    1  A    between atoms: C_1  and  S_2
REMARK    2  A    between atoms: C_1  and  C_10
REMARK    3  A    between atoms: S_2  and  C_3
REMARK    4  A    between atoms: C_3  and  C_4
REMARK    5  A    between atoms: C_4  and  C_5
REMARK    6  A    between atoms: C_5  and  N_6
REMARK    7  A    between atoms: C_10  and  N_11
REMARK    8  A    between atoms: C_10  and  C_15
REMARK    9  A    between atoms: C_15  and  O_16
REMARK                            x       y       z     vdW  Elec       q    Type
REMARK                         _______ _______ _______ _____ _____    ______ ____
ROOT
ATOM      1  C   UNK     1      36.360 -23.214 -13.221  0.00  0.00    +0.038 C 
ENDROOT
BRANCH   1   2
ATOM      2  S   UNK     1      34.891 -24.019 -13.932  0.00  0.00    -0.142 S 
BRANCH   2   3
ATOM      3  C   UNK     1      35.737 -25.212 -14.992  0.00  0.00    +0.055 C 
BRANCH   3   4
ATOM      4  C   UNK     1      37.248 -24.998 -14.948  0.00  0.00    -0.012 C 
BRANCH   4   5
ATOM      5  C   UNK     1      37.961 -26.263 -14.465  0.00  0.00    -0.085 C 
BRANCH   5   6
ATOM      6  N   UNK     1      37.074 -27.055 -13.623  0.00  0.00    +0.380 N 
ATOM      7  H   UNK     1      36.147 -26.630 -13.611  0.00  0.00    -0.089 HD
ATOM      8  H   UNK     1      37.446 -27.088 -12.674  0.00  0.00    -0.089 HD
ATOM      9  H   UNK     1      37.008 -28.003 -13.996  0.00  0.00    -0.089 HD
ENDBRANCH   5   6
ENDBRANCH   4   5
ENDBRANCH   3   4
ENDBRANCH   2   3
ENDBRANCH   1   2
BRANCH   1  10
ATOM     10  C   UNK     1      36.535 -23.507 -11.723  0.00  0.00    -0.025 C 
BRANCH  10  11
ATOM     11  N   UNK     1      37.944 -23.837 -11.466  0.00  0.00    +0.384 N 
ATOM     12  H   UNK     1      38.090 -23.944 -10.462  0.00  0.00    -0.089 HD
ATOM     13  H   UNK     1      38.539 -23.087 -11.818  0.00  0.00    -0.089 HD
ATOM     14  H   UNK     1      38.180 -24.710 -11.938  0.00  0.00    -0.089 HD
ENDBRANCH  10  11
BRANCH  10  15
ATOM     15  C   UNK     1      35.665 -24.654 -11.191  0.00  0.00    +0.116 C 
BRANCH  15  16
ATOM     16  O   UNK     1      35.420 -24.503  -9.799  0.00  0.00    -0.384 OA
ATOM     17  H   UNK     1      36.100 -24.980  -9.298  0.00  0.00    +0.210 HD
ENDBRANCH  15  16
ENDBRANCH  10  15
ENDBRANCH   1  10
TORSDOF 9
ENDMDL
MODEL 4
REMARK VINA RESULT:      -4.4      2.415      2.640
REMARK  Name = 23644529
REMARK  9 active torsions:
REMARK  status: ('A' for Active; 'I' for Inactive)
REMARK    1  A    between atoms: C_1  and  S_2
REMARK    2  A    between atoms: C_1  and  C_10
REMARK    3  A    between atoms: S_2  and  C_3
REMARK    4  A    between atoms: C_3  and  C_4
REMARK    5  A    between atoms: C_4  and  C_5
REMARK    6  A    between atoms: C_5  and  N_6
REMARK    7  A    between atoms: C_10  and  N_11
REMARK    8  A    between atoms: C_10  and  C_15
REMARK    9  A    between atoms: C_15  and  O_16
REMARK                            x       y       z     vdW  Elec       q    Type
REMARK                         _______ _______ _______ _____ _____    ______ ____
ROOT
ATOM      1  C   UNK     1      34.823 -16.704 -22.302  0.00  0.00    +0.038 C 
ENDROOT
BRANCH   1   2
ATOM      2  S   UNK     1      35.773 -18.243 -22.104  0.00  0.00    -0.142 S 
BRANCH   2   3
ATOM      3  C   UNK     1      34.383 -19.387 -21.949  0.00  0.00    +0.055 C 
BRANCH   3   4
ATOM      4  C   UNK     1      34.443 -20.132 -20.617  0.00  0.00    -0.012 C 
BRANCH   4   5
ATOM      5  C   UNK     1      33.037 -20.503 -20.140  0.00  0.00    -0.085 C 
BRANCH   5   6
ATOM      6  N   UNK     1      33.013 -21.878 -19.655  0.00  0.00    +0.380 N 
ATOM      7  H   UNK     1      33.830 -22.045 -19.067  0.00  0.00    -0.089 HD
ATOM      8  H   UNK     1      33.028 -22.519 -20.448  0.00  0.00    -0.089 HD
ATOM      9  H   UNK     1      32.165 -22.031 -19.109  0.00  0.00    -0.089 HD
ENDBRANCH   5   6
ENDBRANCH   4   5
ENDBRANCH   3   4
ENDBRANCH   2   3
ENDBRANCH   1   2
BRANCH   1  10
ATOM     10  C   UNK     1      34.995 -16.071 -23.691  0.00  0.00    -0.025 C 
BRANCH  10  11
ATOM     11  N   UNK     1      34.115 -14.898 -23.790  0.00  0.00    +0.384 N 
ATOM     12  H   UNK     1      33.651 -14.898 -24.699  0.00  0.00    -0.089 HD
ATOM     13  H   UNK     1      34.669 -14.047 -23.690  0.00  0.00    -0.089 HD
ATOM     14  H   UNK     1      33.413 -14.937 -23.051  0.00  0.00    -0.089 HD
ENDBRANCH  10  11
BRANCH  10  15
ATOM     15  C   UNK     1      34.681 -17.010 -24.864  0.00  0.00    +0.116 C 
BRANCH  15  16
ATOM     16  O   UNK     1      34.236 -16.277 -25.998  0.00  0.00    -0.384 OA
ATOM     17  H   UNK     1      33.306 -16.491 -26.176  0.00  0.00    +0.210 HD
ENDBRANCH  15  16
ENDBRANCH  10  15
ENDBRANCH   1  10
TORSDOF 9
ENDMDL
MODEL 5
REMARK VINA RESULT:      -4.4      7.758      9.853
REMARK  Name = 23644529
REMARK  9 active torsions:
REMARK  status: ('A' for Active; 'I' for Inactive)
REMARK    1  A    between atoms: C_1  and  S_2
REMARK    2  A    between atoms: C_1  and  C_10
REMARK    3  A    between atoms: S_2  and  C_3
REMARK    4  A    between atoms: C_3  and  C_4
REMARK    5  A    between atoms: C_4  and  C_5
REMARK    6  A    between atoms: C_5  and  N_6
REMARK    7  A    between atoms: C_10  and  N_11
REMARK    8  A    between atoms: C_10  and  C_15
REMARK    9  A    between atoms: C_15  and  O_16
REMARK                            x       y       z     vdW  Elec       q    Type
REMARK                         _______ _______ _______ _____ _____    ______ ____
ROOT
ATOM      1  C   UNK     1      38.128 -24.515 -13.424  0.00  0.00    +0.038 C 
ENDROOT
BRANCH   1   2
ATOM      2  S   UNK     1      36.419 -23.908 -13.577  0.00  0.00    -0.142 S 
BRANCH   2   3
ATOM      3  C   UNK     1      36.250 -24.061 -15.369  0.00  0.00    +0.055 C 
BRANCH   3   4
ATOM      4  C   UNK     1      36.080 -22.687 -16.015  0.00  0.00    -0.012 C 
BRANCH   4   5
ATOM      5  C   UNK     1      37.440 -22.043 -16.287  0.00  0.00    -0.085 C 
BRANCH   5   6
ATOM      6  N   UNK     1      37.270 -20.772 -16.980  0.00  0.00    +0.380 N 
ATOM      7  H   UNK     1      37.043 -20.044 -16.303  0.00  0.00    -0.089 HD
ATOM      8  H   UNK     1      36.513 -20.853 -17.659  0.00  0.00    -0.089 HD
ATOM      9  H   UNK     1      38.135 -20.529 -17.463  0.00  0.00    -0.089 HD
ENDBRANCH   5   6
ENDBRANCH   4   5
ENDBRANCH   3   4
ENDBRANCH   2   3
ENDBRANCH   1   2
BRANCH   1  10
ATOM     10  C   UNK     1      38.491 -25.553 -14.498  0.00  0.00    -0.025 C 
BRANCH  10  11
ATOM     11  N   UNK     1      37.883 -26.841 -14.137  0.00  0.00    +0.384 N 
ATOM     12  H   UNK     1      38.582 -27.580 -14.214  0.00  0.00    -0.089 HD
ATOM     13  H   UNK     1      37.107 -27.040 -14.769  0.00  0.00    -0.089 HD
ATOM     14  H   UNK     1      37.539 -26.798 -13.177  0.00  0.00    -0.089 HD
ENDBRANCH  10  11
BRANCH  10  15
ATOM     15  C   UNK     1      39.999 -25.769 -14.692  0.00  0.00    +0.116 C 
BRANCH  15  16
ATOM     16  O   UNK     1      40.322 -25.889 -16.071  0.00  0.00    -0.384 OA
ATOM     17  H   UNK     1      41.217 -26.253 -16.163  0.00  0.00    +0.210 HD
ENDBRANCH  15  16
ENDBRANCH  10  15
ENDBRANCH   1  10
TORSDOF 9
ENDMDL
MODEL 6
REMARK VINA RESULT:      -4.4      9.460     10.568
REMARK  Name = 23644529
REMARK  9 active torsions:
REMARK  status: ('A' for Active; 'I' for Inactive)
REMARK    1  A    between atoms: C_1  and  S_2
REMARK    2  A    between atoms: C_1  and  C_10
REMARK    3  A    between atoms: S_2  and  C_3
REMARK    4  A    between atoms: C_3  and  C_4
REMARK    5  A    between atoms: C_4  and  C_5
REMARK    6  A    between atoms: C_5  and  N_6
REMARK    7  A    between atoms: C_10  and  N_11
REMARK    8  A    between atoms: C_10  and  C_15
REMARK    9  A    between atoms: C_15  and  O_16
REMARK                            x       y       z     vdW  Elec       q    Type
REMARK                         _______ _______ _______ _____ _____    ______ ____
ROOT
ATOM      1  C   UNK     1      38.430 -25.602 -12.903  0.00  0.00    +0.038 C 
ENDROOT
BRANCH   1   2
ATOM      2  S   UNK     1      37.696 -24.170 -12.053  0.00  0.00    -0.142 S 
BRANCH   2   3
ATOM      3  C   UNK     1      36.039 -24.842 -11.799  0.00  0.00    +0.055 C 
BRANCH   3   4
ATOM      4  C   UNK     1      34.986 -23.936 -12.433  0.00  0.00    -0.012 C 
BRANCH   4   5
ATOM      5  C   UNK     1      34.966 -24.107 -13.953  0.00  0.00    -0.085 C 
BRANCH   5   6
ATOM      6  N   UNK     1      35.200 -22.827 -14.611  0.00  0.00    +0.380 N 
ATOM      7  H   UNK     1      36.074 -22.868 -15.135  0.00  0.00    -0.089 HD
ATOM      8  H   UNK     1      35.259 -22.090 -13.908  0.00  0.00    -0.089 HD
ATOM      9  H   UNK     1      34.430 -22.627 -15.250  0.00  0.00    -0.089 HD
ENDBRANCH   5   6
ENDBRANCH   4   5
ENDBRANCH   3   4
ENDBRANCH   2   3
ENDBRANCH   1   2
BRANCH   1  10
ATOM     10  C   UNK     1      38.897 -25.274 -14.330  0.00  0.00    -0.025 C 
BRANCH  10  11
ATOM     11  N   UNK     1      37.941 -25.849 -15.286  0.00  0.00    +0.384 N 
ATOM     12  H   UNK     1      37.002 -25.516 -15.068  0.00  0.00    -0.089 HD
ATOM     13  H   UNK     1      37.965 -26.867 -15.221  0.00  0.00    -0.089 HD
ATOM     14  H   UNK     1      38.192 -25.561 -16.232  0.00  0.00    -0.089 HD
ENDBRANCH  10  11
BRANCH  10  15
ATOM     15  C   UNK     1      40.299 -25.794 -14.677  0.00  0.00    +0.116 C 
BRANCH  15  16
ATOM     16  O   UNK     1      40.448 -25.958 -16.082  0.00  0.00    -0.384 OA
ATOM     17  H   UNK     1      41.105 -26.649 -16.259  0.00  0.00    +0.210 HD
ENDBRANCH  15  16
ENDBRANCH  10  15
ENDBRANCH   1  10
TORSDOF 9
ENDMDL
MODEL 7
REMARK VINA RESULT:      -4.4      2.829      5.539
REMARK  Name = 23644529
REMARK  9 active torsions:
REMARK  status: ('A' for Active; 'I' for Inactive)
REMARK    1  A    between atoms: C_1  and  S_2
REMARK    2  A    between atoms: C_1  and  C_10
REMARK    3  A    between atoms: S_2  and  C_3
REMARK    4  A    between atoms: C_3  and  C_4
REMARK    5  A    between atoms: C_4  and  C_5
REMARK    6  A    between atoms: C_5  and  N_6
REMARK    7  A    between atoms: C_10  and  N_11
REMARK    8  A    between atoms: C_10  and  C_15
REMARK    9  A    between atoms: C_15  and  O_16
REMARK                            x       y       z     vdW  Elec       q    Type
REMARK                         _______ _______ _______ _____ _____    ______ ____
ROOT
ATOM      1  C   UNK     1      34.896 -20.312 -20.353  0.00  0.00    +0.038 C 
ENDROOT
BRANCH   1   2
ATOM      2  S   UNK     1      34.131 -18.952 -21.289  0.00  0.00    -0.142 S 
BRANCH   2   3
ATOM      3  C   UNK     1      35.438 -18.713 -22.512  0.00  0.00    +0.055 C 
BRANCH   3   4
ATOM      4  C   UNK     1      34.905 -18.941 -23.925  0.00  0.00    -0.012 C 
BRANCH   4   5
ATOM      5  C   UNK     1      34.795 -17.617 -24.684  0.00  0.00    -0.085 C 
BRANCH   5   6
ATOM      6  N   UNK     1      35.401 -16.538 -23.913  0.00  0.00    +0.380 N 
ATOM      7  H   UNK     1      34.784 -15.726 -23.921  0.00  0.00    -0.089 HD
ATOM      8  H   UNK     1      36.299 -16.288 -24.327  0.00  0.00    -0.089 HD
ATOM      9  H   UNK     1      35.544 -16.847 -22.951  0.00  0.00    -0.089 HD
ENDBRANCH   5   6
ENDBRANCH   4   5
ENDBRANCH   3   4
ENDBRANCH   2   3
ENDBRANCH   1   2
BRANCH   1  10
ATOM     10  C   UNK     1      33.893 -21.412 -19.972  0.00  0.00    -0.025 C 
BRANCH  10  11
ATOM     11  N   UNK     1      32.639 -20.782 -19.538  0.00  0.00    +0.384 N 
ATOM     12  H   UNK     1      32.733 -19.767 -19.591  0.00  0.00    -0.089 HD
ATOM     13  H   UNK     1      32.436 -21.055 -18.576  0.00  0.00    -0.089 HD
ATOM     14  H   UNK     1      31.878 -21.084 -20.146  0.00  0.00    -0.089 HD
ENDBRANCH  10  11
BRANCH  10  15
ATOM     15  C   UNK     1      34.372 -22.353 -18.858  0.00  0.00    +0.116 C 
BRANCH  15  16
ATOM     16  O   UNK     1      33.826 -23.656 -19.022  0.00  0.00    -0.384 OA
ATOM     17  H   UNK     1      32.906 -23.585 -19.320  0.00  0.00    +0.210 HD
ENDBRANCH  15  16
ENDBRANCH  10  15
ENDBRANCH   1  10
TORSDOF 9
ENDMDL
MODEL 8
REMARK VINA RESULT:      -4.4      2.931      3.441
REMARK  Name = 23644529
REMARK  9 active torsions:
REMARK  status: ('A' for Active; 'I' for Inactive)
REMARK    1  A    between atoms: C_1  and  S_2
REMARK    2  A    between atoms: C_1  and  C_10
REMARK    3  A    between atoms: S_2  and  C_3
REMARK    4  A    between atoms: C_3  and  C_4
REMARK    5  A    between atoms: C_4  and  C_5
REMARK    6  A    between atoms: C_5  and  N_6
REMARK    7  A    between atoms: C_10  and  N_11
REMARK    8  A    between atoms: C_10  and  C_15
REMARK    9  A    between atoms: C_15  and  O_16
REMARK                            x       y       z     vdW  Elec       q    Type
REMARK                         _______ _______ _______ _____ _____    ______ ____
ROOT
ATOM      1  C   UNK     1      35.040 -15.983 -23.248  0.00  0.00    +0.038 C 
ENDROOT
BRANCH   1   2
ATOM      2  S   UNK     1      34.453 -16.652 -24.835  0.00  0.00    -0.142 S 
BRANCH   2   3
ATOM      3  C   UNK     1      34.580 -18.410 -24.438  0.00  0.00    +0.055 C 
BRANCH   3   4
ATOM      4  C   UNK     1      35.469 -18.625 -23.215  0.00  0.00    -0.012 C 
BRANCH   4   5
ATOM      5  C   UNK     1      34.734 -19.435 -22.146  0.00  0.00    -0.085 C 
BRANCH   5   6
ATOM      6  N   UNK     1      35.011 -18.895 -20.820  0.00  0.00    +0.380 N 
ATOM      7  H   UNK     1      34.636 -19.525 -20.111  0.00  0.00    -0.089 HD
ATOM      8  H   UNK     1      34.572 -17.979 -20.728  0.00  0.00    -0.089 HD
ATOM      9  H   UNK     1      36.020 -18.803 -20.694  0.00  0.00    -0.089 HD
ENDBRANCH   5   6
ENDBRANCH   4   5
ENDBRANCH   3   4
ENDBRANCH   2   3
ENDBRANCH   1   2
BRANCH   1  10
ATOM     10  C   UNK     1      34.042 -15.008 -22.605  0.00  0.00    -0.025 C 
BRANCH  10  11
ATOM     11  N   UNK     1      34.294 -13.658 -23.128  0.00  0.00    +0.384 N 
ATOM     12  H   UNK     1      35.298 -13.526 -23.258  0.00  0.00    -0.089 HD
ATOM     13  H   UNK     1      33.943 -12.966 -22.466  0.00  0.00    -0.089 HD
ATOM     14  H   UNK     1      33.819 -13.546 -24.023  0.00  0.00    -0.089 HD
ENDBRANCH  10  11
BRANCH  10  15
ATOM     15  C   UNK     1      34.104 -14.951 -21.072  0.00  0.00    +0.116 C 
BRANCH  15  16
ATOM     16  O   UNK     1      35.001 -15.930 -20.562  0.00  0.00    -0.384 OA
ATOM     17  H   UNK     1      35.628 -16.186 -21.257  0.00  0.00    +0.210 HD
ENDBRANCH  15  16
ENDBRANCH  10  15
ENDBRANCH   1  10
TORSDOF 9
ENDMDL
MODEL 9
REMARK VINA RESULT:      -4.3      9.992     10.615
REMARK  Name = 23644529
REMARK  9 active torsions:
REMARK  status: ('A' for Active; 'I' for Inactive)
REMARK    1  A    between atoms: C_1  and  S_2
REMARK    2  A    between atoms: C_1  and  C_10
REMARK    3  A    between atoms: S_2  and  C_3
REMARK    4  A    between atoms: C_3  and  C_4
REMARK    5  A    between atoms: C_4  and  C_5
REMARK    6  A    between atoms: C_5  and  N_6
REMARK    7  A    between atoms: C_10  and  N_11
REMARK    8  A    between atoms: C_10  and  C_15
REMARK    9  A    between atoms: C_15  and  O_16
REMARK                            x       y       z     vdW  Elec       q    Type
REMARK                         _______ _______ _______ _____ _____    ______ ____
ROOT
ATOM      1  C   UNK     1      35.850 -25.503 -15.072  0.00  0.00    +0.038 C 
ENDROOT
BRANCH   1   2
ATOM      2  S   UNK     1      35.821 -23.822 -14.377  0.00  0.00    -0.142 S 
BRANCH   2   3
ATOM      3  C   UNK     1      34.840 -24.170 -12.901  0.00  0.00    +0.055 C 
BRANCH   3   4
ATOM      4  C   UNK     1      35.694 -24.042 -11.642  0.00  0.00    -0.012 C 
BRANCH   4   5
ATOM      5  C   UNK     1      36.924 -23.171 -11.906  0.00  0.00    -0.085 C 
BRANCH   5   6
ATOM      6  N   UNK     1      38.137 -23.866 -11.493  0.00  0.00    +0.380 N 
ATOM      7  H   UNK     1      38.740 -23.222 -10.981  0.00  0.00    -0.089 HD
ATOM      8  H   UNK     1      38.628 -24.210 -12.318  0.00  0.00    -0.089 HD
ATOM      9  H   UNK     1      37.890 -24.652 -10.891  0.00  0.00    -0.089 HD
ENDBRANCH   5   6
ENDBRANCH   4   5
ENDBRANCH   3   4
ENDBRANCH   2   3
ENDBRANCH   1   2
BRANCH   1  10
ATOM     10  C   UNK     1      37.180 -26.230 -14.820  0.00  0.00    -0.025 C 
BRANCH  10  11
ATOM     11  N   UNK     1      37.087 -26.961 -13.549  0.00  0.00    +0.384 N 
ATOM     12  H   UNK     1      36.117 -27.228 -13.381  0.00  0.00    -0.089 HD
ATOM     13  H   UNK     1      37.412 -26.364 -12.789  0.00  0.00    -0.089 HD
ATOM     14  H   UNK     1      37.667 -27.799 -13.596  0.00  0.00    -0.089 HD
ENDBRANCH  10  11
BRANCH  10  15
ATOM     15  C   UNK     1      38.408 -25.311 -14.760  0.00  0.00    +0.116 C 
BRANCH  15  16
ATOM     16  O   UNK     1      39.483 -25.846 -15.522  0.00  0.00    -0.384 OA
ATOM     17  H   UNK     1      40.192 -25.187 -15.587  0.00  0.00    +0.210 HD
ENDBRANCH  15  16
ENDBRANCH  10  15
ENDBRANCH   1  10
TORSDOF 9
ENDMDL
