MODEL 1
REMARK VINA RESULT:      -9.2      0.000      0.000
REMARK  Name = 85466
REMARK  4 active torsions:
REMARK  status: ('A' for Active; 'I' for Inactive)
REMARK    1  A    between atoms: C_9  and  N_17
REMARK    2  A    between atoms: C_10  and  N_20
REMARK    3  A    between atoms: C_11  and  O_23
REMARK    4  A    between atoms: C_12  and  O_25
REMARK                            x       y       z     vdW  Elec       q    Type
REMARK                         _______ _______ _______ _____ _____    ______ ____
ROOT
ATOM      1  O   UNL     1      32.913 -24.651 -12.758  0.00  0.00    -0.286 OA
ATOM      2  O   UNL     1      35.049 -22.824 -17.301  0.00  0.00    -0.286 OA
ATOM      3  C   UNL     1      32.523 -23.761 -14.903  0.00  0.00    +0.056 C 
ATOM      4  C   UNL     1      33.082 -23.283 -16.090  0.00  0.00    +0.056 C 
ATOM      5  C   UNL     1      34.857 -24.183 -13.977  0.00  0.00    +0.079 C 
ATOM      6  C   UNL     1      35.416 -23.706 -15.164  0.00  0.00    +0.079 C 
ATOM      7  C   UNL     1      33.391 -24.229 -13.803  0.00  0.00    +0.200 C 
ATOM      8  C   UNL     1      34.548 -23.238 -16.264  0.00  0.00    +0.200 C 
ATOM      9  C   UNL     1      31.133 -23.798 -14.751  0.00  0.00    +0.045 C 
ATOM     10  C   UNL     1      32.248 -22.843 -17.127  0.00  0.00    +0.045 C 
ATOM     11  C   UNL     1      35.690 -24.624 -12.941  0.00  0.00    +0.137 C 
ATOM     12  C   UNL     1      36.806 -23.667 -15.316  0.00  0.00    +0.137 C 
ATOM     13  C   UNL     1      30.306 -23.357 -15.785  0.00  0.00    +0.015 C 
ATOM     14  C   UNL     1      30.862 -22.881 -16.970  0.00  0.00    +0.015 C 
ATOM     15  C   UNL     1      37.076 -24.585 -13.098  0.00  0.00    +0.040 C 
ATOM     16  C   UNL     1      37.633 -24.107 -14.282  0.00  0.00    +0.040 C 
ENDROOT
BRANCH   9  17
ATOM     17  N   UNL     1      30.491 -24.266 -13.581  0.00  0.00    -0.357 N 
ATOM     18  H   UNL     1      30.862 -24.048 -12.696  0.00  0.00    +0.142 HD
ATOM     19  H   UNL     1      29.674 -24.811 -13.652  0.00  0.00    +0.142 HD
ENDBRANCH   9  17
BRANCH  10  20
ATOM     20  N   UNL     1      32.735 -22.347 -18.358  0.00  0.00    -0.357 N 
ATOM     21  H   UNL     1      32.270 -21.605 -18.808  0.00  0.00    +0.142 HD
ATOM     22  H   UNL     1      33.540 -22.742 -18.764  0.00  0.00    +0.142 HD
ENDBRANCH  10  20
BRANCH  11  23
ATOM     23  O   UNL     1      35.216 -25.102 -11.756  0.00  0.00    -0.505 OA
ATOM     24  H   UNL     1      34.728 -24.540 -11.186  0.00  0.00    +0.292 HD
ENDBRANCH  11  23
BRANCH  12  25
ATOM     25  O   UNL     1      37.420 -23.215 -16.446  0.00  0.00    -0.505 OA
ATOM     26  H   UNL     1      38.344 -23.052 -16.445  0.00  0.00    +0.292 HD
ENDBRANCH  12  25
TORSDOF 4
ENDMDL
MODEL 2
REMARK VINA RESULT:      -9.1      0.032      3.497
REMARK  Name = 85466
REMARK  4 active torsions:
REMARK  status: ('A' for Active; 'I' for Inactive)
REMARK    1  A    between atoms: C_9  and  N_17
REMARK    2  A    between atoms: C_10  and  N_20
REMARK    3  A    between atoms: C_11  and  O_23
REMARK    4  A    between atoms: C_12  and  O_25
REMARK                            x       y       z     vdW  Elec       q    Type
REMARK                         _______ _______ _______ _____ _____    ______ ____
ROOT
ATOM      1  O   UNL     1      35.023 -22.797 -17.322  0.00  0.00    -0.286 OA
ATOM      2  O   UNL     1      32.912 -24.655 -12.779  0.00  0.00    -0.286 OA
ATOM      3  C   UNL     1      33.062 -23.274 -16.107  0.00  0.00    +0.056 C 
ATOM      4  C   UNL     1      32.511 -23.759 -14.920  0.00  0.00    +0.056 C 
ATOM      5  C   UNL     1      35.400 -23.693 -15.191  0.00  0.00    +0.079 C 
ATOM      6  C   UNL     1      34.849 -24.178 -14.004  0.00  0.00    +0.079 C 
ATOM      7  C   UNL     1      34.528 -23.222 -16.287  0.00  0.00    +0.200 C 
ATOM      8  C   UNL     1      33.384 -24.229 -13.825  0.00  0.00    +0.200 C 
ATOM      9  C   UNL     1      32.224 -22.832 -17.137  0.00  0.00    +0.045 C 
ATOM     10  C   UNL     1      31.120 -23.803 -14.763  0.00  0.00    +0.045 C 
ATOM     11  C   UNL     1      36.792 -23.649 -15.349  0.00  0.00    +0.137 C 
ATOM     12  C   UNL     1      35.688 -24.621 -12.975  0.00  0.00    +0.137 C 
ATOM     13  C   UNL     1      30.839 -22.877 -16.977  0.00  0.00    +0.015 C 
ATOM     14  C   UNL     1      30.288 -23.362 -15.792  0.00  0.00    +0.015 C 
ATOM     15  C   UNL     1      37.624 -24.091 -14.319  0.00  0.00    +0.040 C 
ATOM     16  C   UNL     1      37.073 -24.577 -13.135  0.00  0.00    +0.040 C 
ENDROOT
BRANCH   9  17
ATOM     17  N   UNL     1      32.704 -22.328 -18.369  0.00  0.00    -0.357 N 
ATOM     18  H   UNL     1      33.489 -21.735 -18.385  0.00  0.00    +0.142 HD
ATOM     19  H   UNL     1      32.252 -22.569 -19.209  0.00  0.00    +0.142 HD
ENDBRANCH   9  17
BRANCH  10  20
ATOM     20  N   UNL     1      30.485 -24.279 -13.593  0.00  0.00    -0.357 N 
ATOM     21  H   UNL     1      30.059 -25.166 -13.590  0.00  0.00    +0.142 HD
ATOM     22  H   UNL     1      30.469 -23.723 -12.780  0.00  0.00    +0.142 HD
ENDBRANCH  10  20
BRANCH  11  23
ATOM     23  O   UNL     1      37.400 -23.189 -16.478  0.00  0.00    -0.505 OA
ATOM     24  H   UNL     1      38.069 -23.699 -16.892  0.00  0.00    +0.292 HD
ENDBRANCH  11  23
BRANCH  12  25
ATOM     25  O   UNL     1      35.220 -25.107 -11.790  0.00  0.00    -0.505 OA
ATOM     26  H   UNL     1      34.635 -25.840 -11.781  0.00  0.00    +0.292 HD
ENDBRANCH  12  25
TORSDOF 4
ENDMDL
MODEL 3
REMARK VINA RESULT:      -9.1      0.897      1.088
REMARK  Name = 85466
REMARK  4 active torsions:
REMARK  status: ('A' for Active; 'I' for Inactive)
REMARK    1  A    between atoms: C_9  and  N_17
REMARK    2  A    between atoms: C_10  and  N_20
REMARK    3  A    between atoms: C_11  and  O_23
REMARK    4  A    between atoms: C_12  and  O_25
REMARK                            x       y       z     vdW  Elec       q    Type
REMARK                         _______ _______ _______ _____ _____    ______ ____
ROOT
ATOM      1  O   UNL     1      33.205 -24.486 -12.751  0.00  0.00    -0.286 OA
ATOM      2  O   UNL     1      36.386 -23.114 -16.819  0.00  0.00    -0.286 OA
ATOM      3  C   UNL     1      33.347 -23.697 -14.966  0.00  0.00    +0.056 C 
ATOM      4  C   UNL     1      34.179 -23.339 -16.028  0.00  0.00    +0.056 C 
ATOM      5  C   UNL     1      35.393 -24.252 -13.554  0.00  0.00    +0.079 C 
ATOM      6  C   UNL     1      36.224 -23.894 -14.617  0.00  0.00    +0.079 C 
ATOM      7  C   UNL     1      33.924 -24.168 -13.689  0.00  0.00    +0.200 C 
ATOM      8  C   UNL     1      35.647 -23.424 -15.893  0.00  0.00    +0.200 C 
ATOM      9  C   UNL     1      31.958 -23.612 -15.106  0.00  0.00    +0.045 C 
ATOM     10  C   UNL     1      33.620 -22.895 -17.233  0.00  0.00    +0.045 C 
ATOM     11  C   UNL     1      35.952 -24.696 -12.349  0.00  0.00    +0.137 C 
ATOM     12  C   UNL     1      37.614 -23.978 -14.476  0.00  0.00    +0.137 C 
ATOM     13  C   UNL     1      31.405 -23.169 -16.308  0.00  0.00    +0.015 C 
ATOM     14  C   UNL     1      32.234 -22.811 -17.369  0.00  0.00    +0.015 C 
ATOM     15  C   UNL     1      37.338 -24.779 -12.213  0.00  0.00    +0.040 C 
ATOM     16  C   UNL     1      38.167 -24.420 -13.274  0.00  0.00    +0.040 C 
ENDROOT
BRANCH   9  17
ATOM     17  N   UNL     1      31.049 -23.955 -14.078  0.00  0.00    -0.357 N 
ATOM     18  H   UNL     1      30.104 -24.126 -14.293  0.00  0.00    +0.142 HD
ATOM     19  H   UNL     1      31.362 -24.022 -13.147  0.00  0.00    +0.142 HD
ENDBRANCH   9  17
BRANCH  10  20
ATOM     20  N   UNL     1      34.392 -22.516 -18.355  0.00  0.00    -0.357 N 
ATOM     21  H   UNL     1      35.223 -22.999 -18.567  0.00  0.00    +0.142 HD
ATOM     22  H   UNL     1      34.099 -21.769 -18.925  0.00  0.00    +0.142 HD
ENDBRANCH  10  20
BRANCH  11  23
ATOM     23  O   UNL     1      35.203 -25.062 -11.271  0.00  0.00    -0.505 OA
ATOM     24  H   UNL     1      35.587 -25.575 -10.586  0.00  0.00    +0.292 HD
ENDBRANCH  11  23
BRANCH  12  25
ATOM     25  O   UNL     1      38.486 -23.645 -15.470  0.00  0.00    -0.505 OA
ATOM     26  H   UNL     1      38.270 -23.827 -16.363  0.00  0.00    +0.292 HD
ENDBRANCH  12  25
TORSDOF 4
ENDMDL
MODEL 4
REMARK VINA RESULT:      -8.9      2.421      5.023
REMARK  Name = 85466
REMARK  4 active torsions:
REMARK  status: ('A' for Active; 'I' for Inactive)
REMARK    1  A    between atoms: C_9  and  N_17
REMARK    2  A    between atoms: C_10  and  N_20
REMARK    3  A    between atoms: C_11  and  O_23
REMARK    4  A    between atoms: C_12  and  O_25
REMARK                            x       y       z     vdW  Elec       q    Type
REMARK                         _______ _______ _______ _____ _____    ______ ____
ROOT
ATOM      1  O   UNL     1      31.919 -22.741 -17.991  0.00  0.00    -0.286 OA
ATOM      2  O   UNL     1      35.616 -23.720 -14.260  0.00  0.00    -0.286 OA
ATOM      3  C   UNL     1      34.189 -22.600 -17.377  0.00  0.00    +0.056 C 
ATOM      4  C   UNL     1      35.154 -22.856 -16.402  0.00  0.00    +0.056 C 
ATOM      5  C   UNL     1      32.399 -23.592 -15.862  0.00  0.00    +0.079 C 
ATOM      6  C   UNL     1      33.364 -23.848 -14.887  0.00  0.00    +0.079 C 
ATOM      7  C   UNL     1      32.775 -22.960 -17.144  0.00  0.00    +0.200 C 
ATOM      8  C   UNL     1      34.778 -23.489 -15.122  0.00  0.00    +0.200 C 
ATOM      9  C   UNL     1      34.558 -21.999 -18.586  0.00  0.00    +0.045 C 
ATOM     10  C   UNL     1      36.492 -22.511 -16.636  0.00  0.00    +0.045 C 
ATOM     11  C   UNL     1      31.062 -23.937 -15.628  0.00  0.00    +0.137 C 
ATOM     12  C   UNL     1      32.995 -24.448 -13.678  0.00  0.00    +0.137 C 
ATOM     13  C   UNL     1      35.891 -21.656 -18.815  0.00  0.00    +0.015 C 
ATOM     14  C   UNL     1      36.856 -21.911 -17.842  0.00  0.00    +0.015 C 
ATOM     15  C   UNL     1      30.697 -24.536 -14.422  0.00  0.00    +0.040 C 
ATOM     16  C   UNL     1      31.662 -24.790 -13.449  0.00  0.00    +0.040 C 
ENDROOT
BRANCH   9  17
ATOM     17  N   UNL     1      33.641 -21.707 -19.622  0.00  0.00    -0.357 N 
ATOM     18  H   UNL     1      32.781 -22.184 -19.666  0.00  0.00    +0.142 HD
ATOM     19  H   UNL     1      33.863 -21.027 -20.299  0.00  0.00    +0.142 HD
ENDBRANCH   9  17
BRANCH  10  20
ATOM     20  N   UNL     1      37.528 -22.737 -15.701  0.00  0.00    -0.357 N 
ATOM     21  H   UNL     1      37.835 -22.004 -15.120  0.00  0.00    +0.142 HD
ATOM     22  H   UNL     1      37.941 -23.627 -15.631  0.00  0.00    +0.142 HD
ENDBRANCH  10  20
BRANCH  11  23
ATOM     23  O   UNL     1      30.066 -23.718 -16.533  0.00  0.00    -0.505 OA
ATOM     24  H   UNL     1      29.208 -23.481 -16.238  0.00  0.00    +0.292 HD
ENDBRANCH  11  23
BRANCH  12  25
ATOM     25  O   UNL     1      33.883 -24.727 -12.682  0.00  0.00    -0.505 OA
ATOM     26  H   UNL     1      34.400 -24.040 -12.309  0.00  0.00    +0.292 HD
ENDBRANCH  12  25
TORSDOF 4
ENDMDL
MODEL 5
REMARK VINA RESULT:      -8.8      2.419      4.534
REMARK  Name = 85466
REMARK  4 active torsions:
REMARK  status: ('A' for Active; 'I' for Inactive)
REMARK    1  A    between atoms: C_9  and  N_17
REMARK    2  A    between atoms: C_10  and  N_20
REMARK    3  A    between atoms: C_11  and  O_23
REMARK    4  A    between atoms: C_12  and  O_25
REMARK                            x       y       z     vdW  Elec       q    Type
REMARK                         _______ _______ _______ _____ _____    ______ ____
ROOT
ATOM      1  O   UNL     1      35.707 -23.681 -14.322  0.00  0.00    -0.286 OA
ATOM      2  O   UNL     1      31.929 -22.729 -17.978  0.00  0.00    -0.286 OA
ATOM      3  C   UNL     1      35.197 -22.825 -16.456  0.00  0.00    +0.056 C 
ATOM      4  C   UNL     1      34.210 -22.576 -17.411  0.00  0.00    +0.056 C 
ATOM      5  C   UNL     1      33.443 -23.828 -14.907  0.00  0.00    +0.079 C 
ATOM      6  C   UNL     1      32.456 -23.579 -15.862  0.00  0.00    +0.079 C 
ATOM      7  C   UNL     1      34.850 -23.459 -15.168  0.00  0.00    +0.200 C 
ATOM      8  C   UNL     1      32.803 -22.944 -17.149  0.00  0.00    +0.200 C 
ATOM      9  C   UNL     1      36.526 -22.471 -16.716  0.00  0.00    +0.045 C 
ATOM     10  C   UNL     1      34.552 -21.973 -18.628  0.00  0.00    +0.045 C 
ATOM     11  C   UNL     1      33.101 -24.431 -13.690  0.00  0.00    +0.137 C 
ATOM     12  C   UNL     1      31.127 -23.933 -15.602  0.00  0.00    +0.137 C 
ATOM     13  C   UNL     1      36.863 -21.871 -17.930  0.00  0.00    +0.015 C 
ATOM     14  C   UNL     1      35.878 -21.623 -18.884  0.00  0.00    +0.015 C 
ATOM     15  C   UNL     1      31.775 -24.782 -13.435  0.00  0.00    +0.040 C 
ATOM     16  C   UNL     1      30.790 -24.534 -14.389  0.00  0.00    +0.040 C 
ENDROOT
BRANCH   9  17
ATOM     17  N   UNL     1      37.582 -22.690 -15.802  0.00  0.00    -0.357 N 
ATOM     18  H   UNL     1      38.458 -22.999 -16.127  0.00  0.00    +0.142 HD
ATOM     19  H   UNL     1      37.441 -22.536 -14.840  0.00  0.00    +0.142 HD
ENDBRANCH   9  17
BRANCH  10  20
ATOM     20  N   UNL     1      33.612 -21.687 -19.645  0.00  0.00    -0.357 N 
ATOM     21  H   UNL     1      33.854 -21.819 -20.590  0.00  0.00    +0.142 HD
ATOM     22  H   UNL     1      32.715 -21.357 -19.408  0.00  0.00    +0.142 HD
ENDBRANCH  10  20
BRANCH  11  23
ATOM     23  O   UNL     1      34.010 -24.704 -12.712  0.00  0.00    -0.505 OA
ATOM     24  H   UNL     1      34.770 -25.217 -12.909  0.00  0.00    +0.292 HD
ENDBRANCH  11  23
BRANCH  12  25
ATOM     25  O   UNL     1      30.112 -23.721 -16.487  0.00  0.00    -0.505 OA
ATOM     26  H   UNL     1      29.292 -23.381 -16.187  0.00  0.00    +0.292 HD
ENDBRANCH  12  25
TORSDOF 4
ENDMDL
MODEL 6
REMARK VINA RESULT:      -8.8      1.920      5.867
REMARK  Name = 85466
REMARK  4 active torsions:
REMARK  status: ('A' for Active; 'I' for Inactive)
REMARK    1  A    between atoms: C_9  and  N_17
REMARK    2  A    between atoms: C_10  and  N_20
REMARK    3  A    between atoms: C_11  and  O_23
REMARK    4  A    between atoms: C_12  and  O_25
REMARK                            x       y       z     vdW  Elec       q    Type
REMARK                         _______ _______ _______ _____ _____    ______ ____
ROOT
ATOM      1  O   UNL     1      34.803 -22.629 -17.423  0.00  0.00    -0.286 OA
ATOM      2  O   UNL     1      33.563 -24.681 -12.648  0.00  0.00    -0.286 OA
ATOM      3  C   UNL     1      35.595 -23.449 -15.362  0.00  0.00    +0.056 C 
ATOM      4  C   UNL     1      35.270 -23.985 -14.114  0.00  0.00    +0.056 C 
ATOM      5  C   UNL     1      33.120 -23.322 -15.949  0.00  0.00    +0.079 C 
ATOM      6  C   UNL     1      32.796 -23.858 -14.701  0.00  0.00    +0.079 C 
ATOM      7  C   UNL     1      34.531 -23.098 -16.326  0.00  0.00    +0.200 C 
ATOM      8  C   UNL     1      33.859 -24.209 -13.738  0.00  0.00    +0.200 C 
ATOM      9  C   UNL     1      36.935 -23.242 -15.706  0.00  0.00    +0.045 C 
ATOM     10  C   UNL     1      36.288 -24.315 -13.210  0.00  0.00    +0.045 C 
ATOM     11  C   UNL     1      32.103 -22.993 -16.853  0.00  0.00    +0.137 C 
ATOM     12  C   UNL     1      31.455 -24.064 -14.357  0.00  0.00    +0.137 C 
ATOM     13  C   UNL     1      37.946 -23.570 -14.802  0.00  0.00    +0.015 C 
ATOM     14  C   UNL     1      37.623 -24.105 -13.557  0.00  0.00    +0.015 C 
ATOM     15  C   UNL     1      30.768 -23.201 -16.506  0.00  0.00    +0.040 C 
ATOM     16  C   UNL     1      30.445 -23.735 -15.260  0.00  0.00    +0.040 C 
ENDROOT
BRANCH   9  17
ATOM     17  N   UNL     1      37.345 -22.703 -16.948  0.00  0.00    -0.357 N 
ATOM     18  H   UNL     1      37.686 -23.298 -17.654  0.00  0.00    +0.142 HD
ATOM     19  H   UNL     1      37.290 -21.732 -17.106  0.00  0.00    +0.142 HD
ENDBRANCH   9  17
BRANCH  10  20
ATOM     20  N   UNL     1      36.043 -24.862 -11.930  0.00  0.00    -0.357 N 
ATOM     21  H   UNL     1      36.796 -25.068 -11.330  0.00  0.00    +0.142 HD
ATOM     22  H   UNL     1      35.119 -25.035 -11.637  0.00  0.00    +0.142 HD
ENDBRANCH  10  20
BRANCH  11  23
ATOM     23  O   UNL     1      32.344 -22.466 -18.087  0.00  0.00    -0.505 OA
ATOM     24  H   UNL     1      31.706 -21.911 -18.493  0.00  0.00    +0.292 HD
ENDBRANCH  11  23
BRANCH  12  25
ATOM     25  O   UNL     1      31.065 -24.583 -13.158  0.00  0.00    -0.505 OA
ATOM     26  H   UNL     1      30.777 -24.013 -12.472  0.00  0.00    +0.292 HD
ENDBRANCH  12  25
TORSDOF 4
ENDMDL
MODEL 7
REMARK VINA RESULT:      -8.7      1.913      4.733
REMARK  Name = 85466
REMARK  4 active torsions:
REMARK  status: ('A' for Active; 'I' for Inactive)
REMARK    1  A    between atoms: C_9  and  N_17
REMARK    2  A    between atoms: C_10  and  N_20
REMARK    3  A    between atoms: C_11  and  O_23
REMARK    4  A    between atoms: C_12  and  O_25
REMARK                            x       y       z     vdW  Elec       q    Type
REMARK                         _______ _______ _______ _____ _____    ______ ____
ROOT
ATOM      1  O   UNL     1      33.522 -24.630 -12.643  0.00  0.00    -0.286 OA
ATOM      2  O   UNL     1      34.839 -22.639 -17.423  0.00  0.00    -0.286 OA
ATOM      3  C   UNL     1      35.254 -23.973 -14.098  0.00  0.00    +0.056 C 
ATOM      4  C   UNL     1      35.597 -23.452 -15.347  0.00  0.00    +0.056 C 
ATOM      5  C   UNL     1      32.788 -23.822 -14.716  0.00  0.00    +0.079 C 
ATOM      6  C   UNL     1      33.132 -23.301 -15.965  0.00  0.00    +0.079 C 
ATOM      7  C   UNL     1      33.836 -24.176 -13.736  0.00  0.00    +0.200 C 
ATOM      8  C   UNL     1      34.549 -23.097 -16.326  0.00  0.00    +0.200 C 
ATOM      9  C   UNL     1      36.256 -24.305 -13.180  0.00  0.00    +0.045 C 
ATOM     10  C   UNL     1      36.945 -23.264 -15.678  0.00  0.00    +0.045 C 
ATOM     11  C   UNL     1      31.440 -24.010 -14.385  0.00  0.00    +0.137 C 
ATOM     12  C   UNL     1      32.130 -22.970 -16.883  0.00  0.00    +0.137 C 
ATOM     13  C   UNL     1      37.598 -24.116 -13.514  0.00  0.00    +0.015 C 
ATOM     14  C   UNL     1      37.941 -23.597 -14.760  0.00  0.00    +0.015 C 
ATOM     15  C   UNL     1      30.444 -23.678 -15.304  0.00  0.00    +0.040 C 
ATOM     16  C   UNL     1      30.788 -23.159 -16.550  0.00  0.00    +0.040 C 
ENDROOT
BRANCH   9  17
ATOM     17  N   UNL     1      35.990 -24.837 -11.896  0.00  0.00    -0.357 N 
ATOM     18  H   UNL     1      35.205 -24.529 -11.390  0.00  0.00    +0.142 HD
ATOM     19  H   UNL     1      36.591 -25.514 -11.510  0.00  0.00    +0.142 HD
ENDBRANCH   9  17
BRANCH  10  20
ATOM     20  N   UNL     1      37.375 -22.742 -16.919  0.00  0.00    -0.357 N 
ATOM     21  H   UNL     1      36.773 -22.766 -17.698  0.00  0.00    +0.142 HD
ATOM     22  H   UNL     1      38.275 -22.353 -17.005  0.00  0.00    +0.142 HD
ENDBRANCH  10  20
BRANCH  11  23
ATOM     23  O   UNL     1      31.031 -24.513 -13.186  0.00  0.00    -0.505 OA
ATOM     24  H   UNL     1      31.601 -25.071 -12.692  0.00  0.00    +0.292 HD
ENDBRANCH  11  23
BRANCH  12  25
ATOM     25  O   UNL     1      32.391 -22.458 -18.120  0.00  0.00    -0.505 OA
ATOM     26  H   UNL     1      33.244 -22.556 -18.497  0.00  0.00    +0.292 HD
ENDBRANCH  12  25
TORSDOF 4
ENDMDL
MODEL 8
REMARK VINA RESULT:      -8.6      2.266      4.327
REMARK  Name = 85466
REMARK  4 active torsions:
REMARK  status: ('A' for Active; 'I' for Inactive)
REMARK    1  A    between atoms: C_9  and  N_17
REMARK    2  A    between atoms: C_10  and  N_20
REMARK    3  A    between atoms: C_11  and  O_23
REMARK    4  A    between atoms: C_12  and  O_25
REMARK                            x       y       z     vdW  Elec       q    Type
REMARK                         _______ _______ _______ _____ _____    ______ ____
ROOT
ATOM      1  O   UNL     1      31.697 -22.602 -17.969  0.00  0.00    -0.286 OA
ATOM      2  O   UNL     1      35.992 -23.559 -14.938  0.00  0.00    -0.286 OA
ATOM      3  C   UNL     1      32.532 -23.492 -15.954  0.00  0.00    +0.056 C 
ATOM      4  C   UNL     1      33.655 -23.742 -15.163  0.00  0.00    +0.056 C 
ATOM      5  C   UNL     1      34.021 -22.433 -17.728  0.00  0.00    +0.079 C 
ATOM      6  C   UNL     1      35.143 -22.683 -16.936  0.00  0.00    +0.079 C 
ATOM      7  C   UNL     1      32.674 -22.827 -17.266  0.00  0.00    +0.200 C 
ATOM      8  C   UNL     1      35.001 -23.347 -15.624  0.00  0.00    +0.200 C 
ATOM      9  C   UNL     1      31.262 -23.871 -15.506  0.00  0.00    +0.045 C 
ATOM     10  C   UNL     1      33.506 -24.372 -13.921  0.00  0.00    +0.045 C 
ATOM     11  C   UNL     1      34.169 -21.803 -18.970  0.00  0.00    +0.137 C 
ATOM     12  C   UNL     1      36.413 -22.305 -17.385  0.00  0.00    +0.137 C 
ATOM     13  C   UNL     1      31.119 -24.500 -14.268  0.00  0.00    +0.015 C 
ATOM     14  C   UNL     1      32.238 -24.750 -13.478  0.00  0.00    +0.015 C 
ATOM     15  C   UNL     1      35.437 -21.426 -19.413  0.00  0.00    +0.040 C 
ATOM     16  C   UNL     1      36.557 -21.677 -18.623  0.00  0.00    +0.040 C 
ENDROOT
BRANCH   9  17
ATOM     17  N   UNL     1      30.078 -23.654 -16.248  0.00  0.00    -0.357 N 
ATOM     18  H   UNL     1      29.891 -24.198 -17.046  0.00  0.00    +0.142 HD
ATOM     19  H   UNL     1      29.441 -22.958 -15.967  0.00  0.00    +0.142 HD
ENDBRANCH   9  17
BRANCH  10  20
ATOM     20  N   UNL     1      34.591 -24.659 -13.061  0.00  0.00    -0.357 N 
ATOM     21  H   UNL     1      34.460 -25.250 -12.284  0.00  0.00    +0.142 HD
ATOM     22  H   UNL     1      35.477 -24.270 -13.239  0.00  0.00    +0.142 HD
ENDBRANCH  10  20
BRANCH  11  23
ATOM     23  O   UNL     1      33.120 -21.527 -19.795  0.00  0.00    -0.505 OA
ATOM     24  H   UNL     1      32.943 -22.083 -20.529  0.00  0.00    +0.292 HD
ENDBRANCH  11  23
BRANCH  12  25
ATOM     25  O   UNL     1      37.552 -22.517 -16.667  0.00  0.00    -0.505 OA
ATOM     26  H   UNL     1      37.548 -23.120 -15.949  0.00  0.00    +0.292 HD
ENDBRANCH  12  25
TORSDOF 4
ENDMDL
MODEL 9
REMARK VINA RESULT:      -8.4      2.224      5.799
REMARK  Name = 85466
REMARK  4 active torsions:
REMARK  status: ('A' for Active; 'I' for Inactive)
REMARK    1  A    between atoms: C_9  and  N_17
REMARK    2  A    between atoms: C_10  and  N_20
REMARK    3  A    between atoms: C_11  and  O_23
REMARK    4  A    between atoms: C_12  and  O_25
REMARK                            x       y       z     vdW  Elec       q    Type
REMARK                         _______ _______ _______ _____ _____    ______ ____
ROOT
ATOM      1  O   UNL     1      31.929 -22.518 -17.856  0.00  0.00    -0.286 OA
ATOM      2  O   UNL     1      33.088 -24.697 -13.117  0.00  0.00    -0.286 OA
ATOM      3  C   UNL     1      33.610 -23.140 -16.328  0.00  0.00    +0.056 C 
ATOM      4  C   UNL     1      33.913 -23.710 -15.090  0.00  0.00    +0.056 C 
ATOM      5  C   UNL     1      31.129 -23.498 -15.885  0.00  0.00    +0.079 C 
ATOM      6  C   UNL     1      31.431 -24.068 -14.647  0.00  0.00    +0.079 C 
ATOM      7  C   UNL     1      32.207 -23.014 -16.772  0.00  0.00    +0.200 C 
ATOM      8  C   UNL     1      32.835 -24.194 -14.204  0.00  0.00    +0.200 C 
ATOM      9  C   UNL     1      34.641 -22.685 -17.158  0.00  0.00    +0.045 C 
ATOM     10  C   UNL     1      35.248 -23.824 -14.681  0.00  0.00    +0.045 C 
ATOM     11  C   UNL     1      29.794 -23.384 -16.293  0.00  0.00    +0.137 C 
ATOM     12  C   UNL     1      30.401 -24.522 -13.816  0.00  0.00    +0.137 C 
ATOM     13  C   UNL     1      35.969 -22.800 -16.747  0.00  0.00    +0.015 C 
ATOM     14  C   UNL     1      36.272 -23.368 -15.512  0.00  0.00    +0.015 C 
ATOM     15  C   UNL     1      28.770 -23.839 -15.462  0.00  0.00    +0.040 C 
ATOM     16  C   UNL     1      29.072 -24.406 -14.227  0.00  0.00    +0.040 C 
ENDROOT
BRANCH   9  17
ATOM     17  N   UNL     1      34.417 -22.096 -18.425  0.00  0.00    -0.357 N 
ATOM     18  H   UNL     1      34.719 -21.177 -18.600  0.00  0.00    +0.142 HD
ATOM     19  H   UNL     1      33.957 -22.607 -19.130  0.00  0.00    +0.142 HD
ENDBRANCH   9  17
BRANCH  10  20
ATOM     20  N   UNL     1      35.636 -24.388 -13.445  0.00  0.00    -0.357 N 
ATOM     21  H   UNL     1      35.131 -24.177 -12.627  0.00  0.00    +0.142 HD
ATOM     22  H   UNL     1      36.411 -24.994 -13.402  0.00  0.00    +0.142 HD
ENDBRANCH  10  20
BRANCH  11  23
ATOM     23  O   UNL     1      29.424 -22.840 -17.487  0.00  0.00    -0.505 OA
ATOM     24  H   UNL     1      28.516 -22.776 -17.712  0.00  0.00    +0.292 HD
ENDBRANCH  11  23
BRANCH  12  25
ATOM     25  O   UNL     1      30.621 -25.088 -12.595  0.00  0.00    -0.505 OA
ATOM     26  H   UNL     1      30.131 -25.842 -12.333  0.00  0.00    +0.292 HD
ENDBRANCH  12  25
TORSDOF 4
ENDMDL
