MODEL 1
REMARK VINA RESULT:      -6.4      0.000      0.000
REMARK  Name = 2723
REMARK  1 active torsions:
REMARK  status: ('A' for Active; 'I' for Inactive)
REMARK    1  A    between atoms: C_7  and  O_10
REMARK                            x       y       z     vdW  Elec       q    Type
REMARK                         _______ _______ _______ _____ _____    ______ ____
ROOT
ATOM      1 CL   UNL     1      35.215 -17.357 -21.212  0.00  0.00    -0.083 Cl
ATOM      2  C   UNL     1      34.725 -17.712 -23.856  0.00  0.00    -0.009 C 
ATOM      3  C   UNL     1      34.316 -15.500 -22.973  0.00  0.00    -0.009 C 
ATOM      4  C   UNL     1      34.720 -16.821 -22.783  0.00  0.00    +0.050 C 
ATOM      5  C   UNL     1      34.324 -17.280 -25.121  0.00  0.00    +0.033 C 
ATOM      6  C   UNL     1      33.915 -15.069 -24.238  0.00  0.00    +0.033 C 
ATOM      7  C   UNL     1      33.920 -15.959 -25.312  0.00  0.00    +0.133 C 
ATOM      8  C   UNL     1      35.149 -19.136 -23.698  0.00  0.00    +0.032 C 
ATOM      9  C   UNL     1      34.297 -14.511 -21.853  0.00  0.00    +0.032 C 
ENDROOT
BRANCH   7  10
ATOM     10  O   UNL     1      33.528 -15.539 -26.547  0.00  0.00    -0.506 OA
ATOM     11  H   UNL     1      32.774 -15.919 -26.953  0.00  0.00    +0.292 HD
ENDBRANCH   7  10
TORSDOF 1
ENDMDL
MODEL 2
REMARK VINA RESULT:      -6.4      0.057      2.728
REMARK  Name = 2723
REMARK  1 active torsions:
REMARK  status: ('A' for Active; 'I' for Inactive)
REMARK    1  A    between atoms: C_7  and  O_10
REMARK                            x       y       z     vdW  Elec       q    Type
REMARK                         _______ _______ _______ _____ _____    ______ ____
ROOT
ATOM      1 CL   UNL     1      35.185 -17.295 -21.218  0.00  0.00    -0.083 Cl
ATOM      2  C   UNL     1      34.271 -15.456 -22.990  0.00  0.00    -0.009 C 
ATOM      3  C   UNL     1      34.717 -17.664 -23.864  0.00  0.00    -0.009 C 
ATOM      4  C   UNL     1      34.693 -16.771 -22.793  0.00  0.00    +0.050 C 
ATOM      5  C   UNL     1      33.875 -15.034 -24.259  0.00  0.00    +0.033 C 
ATOM      6  C   UNL     1      34.322 -17.241 -25.134  0.00  0.00    +0.033 C 
ATOM      7  C   UNL     1      33.900 -15.927 -25.331  0.00  0.00    +0.133 C 
ATOM      8  C   UNL     1      34.229 -14.465 -21.871  0.00  0.00    +0.032 C 
ATOM      9  C   UNL     1      35.160 -19.082 -23.700  0.00  0.00    +0.032 C 
ENDROOT
BRANCH   7  10
ATOM     10  O   UNL     1      33.514 -15.514 -26.570  0.00  0.00    -0.506 OA
ATOM     11  H   UNL     1      33.629 -16.080 -27.308  0.00  0.00    +0.292 HD
ENDBRANCH   7  10
TORSDOF 1
ENDMDL
MODEL 3
REMARK VINA RESULT:      -6.3      2.649      3.477
REMARK  Name = 2723
REMARK  1 active torsions:
REMARK  status: ('A' for Active; 'I' for Inactive)
REMARK    1  A    between atoms: C_7  and  O_10
REMARK                            x       y       z     vdW  Elec       q    Type
REMARK                         _______ _______ _______ _____ _____    ______ ____
ROOT
ATOM      1 CL   UNL     1      34.915 -19.607 -24.321  0.00  0.00    -0.083 Cl
ATOM      2  C   UNL     1      34.954 -18.482 -21.852  0.00  0.00    -0.009 C 
ATOM      3  C   UNL     1      34.796 -16.963 -23.725  0.00  0.00    -0.009 C 
ATOM      4  C   UNL     1      34.886 -18.263 -23.228  0.00  0.00    +0.050 C 
ATOM      5  C   UNL     1      34.932 -17.399 -20.973  0.00  0.00    +0.033 C 
ATOM      6  C   UNL     1      34.774 -15.880 -22.845  0.00  0.00    +0.033 C 
ATOM      7  C   UNL     1      34.842 -16.099 -21.469  0.00  0.00    +0.133 C 
ATOM      8  C   UNL     1      35.053 -19.858 -21.276  0.00  0.00    +0.032 C 
ATOM      9  C   UNL     1      34.719 -16.681 -25.191  0.00  0.00    +0.032 C 
ENDROOT
BRANCH   7  10
ATOM     10  O   UNL     1      34.821 -15.042 -20.610  0.00  0.00    -0.506 OA
ATOM     11  H   UNL     1      34.453 -14.225 -20.883  0.00  0.00    +0.292 HD
ENDBRANCH   7  10
TORSDOF 1
ENDMDL
MODEL 4
REMARK VINA RESULT:      -6.3      2.648      3.793
REMARK  Name = 2723
REMARK  1 active torsions:
REMARK  status: ('A' for Active; 'I' for Inactive)
REMARK    1  A    between atoms: C_7  and  O_10
REMARK                            x       y       z     vdW  Elec       q    Type
REMARK                         _______ _______ _______ _____ _____    ______ ____
ROOT
ATOM      1 CL   UNL     1      34.924 -19.560 -24.330  0.00  0.00    -0.083 Cl
ATOM      2  C   UNL     1      34.750 -16.924 -23.713  0.00  0.00    -0.009 C 
ATOM      3  C   UNL     1      35.028 -18.447 -21.858  0.00  0.00    -0.009 C 
ATOM      4  C   UNL     1      34.899 -18.224 -23.229  0.00  0.00    +0.050 C 
ATOM      5  C   UNL     1      34.728 -15.848 -22.826  0.00  0.00    +0.033 C 
ATOM      6  C   UNL     1      35.006 -17.371 -20.971  0.00  0.00    +0.033 C 
ATOM      7  C   UNL     1      34.857 -16.072 -21.455  0.00  0.00    +0.133 C 
ATOM      8  C   UNL     1      34.607 -16.638 -25.174  0.00  0.00    +0.032 C 
ATOM      9  C   UNL     1      35.192 -19.822 -21.295  0.00  0.00    +0.032 C 
ENDROOT
BRANCH   7  10
ATOM     10  O   UNL     1      34.835 -15.021 -20.589  0.00  0.00    -0.506 OA
ATOM     11  H   UNL     1      34.030 -14.571 -20.419  0.00  0.00    +0.292 HD
ENDBRANCH   7  10
TORSDOF 1
ENDMDL
MODEL 5
REMARK VINA RESULT:      -6.2      1.401      1.673
REMARK  Name = 2723
REMARK  1 active torsions:
REMARK  status: ('A' for Active; 'I' for Inactive)
REMARK    1  A    between atoms: C_7  and  O_10
REMARK                            x       y       z     vdW  Elec       q    Type
REMARK                         _______ _______ _______ _____ _____    ______ ____
ROOT
ATOM      1 CL   UNL     1      34.603 -15.506 -20.341  0.00  0.00    -0.083 Cl
ATOM      2  C   UNL     1      35.129 -17.314 -22.294  0.00  0.00    -0.009 C 
ATOM      3  C   UNL     1      34.170 -15.212 -23.003  0.00  0.00    -0.009 C 
ATOM      4  C   UNL     1      34.636 -16.046 -21.986  0.00  0.00    +0.050 C 
ATOM      5  C   UNL     1      35.155 -17.749 -23.619  0.00  0.00    +0.033 C 
ATOM      6  C   UNL     1      34.195 -15.648 -24.328  0.00  0.00    +0.033 C 
ATOM      7  C   UNL     1      34.687 -16.916 -24.636  0.00  0.00    +0.133 C 
ATOM      8  C   UNL     1      35.637 -18.240 -21.237  0.00  0.00    +0.032 C 
ATOM      9  C   UNL     1      33.635 -13.846 -22.720  0.00  0.00    +0.032 C 
ENDROOT
BRANCH   7  10
ATOM     10  O   UNL     1      34.712 -17.341 -25.930  0.00  0.00    -0.506 OA
ATOM     11  H   UNL     1      34.788 -18.255 -26.120  0.00  0.00    +0.292 HD
ENDBRANCH   7  10
TORSDOF 1
ENDMDL
MODEL 6
REMARK VINA RESULT:      -6.2      2.785      3.477
REMARK  Name = 2723
REMARK  1 active torsions:
REMARK  status: ('A' for Active; 'I' for Inactive)
REMARK    1  A    between atoms: C_7  and  O_10
REMARK                            x       y       z     vdW  Elec       q    Type
REMARK                         _______ _______ _______ _____ _____    ______ ____
ROOT
ATOM      1 CL   UNL     1      34.223 -14.563 -23.621  0.00  0.00    -0.083 Cl
ATOM      2  C   UNL     1      34.828 -17.204 -23.760  0.00  0.00    -0.009 C 
ATOM      3  C   UNL     1      34.718 -16.241 -21.547  0.00  0.00    -0.009 C 
ATOM      4  C   UNL     1      34.615 -16.103 -22.931  0.00  0.00    +0.050 C 
ATOM      5  C   UNL     1      35.145 -18.444 -23.204  0.00  0.00    +0.033 C 
ATOM      6  C   UNL     1      35.035 -17.480 -20.992  0.00  0.00    +0.033 C 
ATOM      7  C   UNL     1      35.248 -18.581 -21.821  0.00  0.00    +0.133 C 
ATOM      8  C   UNL     1      34.730 -17.102 -25.248  0.00  0.00    +0.032 C 
ATOM      9  C   UNL     1      34.496 -15.089 -20.620  0.00  0.00    +0.032 C 
ENDROOT
BRANCH   7  10
ATOM     10  O   UNL     1      35.559 -19.792 -21.278  0.00  0.00    -0.506 OA
ATOM     11  H   UNL     1      34.946 -20.499 -21.330  0.00  0.00    +0.292 HD
ENDBRANCH   7  10
TORSDOF 1
ENDMDL
MODEL 7
REMARK VINA RESULT:      -6.2      2.870      4.327
REMARK  Name = 2723
REMARK  1 active torsions:
REMARK  status: ('A' for Active; 'I' for Inactive)
REMARK    1  A    between atoms: C_7  and  O_10
REMARK                            x       y       z     vdW  Elec       q    Type
REMARK                         _______ _______ _______ _____ _____    ______ ____
ROOT
ATOM      1 CL   UNL     1      33.532 -14.999 -24.272  0.00  0.00    -0.083 Cl
ATOM      2  C   UNL     1      34.373 -15.805 -21.822  0.00  0.00    -0.009 C 
ATOM      3  C   UNL     1      34.766 -17.334 -23.651  0.00  0.00    -0.009 C 
ATOM      4  C   UNL     1      34.272 -16.119 -23.177  0.00  0.00    +0.050 C 
ATOM      5  C   UNL     1      34.968 -16.707 -20.940  0.00  0.00    +0.033 C 
ATOM      6  C   UNL     1      35.361 -18.236 -22.769  0.00  0.00    +0.033 C 
ATOM      7  C   UNL     1      35.462 -17.922 -21.414  0.00  0.00    +0.133 C 
ATOM      8  C   UNL     1      33.855 -14.515 -21.270  0.00  0.00    +0.032 C 
ATOM      9  C   UNL     1      34.682 -17.711 -25.095  0.00  0.00    +0.032 C 
ENDROOT
BRANCH   7  10
ATOM     10  O   UNL     1      36.042 -18.803 -20.552  0.00  0.00    -0.506 OA
ATOM     11  H   UNL     1      35.945 -19.725 -20.690  0.00  0.00    +0.292 HD
ENDBRANCH   7  10
TORSDOF 1
ENDMDL
MODEL 8
REMARK VINA RESULT:      -6.1      4.297      5.439
REMARK  Name = 2723
REMARK  1 active torsions:
REMARK  status: ('A' for Active; 'I' for Inactive)
REMARK    1  A    between atoms: C_7  and  O_10
REMARK                            x       y       z     vdW  Elec       q    Type
REMARK                         _______ _______ _______ _____ _____    ______ ____
ROOT
ATOM      1 CL   UNL     1      33.667 -21.926 -18.926  0.00  0.00    -0.083 Cl
ATOM      2  C   UNL     1      35.978 -20.770 -19.751  0.00  0.00    -0.009 C 
ATOM      3  C   UNL     1      33.946 -19.967 -20.782  0.00  0.00    -0.009 C 
ATOM      4  C   UNL     1      34.590 -20.815 -19.882  0.00  0.00    +0.050 C 
ATOM      5  C   UNL     1      36.722 -19.876 -20.522  0.00  0.00    +0.033 C 
ATOM      6  C   UNL     1      34.690 -19.074 -21.553  0.00  0.00    +0.033 C 
ATOM      7  C   UNL     1      36.077 -19.028 -21.422  0.00  0.00    +0.133 C 
ATOM      8  C   UNL     1      36.710 -21.661 -18.800  0.00  0.00    +0.032 C 
ATOM      9  C   UNL     1      32.461 -19.980 -20.953  0.00  0.00    +0.032 C 
ENDROOT
BRANCH   7  10
ATOM     10  O   UNL     1      36.804 -18.156 -22.175  0.00  0.00    -0.506 OA
ATOM     11  H   UNL     1      36.422 -17.346 -22.453  0.00  0.00    +0.292 HD
ENDBRANCH   7  10
TORSDOF 1
ENDMDL
MODEL 9
REMARK VINA RESULT:      -6.1      4.307      5.642
REMARK  Name = 2723
REMARK  1 active torsions:
REMARK  status: ('A' for Active; 'I' for Inactive)
REMARK    1  A    between atoms: C_7  and  O_10
REMARK                            x       y       z     vdW  Elec       q    Type
REMARK                         _______ _______ _______ _____ _____    ______ ____
ROOT
ATOM      1 CL   UNL     1      33.668 -21.938 -18.912  0.00  0.00    -0.083 Cl
ATOM      2  C   UNL     1      33.937 -19.981 -20.772  0.00  0.00    -0.009 C 
ATOM      3  C   UNL     1      35.973 -20.773 -19.741  0.00  0.00    -0.009 C 
ATOM      4  C   UNL     1      34.586 -20.825 -19.871  0.00  0.00    +0.050 C 
ATOM      5  C   UNL     1      34.676 -19.084 -21.543  0.00  0.00    +0.033 C 
ATOM      6  C   UNL     1      36.713 -19.876 -20.512  0.00  0.00    +0.033 C 
ATOM      7  C   UNL     1      36.064 -19.032 -21.413  0.00  0.00    +0.133 C 
ATOM      8  C   UNL     1      32.452 -20.002 -20.942  0.00  0.00    +0.032 C 
ATOM      9  C   UNL     1      36.711 -21.660 -18.790  0.00  0.00    +0.032 C 
ENDROOT
BRANCH   7  10
ATOM     10  O   UNL     1      36.786 -18.155 -22.165  0.00  0.00    -0.506 OA
ATOM     11  H   UNL     1      37.620 -17.856 -21.862  0.00  0.00    +0.292 HD
ENDBRANCH   7  10
TORSDOF 1
ENDMDL
