MODEL 1
REMARK VINA RESULT:     -12.8      0.000      0.000
REMARK  Name = 446399
REMARK  4 active torsions:
REMARK  status: ('A' for Active; 'I' for Inactive)
REMARK    1  A    between atoms: N_3  and  S_21
REMARK    2  A    between atoms: C_4  and  C_10
REMARK    3  A    between atoms: N_9  and  C_16
REMARK    4  A    between atoms: S_21  and  C_25
REMARK                            x       y       z     vdW  Elec       q    Type
REMARK                         _______ _______ _______ _____ _____    ______ ____
ROOT
ATOM      1  O   UNL     1      33.241 -13.450 -25.880  0.00  0.00    -0.275 OA
ATOM      2  N   UNL     1      33.547 -14.908 -24.098  0.00  0.00    -0.277 N 
ATOM      3  N   UNL     1      34.777 -17.335 -23.264  0.00  0.00    -0.152 NA
ATOM      4  C   UNL     1      33.404 -13.646 -24.673  0.00  0.00    +0.225 C 
ATOM      5  C   UNL     1      33.743 -15.176 -22.668  0.00  0.00    +0.113 C 
ATOM      6  C   UNL     1      33.438 -16.108 -24.929  0.00  0.00    +0.113 C 
ATOM      7  C   UNL     1      34.942 -16.093 -22.450  0.00  0.00    +0.117 C 
ATOM      8  C   UNL     1      34.638 -17.025 -24.720  0.00  0.00    +0.117 C 
ENDROOT
BRANCH   4  10
ATOM      9  N   UNL     1      32.509  -9.876 -22.888  0.00  0.00    -0.307 N 
ATOM     10  C   UNL     1      33.459 -12.467 -23.734  0.00  0.00    +0.080 C 
ATOM     11  C   UNL     1      32.106 -12.301 -23.048  0.00  0.00    +0.031 C 
ATOM     12  C   UNL     1      33.814 -11.199 -24.505  0.00  0.00    +0.031 C 
ATOM     13  C   UNL     1      32.084 -11.068 -22.145  0.00  0.00    +0.091 C 
ATOM     14  C   UNL     1      33.794  -9.972 -23.596  0.00  0.00    +0.091 C 
BRANCH   9  16
ATOM     15  N   UNL     1      31.310  -6.057 -21.547  0.00  0.00    -0.242 NA
ATOM     16  C   UNL     1      32.112  -8.609 -22.444  0.00  0.00    +0.051 C 
ATOM     17  C   UNL     1      32.554  -8.103 -21.212  0.00  0.00    +0.035 C 
ATOM     18  C   UNL     1      31.257  -7.807 -23.216  0.00  0.00    +0.035 C 
ATOM     19  C   UNL     1      32.132  -6.843 -20.817  0.00  0.00    +0.100 C 
ATOM     20  C   UNL     1      30.893  -6.561 -22.731  0.00  0.00    +0.100 C 
ENDBRANCH   9  16
ENDBRANCH   4  10
BRANCH   3  21
ATOM     21  S   UNL     1      35.856 -18.610 -22.887  0.00  0.00    +0.063 S 
ATOM     22  O   UNL     1      37.008 -18.066 -22.202  0.00  0.00    -0.153 OA
ATOM     23  O   UNL     1      36.010 -19.453 -24.052  0.00  0.00    -0.153 OA
BRANCH  21  25
ATOM     24 CL   UNL     1      32.279 -23.328 -16.834  0.00  0.00    -0.082 Cl
ATOM     25  C   UNL     1      34.889 -19.491 -21.702  0.00  0.00    +0.122 C 
ATOM     26  C   UNL     1      35.517 -20.361 -20.827  0.00  0.00    +0.020 C 
ATOM     27  C   UNL     1      33.521 -19.295 -21.667  0.00  0.00    +0.020 C 
ATOM     28  C   UNL     1      34.762 -21.070 -19.878  0.00  0.00    +0.001 C 
ATOM     29  C   UNL     1      33.360 -20.881 -19.829  0.00  0.00    +0.001 C 
ATOM     30  C   UNL     1      32.755 -19.991 -20.730  0.00  0.00    +0.001 C 
ATOM     31  C   UNL     1      35.367 -21.960 -18.976  0.00  0.00    +0.001 C 
ATOM     32  C   UNL     1      32.604 -21.589 -18.879  0.00  0.00    +0.011 C 
ATOM     33  C   UNL     1      34.600 -22.656 -18.040  0.00  0.00    +0.011 C 
ATOM     34  C   UNL     1      33.222 -22.470 -17.992  0.00  0.00    +0.058 C 
ENDBRANCH  21  25
ENDBRANCH   3  21
TORSDOF 4
ENDMDL
MODEL 2
REMARK VINA RESULT:     -11.6      1.730      2.256
REMARK  Name = 446399
REMARK  4 active torsions:
REMARK  status: ('A' for Active; 'I' for Inactive)
REMARK    1  A    between atoms: N_3  and  S_21
REMARK    2  A    between atoms: C_4  and  C_10
REMARK    3  A    between atoms: N_9  and  C_16
REMARK    4  A    between atoms: S_21  and  C_25
REMARK                            x       y       z     vdW  Elec       q    Type
REMARK                         _______ _______ _______ _____ _____    ______ ____
ROOT
ATOM      1  O   UNL     1      32.109 -13.615 -20.040  0.00  0.00    -0.275 OA
ATOM      2  N   UNL     1      33.675 -14.480 -21.522  0.00  0.00    -0.277 N 
ATOM      3  N   UNL     1      34.895 -16.862 -22.488  0.00  0.00    -0.152 NA
ATOM      4  C   UNL     1      32.676 -13.587 -21.136  0.00  0.00    +0.225 C 
ATOM      5  C   UNL     1      34.368 -14.474 -22.816  0.00  0.00    +0.113 C 
ATOM      6  C   UNL     1      34.161 -15.488 -20.579  0.00  0.00    +0.113 C 
ATOM      7  C   UNL     1      34.340 -15.862 -23.450  0.00  0.00    +0.117 C 
ATOM      8  C   UNL     1      34.129 -16.878 -21.205  0.00  0.00    +0.117 C 
ENDROOT
BRANCH   4  10
ATOM      9  N   UNL     1      32.342  -9.809 -23.088  0.00  0.00    -0.307 N 
ATOM     10  C   UNL     1      32.284 -12.536 -22.143  0.00  0.00    +0.080 C 
ATOM     11  C   UNL     1      33.541 -11.936 -22.767  0.00  0.00    +0.031 C 
ATOM     12  C   UNL     1      31.463 -11.441 -21.466  0.00  0.00    +0.031 C 
ATOM     13  C   UNL     1      33.201 -10.806 -23.738  0.00  0.00    +0.091 C 
ATOM     14  C   UNL     1      31.123 -10.318 -22.443  0.00  0.00    +0.091 C 
BRANCH   9  16
ATOM     15  N   UNL     1      32.244  -5.862 -24.582  0.00  0.00    -0.242 NA
ATOM     16  C   UNL     1      32.309  -8.500 -23.584  0.00  0.00    +0.051 C 
ATOM     17  C   UNL     1      33.495  -7.800 -23.858  0.00  0.00    +0.035 C 
ATOM     18  C   UNL     1      31.090  -7.846 -23.821  0.00  0.00    +0.035 C 
ATOM     19  C   UNL     1      33.409  -6.507 -24.348  0.00  0.00    +0.100 C 
ATOM     20  C   UNL     1      31.112  -6.551 -24.313  0.00  0.00    +0.100 C 
ENDBRANCH   9  16
ENDBRANCH   4  10
BRANCH   3  21
ATOM     21  S   UNL     1      35.246 -18.402 -23.151  0.00  0.00    +0.063 S 
ATOM     22  O   UNL     1      36.680 -18.559 -23.246  0.00  0.00    -0.153 OA
ATOM     23  O   UNL     1      34.392 -18.623 -24.298  0.00  0.00    -0.153 OA
BRANCH  21  25
ATOM     24 CL   UNL     1      33.687 -23.512 -16.582  0.00  0.00    -0.082 Cl
ATOM     25  C   UNL     1      34.673 -19.437 -21.840  0.00  0.00    +0.122 C 
ATOM     26  C   UNL     1      35.595 -20.031 -20.995  0.00  0.00    +0.020 C 
ATOM     27  C   UNL     1      33.315 -19.636 -21.681  0.00  0.00    +0.020 C 
ATOM     28  C   UNL     1      35.156 -20.858 -19.947  0.00  0.00    +0.001 C 
ATOM     29  C   UNL     1      33.768 -21.072 -19.770  0.00  0.00    +0.001 C 
ATOM     30  C   UNL     1      32.861 -20.454 -20.645  0.00  0.00    +0.001 C 
ATOM     31  C   UNL     1      36.064 -21.476 -19.071  0.00  0.00    +0.001 C 
ATOM     32  C   UNL     1      33.329 -21.898 -18.721  0.00  0.00    +0.011 C 
ATOM     33  C   UNL     1      35.609 -22.294 -18.036  0.00  0.00    +0.011 C 
ATOM     34  C   UNL     1      34.245 -22.504 -17.862  0.00  0.00    +0.058 C 
ENDBRANCH  21  25
ENDBRANCH   3  21
TORSDOF 4
ENDMDL
MODEL 3
REMARK VINA RESULT:     -11.6      4.599     11.623
REMARK  Name = 446399
REMARK  4 active torsions:
REMARK  status: ('A' for Active; 'I' for Inactive)
REMARK    1  A    between atoms: N_3  and  S_21
REMARK    2  A    between atoms: C_4  and  C_10
REMARK    3  A    between atoms: N_9  and  C_16
REMARK    4  A    between atoms: S_21  and  C_25
REMARK                            x       y       z     vdW  Elec       q    Type
REMARK                         _______ _______ _______ _____ _____    ______ ____
ROOT
ATOM      1  O   UNL     1      33.724 -16.387 -25.407  0.00  0.00    -0.275 OA
ATOM      2  N   UNL     1      33.976 -14.677 -23.856  0.00  0.00    -0.277 N 
ATOM      3  N   UNL     1      32.763 -12.362 -22.730  0.00  0.00    -0.152 NA
ATOM      4  C   UNL     1      34.119 -15.987 -24.309  0.00  0.00    +0.225 C 
ATOM      5  C   UNL     1      34.433 -14.169 -22.557  0.00  0.00    +0.113 C 
ATOM      6  C   UNL     1      33.385 -13.661 -24.729  0.00  0.00    +0.113 C 
ATOM      7  C   UNL     1      33.308 -13.431 -21.839  0.00  0.00    +0.117 C 
ATOM      8  C   UNL     1      32.255 -12.924 -24.018  0.00  0.00    +0.117 C 
ENDROOT
BRANCH   4  10
ATOM      9  N   UNL     1      34.702 -19.176 -21.536  0.00  0.00    -0.307 N 
ATOM     10  C   UNL     1      34.803 -16.953 -23.374  0.00  0.00    +0.080 C 
ATOM     11  C   UNL     1      34.576 -18.381 -23.864  0.00  0.00    +0.031 C 
ATOM     12  C   UNL     1      34.253 -16.792 -21.959  0.00  0.00    +0.031 C 
ATOM     13  C   UNL     1      35.182 -19.405 -22.904  0.00  0.00    +0.091 C 
ATOM     14  C   UNL     1      34.865 -17.815 -21.006  0.00  0.00    +0.091 C 
BRANCH   9  16
ATOM     15  N   UNL     1      34.744 -22.358 -18.762  0.00  0.00    -0.242 NA
ATOM     16  C   UNL     1      34.716 -20.232 -20.616  0.00  0.00    +0.051 C 
ATOM     17  C   UNL     1      33.521 -20.796 -20.144  0.00  0.00    +0.035 C 
ATOM     18  C   UNL     1      35.927 -20.757 -20.137  0.00  0.00    +0.035 C 
ATOM     19  C   UNL     1      33.589 -21.839 -19.234  0.00  0.00    +0.100 C 
ATOM     20  C   UNL     1      35.886 -21.802 -19.227  0.00  0.00    +0.100 C 
ENDBRANCH   9  16
ENDBRANCH   4  10
BRANCH   3  21
ATOM     21  S   UNL     1      31.730 -11.228 -21.968  0.00  0.00    +0.063 S 
ATOM     22  O   UNL     1      32.114 -11.097 -20.580  0.00  0.00    -0.153 OA
ATOM     23  O   UNL     1      30.362 -11.516 -22.341  0.00  0.00    -0.153 OA
BRANCH  21  25
ATOM     24 CL   UNL     1      32.915  -3.817 -25.888  0.00  0.00    -0.082 Cl
ATOM     25  C   UNL     1      32.222  -9.754 -22.806  0.00  0.00    +0.122 C 
ATOM     26  C   UNL     1      31.276  -8.779 -23.075  0.00  0.00    +0.020 C 
ATOM     27  C   UNL     1      33.544  -9.598 -23.179  0.00  0.00    +0.020 C 
ATOM     28  C   UNL     1      31.651  -7.600 -23.741  0.00  0.00    +0.001 C 
ATOM     29  C   UNL     1      33.001  -7.425 -24.129  0.00  0.00    +0.001 C 
ATOM     30  C   UNL     1      33.934  -8.433 -23.841  0.00  0.00    +0.001 C 
ATOM     31  C   UNL     1      30.717  -6.592 -24.029  0.00  0.00    +0.001 C 
ATOM     32  C   UNL     1      33.377  -6.246 -24.794  0.00  0.00    +0.011 C 
ATOM     33  C   UNL     1      31.108  -5.428 -24.691  0.00  0.00    +0.011 C 
ATOM     34  C   UNL     1      32.435  -5.255 -25.073  0.00  0.00    +0.058 C 
ENDBRANCH  21  25
ENDBRANCH   3  21
TORSDOF 4
ENDMDL
MODEL 4
REMARK VINA RESULT:     -11.3      4.731     11.707
REMARK  Name = 446399
REMARK  4 active torsions:
REMARK  status: ('A' for Active; 'I' for Inactive)
REMARK    1  A    between atoms: N_3  and  S_21
REMARK    2  A    between atoms: C_4  and  C_10
REMARK    3  A    between atoms: N_9  and  C_16
REMARK    4  A    between atoms: S_21  and  C_25
REMARK                            x       y       z     vdW  Elec       q    Type
REMARK                         _______ _______ _______ _____ _____    ______ ____
ROOT
ATOM      1  O   UNL     1      32.359 -21.654 -18.140  0.00  0.00    -0.275 OA
ATOM      2  N   UNL     1      34.005 -21.493 -19.771  0.00  0.00    -0.277 N 
ATOM      3  N   UNL     1      35.204 -19.784 -21.703  0.00  0.00    -0.152 NA
ATOM      4  C   UNL     1      33.490 -21.927 -18.550  0.00  0.00    +0.225 C 
ATOM      5  C   UNL     1      35.344 -21.799 -20.288  0.00  0.00    +0.113 C 
ATOM      6  C   UNL     1      33.165 -20.720 -20.686  0.00  0.00    +0.113 C 
ATOM      7  C   UNL     1      36.058 -20.523 -20.725  0.00  0.00    +0.117 C 
ATOM      8  C   UNL     1      33.871 -19.441 -21.122  0.00  0.00    +0.117 C 
ENDROOT
BRANCH   4  10
ATOM      9  N   UNL     1      35.646 -23.376 -15.166  0.00  0.00    -0.307 N 
ATOM     10  C   UNL     1      34.398 -22.779 -17.700  0.00  0.00    +0.080 C 
ATOM     11  C   UNL     1      33.602 -23.370 -16.540  0.00  0.00    +0.031 C 
ATOM     12  C   UNL     1      35.556 -21.940 -17.165  0.00  0.00    +0.031 C 
ATOM     13  C   UNL     1      34.496 -24.178 -15.600  0.00  0.00    +0.091 C 
ATOM     14  C   UNL     1      36.447 -22.754 -16.230  0.00  0.00    +0.091 C 
BRANCH   9  16
ATOM     15  N   UNL     1      37.624 -24.363 -11.570  0.00  0.00    -0.242 NA
ATOM     16  C   UNL     1      36.303 -23.703 -13.973  0.00  0.00    +0.051 C 
ATOM     17  C   UNL     1      37.590 -24.261 -13.985  0.00  0.00    +0.035 C 
ATOM     18  C   UNL     1      35.692 -23.484 -12.728  0.00  0.00    +0.035 C 
ATOM     19  C   UNL     1      38.197 -24.567 -12.777  0.00  0.00    +0.100 C 
ATOM     20  C   UNL     1      36.384 -23.825 -11.577  0.00  0.00    +0.100 C 
ENDBRANCH   9  16
ENDBRANCH   4  10
BRANCH   3  21
ATOM     21  S   UNL     1      35.985 -18.512 -22.545  0.00  0.00    +0.063 S 
ATOM     22  O   UNL     1      35.741 -18.665 -23.962  0.00  0.00    -0.153 OA
ATOM     23  O   UNL     1      37.329 -18.366 -22.030  0.00  0.00    -0.153 OA
BRANCH  21  25
ATOM     24 CL   UNL     1      31.203 -11.696 -21.010  0.00  0.00    -0.082 Cl
ATOM     25  C   UNL     1      35.033 -17.139 -21.977  0.00  0.00    +0.122 C 
ATOM     26  C   UNL     1      34.411 -16.317 -22.902  0.00  0.00    +0.020 C 
ATOM     27  C   UNL     1      34.924 -16.907 -20.619  0.00  0.00    +0.020 C 
ATOM     28  C   UNL     1      33.649 -15.219 -22.467  0.00  0.00    +0.001 C 
ATOM     29  C   UNL     1      33.528 -14.969 -21.079  0.00  0.00    +0.001 C 
ATOM     30  C   UNL     1      34.171 -15.821 -20.169  0.00  0.00    +0.001 C 
ATOM     31  C   UNL     1      33.006 -14.367 -23.378  0.00  0.00    +0.001 C 
ATOM     32  C   UNL     1      32.766 -13.872 -20.644  0.00  0.00    +0.011 C 
ATOM     33  C   UNL     1      32.253 -13.281 -22.928  0.00  0.00    +0.011 C 
ATOM     34  C   UNL     1      32.134 -13.034 -21.563  0.00  0.00    +0.058 C 
ENDBRANCH  21  25
ENDBRANCH   3  21
TORSDOF 4
ENDMDL
MODEL 5
REMARK VINA RESULT:     -11.3      3.089      5.023
REMARK  Name = 446399
REMARK  4 active torsions:
REMARK  status: ('A' for Active; 'I' for Inactive)
REMARK    1  A    between atoms: N_3  and  S_21
REMARK    2  A    between atoms: C_4  and  C_10
REMARK    3  A    between atoms: N_9  and  C_16
REMARK    4  A    between atoms: S_21  and  C_25
REMARK                            x       y       z     vdW  Elec       q    Type
REMARK                         _______ _______ _______ _____ _____    ______ ____
ROOT
ATOM      1  O   UNL     1      31.275 -10.306 -21.411  0.00  0.00    -0.275 OA
ATOM      2  N   UNL     1      32.812 -11.134 -22.943  0.00  0.00    -0.277 N 
ATOM      3  N   UNL     1      33.393 -13.269 -24.731  0.00  0.00    -0.152 NA
ATOM      4  C   UNL     1      32.099 -10.117 -22.310  0.00  0.00    +0.225 C 
ATOM      5  C   UNL     1      33.798 -10.944 -24.014  0.00  0.00    +0.113 C 
ATOM      6  C   UNL     1      32.657 -12.521 -22.503  0.00  0.00    +0.113 C 
ATOM      7  C   UNL     1      33.489 -11.854 -25.199  0.00  0.00    +0.117 C 
ATOM      8  C   UNL     1      32.341 -13.433 -23.682  0.00  0.00    +0.117 C 
ENDROOT
BRANCH   4  10
ATOM      9  N   UNL     1      31.506  -5.994 -23.227  0.00  0.00    -0.307 N 
ATOM     10  C   UNL     1      32.372  -8.710 -22.777  0.00  0.00    +0.080 C 
ATOM     11  C   UNL     1      32.161  -7.739 -21.618  0.00  0.00    +0.031 C 
ATOM     12  C   UNL     1      31.445  -8.352 -23.935  0.00  0.00    +0.031 C 
ATOM     13  C   UNL     1      32.347  -6.288 -22.061  0.00  0.00    +0.091 C 
ATOM     14  C   UNL     1      31.639  -6.903 -24.375  0.00  0.00    +0.091 C 
BRANCH   9  16
ATOM     15  N   UNL     1      30.402  -1.999 -24.033  0.00  0.00    -0.242 NA
ATOM     16  C   UNL     1      31.140  -4.669 -23.495  0.00  0.00    +0.051 C 
ATOM     17  C   UNL     1      31.016  -4.204 -24.813  0.00  0.00    +0.035 C 
ATOM     18  C   UNL     1      30.886  -3.764 -22.451  0.00  0.00    +0.035 C 
ATOM     19  C   UNL     1      30.651  -2.884 -25.024  0.00  0.00    +0.100 C 
ATOM     20  C   UNL     1      30.526  -2.464 -22.769  0.00  0.00    +0.100 C 
ENDBRANCH   9  16
ENDBRANCH   4  10
BRANCH   3  21
ATOM     21  S   UNL     1      33.384 -14.453 -25.969  0.00  0.00    +0.063 S 
ATOM     22  O   UNL     1      34.422 -14.142 -26.927  0.00  0.00    -0.153 OA
ATOM     23  O   UNL     1      32.018 -14.675 -26.394  0.00  0.00    -0.153 OA
BRANCH  21  25
ATOM     24 CL   UNL     1      35.989 -20.458 -20.600  0.00  0.00    -0.082 Cl
ATOM     25  C   UNL     1      33.904 -15.865 -25.048  0.00  0.00    +0.122 C 
ATOM     26  C   UNL     1      34.242 -15.717 -23.713  0.00  0.00    +0.020 C 
ATOM     27  C   UNL     1      33.963 -17.096 -25.674  0.00  0.00    +0.020 C 
ATOM     28  C   UNL     1      34.658 -16.831 -22.966  0.00  0.00    +0.001 C 
ATOM     29  C   UNL     1      34.724 -18.099 -23.592  0.00  0.00    +0.001 C 
ATOM     30  C   UNL     1      34.373 -18.214 -24.946  0.00  0.00    +0.001 C 
ATOM     31  C   UNL     1      35.008 -16.715 -21.611  0.00  0.00    +0.001 C 
ATOM     32  C   UNL     1      35.139 -19.214 -22.844  0.00  0.00    +0.011 C 
ATOM     33  C   UNL     1      35.419 -17.834 -20.884  0.00  0.00    +0.011 C 
ATOM     34  C   UNL     1      35.484 -19.080 -21.500  0.00  0.00    +0.058 C 
ENDBRANCH  21  25
ENDBRANCH   3  21
TORSDOF 4
ENDMDL
MODEL 6
REMARK VINA RESULT:     -10.4      2.000      3.355
REMARK  Name = 446399
REMARK  4 active torsions:
REMARK  status: ('A' for Active; 'I' for Inactive)
REMARK    1  A    between atoms: N_3  and  S_21
REMARK    2  A    between atoms: C_4  and  C_10
REMARK    3  A    between atoms: N_9  and  C_16
REMARK    4  A    between atoms: S_21  and  C_25
REMARK                            x       y       z     vdW  Elec       q    Type
REMARK                         _______ _______ _______ _____ _____    ______ ____
ROOT
ATOM      1  O   UNL     1      34.832 -17.139 -25.767  0.00  0.00    -0.275 OA
ATOM      2  N   UNL     1      34.419 -18.025 -23.660  0.00  0.00    -0.277 N 
ATOM      3  N   UNL     1      35.428 -19.725 -21.614  0.00  0.00    -0.152 NA
ATOM      4  C   UNL     1      34.385 -17.018 -24.624  0.00  0.00    +0.225 C 
ATOM      5  C   UNL     1      33.897 -17.914 -22.293  0.00  0.00    +0.113 C 
ATOM      6  C   UNL     1      34.948 -19.346 -24.001  0.00  0.00    +0.113 C 
ATOM      7  C   UNL     1      34.948 -18.351 -21.277  0.00  0.00    +0.117 C 
ATOM      8  C   UNL     1      36.003 -19.786 -22.992  0.00  0.00    +0.117 C 
ENDROOT
BRANCH   4  10
ATOM      9  N   UNL     1      33.805 -12.827 -24.076  0.00  0.00    -0.307 N 
ATOM     10  C   UNL     1      33.759 -15.710 -24.211  0.00  0.00    +0.080 C 
ATOM     11  C   UNL     1      33.511 -14.852 -25.448  0.00  0.00    +0.031 C 
ATOM     12  C   UNL     1      34.676 -14.973 -23.238  0.00  0.00    +0.031 C 
ATOM     13  C   UNL     1      32.951 -13.479 -25.075  0.00  0.00    +0.091 C 
ATOM     14  C   UNL     1      34.107 -13.605 -22.867  0.00  0.00    +0.091 C 
BRANCH   9  16
ATOM     15  N   UNL     1      33.735  -8.622 -23.711  0.00  0.00    -0.242 NA
ATOM     16  C   UNL     1      33.782 -11.432 -23.956  0.00  0.00    +0.051 C 
ATOM     17  C   UNL     1      34.782 -10.639 -24.537  0.00  0.00    +0.035 C 
ATOM     18  C   UNL     1      32.757 -10.785 -23.248  0.00  0.00    +0.035 C 
ATOM     19  C   UNL     1      34.714  -9.262 -24.389  0.00  0.00    +0.100 C 
ATOM     20  C   UNL     1      32.779  -9.402 -23.158  0.00  0.00    +0.100 C 
ENDBRANCH   9  16
ENDBRANCH   4  10
BRANCH   3  21
ATOM     21  S   UNL     1      36.355 -20.498 -20.399  0.00  0.00    +0.063 S 
ATOM     22  O   UNL     1      36.999 -19.491 -19.585  0.00  0.00    -0.153 OA
ATOM     23  O   UNL     1      37.117 -21.570 -21.003  0.00  0.00    -0.153 OA
BRANCH  21  25
ATOM     24 CL   UNL     1      31.048 -24.370 -15.058  0.00  0.00    -0.082 Cl
ATOM     25  C   UNL     1      35.062 -21.223 -19.441  0.00  0.00    +0.122 C 
ATOM     26  C   UNL     1      35.384 -21.930 -18.294  0.00  0.00    +0.020 C 
ATOM     27  C   UNL     1      33.751 -21.072 -19.851  0.00  0.00    +0.020 C 
ATOM     28  C   UNL     1      34.366 -22.513 -17.520  0.00  0.00    +0.001 C 
ATOM     29  C   UNL     1      33.019 -22.367 -17.926  0.00  0.00    +0.001 C 
ATOM     30  C   UNL     1      32.728 -21.644 -19.094  0.00  0.00    +0.001 C 
ATOM     31  C   UNL     1      34.658 -23.236 -16.352  0.00  0.00    +0.001 C 
ATOM     32  C   UNL     1      32.001 -22.949 -17.152  0.00  0.00    +0.011 C 
ATOM     33  C   UNL     1      33.634 -23.808 -15.595  0.00  0.00    +0.011 C 
ATOM     34  C   UNL     1      32.308 -23.665 -15.995  0.00  0.00    +0.058 C 
ENDBRANCH  21  25
ENDBRANCH   3  21
TORSDOF 4
ENDMDL
MODEL 7
REMARK VINA RESULT:     -10.2      2.046      3.077
REMARK  Name = 446399
REMARK  4 active torsions:
REMARK  status: ('A' for Active; 'I' for Inactive)
REMARK    1  A    between atoms: N_3  and  S_21
REMARK    2  A    between atoms: C_4  and  C_10
REMARK    3  A    between atoms: N_9  and  C_16
REMARK    4  A    between atoms: S_21  and  C_25
REMARK                            x       y       z     vdW  Elec       q    Type
REMARK                         _______ _______ _______ _____ _____    ______ ____
ROOT
ATOM      1  O   UNL     1      30.800 -12.241 -20.745  0.00  0.00    -0.275 OA
ATOM      2  N   UNL     1      32.836 -13.074 -21.490  0.00  0.00    -0.277 N 
ATOM      3  N   UNL     1      34.136 -15.296 -22.701  0.00  0.00    -0.152 NA
ATOM      4  C   UNL     1      31.898 -12.064 -21.280  0.00  0.00    +0.225 C 
ATOM      5  C   UNL     1      34.149 -12.898 -22.123  0.00  0.00    +0.113 C 
ATOM      6  C   UNL     1      32.575 -14.429 -21.004  0.00  0.00    +0.113 C 
ATOM      7  C   UNL     1      34.352 -13.919 -23.239  0.00  0.00    +0.117 C 
ATOM      8  C   UNL     1      32.770 -15.453 -22.117  0.00  0.00    +0.117 C 
ENDROOT
BRANCH   4  10
ATOM      9  N   UNL     1      31.560  -7.976 -22.450  0.00  0.00    -0.307 N 
ATOM     10  C   UNL     1      32.278 -10.682 -21.748  0.00  0.00    +0.080 C 
ATOM     11  C   UNL     1      31.890  -9.660 -20.683  0.00  0.00    +0.031 C 
ATOM     12  C   UNL     1      31.571 -10.362 -23.063  0.00  0.00    +0.031 C 
ATOM     13  C   UNL     1      32.181  -8.232 -21.145  0.00  0.00    +0.091 C 
ATOM     14  C   UNL     1      31.869  -8.935 -23.520  0.00  0.00    +0.091 C 
BRANCH   9  16
ATOM     15  N   UNL     1      30.696  -4.005 -23.592  0.00  0.00    -0.242 NA
ATOM     16  C   UNL     1      31.273  -6.659 -22.829  0.00  0.00    +0.051 C 
ATOM     17  C   UNL     1      31.417  -6.241 -24.161  0.00  0.00    +0.035 C 
ATOM     18  C   UNL     1      30.833  -5.715 -21.888  0.00  0.00    +0.035 C 
ATOM     19  C   UNL     1      31.121  -4.927 -24.485  0.00  0.00    +0.100 C 
ATOM     20  C   UNL     1      30.563  -4.424 -22.314  0.00  0.00    +0.100 C 
ENDBRANCH   9  16
ENDBRANCH   4  10
BRANCH   3  21
ATOM     21  S   UNL     1      34.645 -16.572 -23.725  0.00  0.00    +0.063 S 
ATOM     22  O   UNL     1      35.934 -16.237 -24.290  0.00  0.00    -0.153 OA
ATOM     23  O   UNL     1      33.538 -16.964 -24.570  0.00  0.00    -0.153 OA
BRANCH  21  25
ATOM     24 CL   UNL     1      34.617 -22.822 -18.013  0.00  0.00    -0.082 Cl
ATOM     25  C   UNL     1      34.894 -17.845 -22.528  0.00  0.00    +0.122 C 
ATOM     26  C   UNL     1      33.798 -18.533 -22.034  0.00  0.00    +0.020 C 
ATOM     27  C   UNL     1      36.178 -18.135 -22.106  0.00  0.00    +0.020 C 
ATOM     28  C   UNL     1      33.979 -19.550 -21.081  0.00  0.00    +0.001 C 
ATOM     29  C   UNL     1      35.287 -19.859 -20.639  0.00  0.00    +0.001 C 
ATOM     30  C   UNL     1      36.375 -19.142 -21.161  0.00  0.00    +0.001 C 
ATOM     31  C   UNL     1      32.890 -20.267 -20.560  0.00  0.00    +0.001 C 
ATOM     32  C   UNL     1      35.468 -20.876 -19.687  0.00  0.00    +0.011 C 
ATOM     33  C   UNL     1      33.088 -21.274 -19.614  0.00  0.00    +0.011 C 
ATOM     34  C   UNL     1      34.375 -21.577 -19.178  0.00  0.00    +0.058 C 
ENDBRANCH  21  25
ENDBRANCH   3  21
TORSDOF 4
ENDMDL
MODEL 8
REMARK VINA RESULT:     -10.1      3.214      5.236
REMARK  Name = 446399
REMARK  4 active torsions:
REMARK  status: ('A' for Active; 'I' for Inactive)
REMARK    1  A    between atoms: N_3  and  S_21
REMARK    2  A    between atoms: C_4  and  C_10
REMARK    3  A    between atoms: N_9  and  C_16
REMARK    4  A    between atoms: S_21  and  C_25
REMARK                            x       y       z     vdW  Elec       q    Type
REMARK                         _______ _______ _______ _____ _____    ______ ____
ROOT
ATOM      1  O   UNL     1      31.190 -10.278 -21.311  0.00  0.00    -0.275 OA
ATOM      2  N   UNL     1      32.753 -11.059 -22.842  0.00  0.00    -0.277 N 
ATOM      3  N   UNL     1      33.363 -13.136 -24.688  0.00  0.00    -0.152 NA
ATOM      4  C   UNL     1      32.030 -10.062 -22.189  0.00  0.00    +0.225 C 
ATOM      5  C   UNL     1      33.757 -10.836 -23.889  0.00  0.00    +0.113 C 
ATOM      6  C   UNL     1      32.588 -12.459 -22.450  0.00  0.00    +0.113 C 
ATOM      7  C   UNL     1      33.468 -11.706 -25.109  0.00  0.00    +0.117 C 
ATOM      8  C   UNL     1      32.292 -13.332 -23.664  0.00  0.00    +0.117 C 
ENDROOT
BRANCH   4  10
ATOM      9  N   UNL     1      33.013  -6.700 -24.624  0.00  0.00    -0.307 N 
ATOM     10  C   UNL     1      32.312  -8.641 -22.605  0.00  0.00    +0.080 C 
ATOM     11  C   UNL     1      31.317  -8.219 -23.684  0.00  0.00    +0.031 C 
ATOM     12  C   UNL     1      33.739  -8.523 -23.136  0.00  0.00    +0.031 C 
ATOM     13  C   UNL     1      31.613  -6.810 -24.199  0.00  0.00    +0.091 C 
ATOM     14  C   UNL     1      34.028  -7.112 -23.645  0.00  0.00    +0.091 C 
BRANCH   9  16
ATOM     15  N   UNL     1      34.104  -3.729 -27.418  0.00  0.00    -0.242 NA
ATOM     16  C   UNL     1      33.375  -5.714 -25.551  0.00  0.00    +0.051 C 
ATOM     17  C   UNL     1      32.507  -4.655 -25.856  0.00  0.00    +0.035 C 
ATOM     18  C   UNL     1      34.617  -5.757 -26.204  0.00  0.00    +0.035 C 
ATOM     19  C   UNL     1      32.912  -3.705 -26.781  0.00  0.00    +0.100 C 
ATOM     20  C   UNL     1      34.928  -4.757 -27.112  0.00  0.00    +0.100 C 
ENDBRANCH   9  16
ENDBRANCH   4  10
BRANCH   3  21
ATOM     21  S   UNL     1      33.373 -14.278 -25.964  0.00  0.00    +0.063 S 
ATOM     22  O   UNL     1      34.424 -13.935 -26.897  0.00  0.00    -0.153 OA
ATOM     23  O   UNL     1      32.015 -14.489 -26.416  0.00  0.00    -0.153 OA
BRANCH  21  25
ATOM     24 CL   UNL     1      35.920 -20.449 -20.757  0.00  0.00    -0.082 Cl
ATOM     25  C   UNL     1      33.883 -15.719 -25.082  0.00  0.00    +0.122 C 
ATOM     26  C   UNL     1      34.209 -15.612 -23.740  0.00  0.00    +0.020 C 
ATOM     27  C   UNL     1      33.946 -16.931 -25.745  0.00  0.00    +0.020 C 
ATOM     28  C   UNL     1      34.617 -16.750 -23.023  0.00  0.00    +0.001 C 
ATOM     29  C   UNL     1      34.686 -17.998 -23.687  0.00  0.00    +0.001 C 
ATOM     30  C   UNL     1      34.348 -18.071 -25.048  0.00  0.00    +0.001 C 
ATOM     31  C   UNL     1      34.955 -16.676 -21.662  0.00  0.00    +0.001 C 
ATOM     32  C   UNL     1      35.093 -19.136 -22.970  0.00  0.00    +0.011 C 
ATOM     33  C   UNL     1      35.357 -17.816 -20.966  0.00  0.00    +0.011 C 
ATOM     34  C   UNL     1      35.426 -19.044 -21.619  0.00  0.00    +0.058 C 
ENDBRANCH  21  25
ENDBRANCH   3  21
TORSDOF 4
ENDMDL
