MODEL 1
REMARK VINA RESULT:      -5.2      0.000      0.000
REMARK  Name = 444266
REMARK  4 active torsions:
REMARK  status: ('A' for Active; 'I' for Inactive)
REMARK    1  A    between atoms: C_1  and  C_4
REMARK    2  A    between atoms: C_2  and  C_8
REMARK    3  A    between atoms: C_4  and  O_5
REMARK    4  A    between atoms: C_8  and  O_9
REMARK                            x       y       z     vdW  Elec       q    Type
REMARK                         _______ _______ _______ _____ _____    ______ ____
ROOT
ATOM      1  C   UNL     1      38.664 -24.812 -14.771  0.00  0.00    +0.088 C 
ATOM      2  C   UNL     1      37.384 -25.194 -14.858  0.00  0.00    +0.088 C 
ENDROOT
BRANCH   1   4
ATOM      3  O   UNL     1      40.190 -26.352 -13.807  0.00  0.00    -0.245 OA
ATOM      4  C   UNL     1      39.799 -25.757 -14.800  0.00  0.00    +0.338 C 
BRANCH   4   5
ATOM      5  O   UNL     1      40.346 -25.886 -16.029  0.00  0.00    -0.477 OA
ATOM      6  H   UNL     1      40.882 -25.201 -16.377  0.00  0.00    +0.295 HD
ENDBRANCH   4   5
ENDBRANCH   1   4
BRANCH   2   8
ATOM      7  O   UNL     1      36.824 -27.225 -16.030  0.00  0.00    -0.245 OA
ATOM      8  C   UNL     1      37.070 -26.630 -14.994  0.00  0.00    +0.338 C 
BRANCH   8   9
ATOM      9  O   UNL     1      37.098 -27.199 -13.765  0.00  0.00    -0.477 OA
ATOM     10  H   UNL     1      37.695 -27.898 -13.587  0.00  0.00    +0.295 HD
ENDBRANCH   8   9
ENDBRANCH   2   8
TORSDOF 4
ENDMDL
MODEL 2
REMARK VINA RESULT:      -5.2      0.050      3.338
REMARK  Name = 444266
REMARK  4 active torsions:
REMARK  status: ('A' for Active; 'I' for Inactive)
REMARK    1  A    between atoms: C_1  and  C_4
REMARK    2  A    between atoms: C_2  and  C_8
REMARK    3  A    between atoms: C_4  and  O_5
REMARK    4  A    between atoms: C_8  and  O_9
REMARK                            x       y       z     vdW  Elec       q    Type
REMARK                         _______ _______ _______ _____ _____    ______ ____
ROOT
ATOM      1  C   UNL     1      37.443 -25.206 -14.925  0.00  0.00    +0.088 C 
ATOM      2  C   UNL     1      38.703 -24.765 -14.835  0.00  0.00    +0.088 C 
ENDROOT
BRANCH   1   4
ATOM      3  O   UNL     1      36.810 -27.217 -16.014  0.00  0.00    -0.245 OA
ATOM      4  C   UNL     1      37.083 -26.638 -14.973  0.00  0.00    +0.338 C 
BRANCH   4   5
ATOM      5  O   UNL     1      37.090 -27.226 -13.756  0.00  0.00    -0.477 OA
ATOM      6  H   UNL     1      36.653 -28.045 -13.630  0.00  0.00    +0.295 HD
ENDBRANCH   4   5
ENDBRANCH   1   4
BRANCH   2   8
ATOM      7  O   UNL     1      40.182 -26.359 -13.794  0.00  0.00    -0.245 OA
ATOM      8  C   UNL     1      39.806 -25.746 -14.778  0.00  0.00    +0.338 C 
BRANCH   8   9
ATOM      9  O   UNL     1      40.348 -25.861 -16.014  0.00  0.00    -0.477 OA
ATOM     10  H   UNL     1      41.044 -26.470 -16.165  0.00  0.00    +0.295 HD
ENDBRANCH   8   9
ENDBRANCH   2   8
TORSDOF 4
ENDMDL
MODEL 3
REMARK VINA RESULT:      -5.1      1.289      1.574
REMARK  Name = 444266
REMARK  4 active torsions:
REMARK  status: ('A' for Active; 'I' for Inactive)
REMARK    1  A    between atoms: C_1  and  C_4
REMARK    2  A    between atoms: C_2  and  C_8
REMARK    3  A    between atoms: C_4  and  O_5
REMARK    4  A    between atoms: C_8  and  O_9
REMARK                            x       y       z     vdW  Elec       q    Type
REMARK                         _______ _______ _______ _____ _____    ______ ____
ROOT
ATOM      1  C   UNL     1      38.891 -25.793 -13.851  0.00  0.00    +0.088 C 
ATOM      2  C   UNL     1      37.627 -26.226 -13.942  0.00  0.00    +0.088 C 
ENDROOT
BRANCH   1   4
ATOM      3  O   UNL     1      40.563 -26.083 -15.509  0.00  0.00    -0.245 OA
ATOM      4  C   UNL     1      39.694 -25.377 -15.019  0.00  0.00    +0.338 C 
BRANCH   4   5
ATOM      5  O   UNL     1      39.365 -24.149 -15.476  0.00  0.00    -0.477 OA
ATOM      6  H   UNL     1      38.602 -23.716 -15.148  0.00  0.00    +0.295 HD
ENDBRANCH   4   5
ENDBRANCH   1   4
BRANCH   2   8
ATOM      7  O   UNL     1      36.886 -27.288 -15.975  0.00  0.00    -0.245 OA
ATOM      8  C   UNL     1      36.985 -26.298 -15.269  0.00  0.00    +0.338 C 
BRANCH   8   9
ATOM      9  O   UNL     1      36.514 -25.070 -15.590  0.00  0.00    -0.477 OA
ATOM     10  H   UNL     1      37.057 -24.468 -16.060  0.00  0.00    +0.295 HD
ENDBRANCH   8   9
ENDBRANCH   2   8
TORSDOF 4
ENDMDL
MODEL 4
REMARK VINA RESULT:      -4.9      1.937      3.335
REMARK  Name = 444266
REMARK  4 active torsions:
REMARK  status: ('A' for Active; 'I' for Inactive)
REMARK    1  A    between atoms: C_1  and  C_4
REMARK    2  A    between atoms: C_2  and  C_8
REMARK    3  A    between atoms: C_4  and  O_5
REMARK    4  A    between atoms: C_8  and  O_9
REMARK                            x       y       z     vdW  Elec       q    Type
REMARK                         _______ _______ _______ _____ _____    ______ ____
ROOT
ATOM      1  C   UNL     1      37.958 -24.536 -13.531  0.00  0.00    +0.088 C 
ATOM      2  C   UNL     1      39.074 -25.192 -13.189  0.00  0.00    +0.088 C 
ENDROOT
BRANCH   1   4
ATOM      3  O   UNL     1      37.927 -23.066 -15.394  0.00  0.00    -0.245 OA
ATOM      4  C   UNL     1      37.632 -24.155 -14.920  0.00  0.00    +0.338 C 
BRANCH   4   5
ATOM      5  O   UNL     1      36.983 -25.127 -15.597  0.00  0.00    -0.477 OA
ATOM      6  H   UNL     1      36.893 -25.070 -16.527  0.00  0.00    +0.295 HD
ENDBRANCH   4   5
ENDBRANCH   1   4
BRANCH   2   8
ATOM      7  O   UNL     1      41.031 -24.930 -14.573  0.00  0.00    -0.245 OA
ATOM      8  C   UNL     1      40.042 -25.562 -14.241  0.00  0.00    +0.338 C 
BRANCH   8   9
ATOM      9  O   UNL     1      39.654 -26.736 -14.793  0.00  0.00    -0.477 OA
ATOM     10  H   UNL     1      39.395 -27.449 -14.243  0.00  0.00    +0.295 HD
ENDBRANCH   8   9
ENDBRANCH   2   8
TORSDOF 4
ENDMDL
MODEL 5
REMARK VINA RESULT:      -4.8      2.092      2.425
REMARK  Name = 444266
REMARK  4 active torsions:
REMARK  status: ('A' for Active; 'I' for Inactive)
REMARK    1  A    between atoms: C_1  and  C_4
REMARK    2  A    between atoms: C_2  and  C_8
REMARK    3  A    between atoms: C_4  and  O_5
REMARK    4  A    between atoms: C_8  and  O_9
REMARK                            x       y       z     vdW  Elec       q    Type
REMARK                         _______ _______ _______ _____ _____    ______ ____
ROOT
ATOM      1  C   UNL     1      39.242 -25.624 -13.574  0.00  0.00    +0.088 C 
ATOM      2  C   UNL     1      38.016 -25.094 -13.479  0.00  0.00    +0.088 C 
ENDROOT
BRANCH   1   4
ATOM      3  O   UNL     1      41.128 -24.545 -14.527  0.00  0.00    -0.245 OA
ATOM      4  C   UNL     1      40.183 -25.308 -14.668  0.00  0.00    +0.338 C 
BRANCH   4   5
ATOM      5  O   UNL     1      39.886 -25.946 -15.821  0.00  0.00    -0.477 OA
ATOM      6  H   UNL     1      39.832 -25.463 -16.622  0.00  0.00    +0.295 HD
ENDBRANCH   4   5
ENDBRANCH   1   4
BRANCH   2   8
ATOM      7  O   UNL     1      37.652 -22.925 -14.465  0.00  0.00    -0.245 OA
ATOM      8  C   UNL     1      37.564 -24.140 -14.511  0.00  0.00    +0.338 C 
BRANCH   8   9
ATOM      9  O   UNL     1      37.024 -24.837 -15.539  0.00  0.00    -0.477 OA
ATOM     10  H   UNL     1      36.466 -25.570 -15.366  0.00  0.00    +0.295 HD
ENDBRANCH   8   9
ENDBRANCH   2   8
TORSDOF 4
ENDMDL
MODEL 6
REMARK VINA RESULT:      -4.8     10.824     12.019
REMARK  Name = 444266
REMARK  4 active torsions:
REMARK  status: ('A' for Active; 'I' for Inactive)
REMARK    1  A    between atoms: C_1  and  C_4
REMARK    2  A    between atoms: C_2  and  C_8
REMARK    3  A    between atoms: C_4  and  O_5
REMARK    4  A    between atoms: C_8  and  O_9
REMARK                            x       y       z     vdW  Elec       q    Type
REMARK                         _______ _______ _______ _____ _____    ______ ____
ROOT
ATOM      1  C   UNL     1      41.286 -14.416 -15.217  0.00  0.00    +0.088 C 
ATOM      2  C   UNL     1      41.530 -13.558 -16.214  0.00  0.00    +0.088 C 
ENDROOT
BRANCH   1   4
ATOM      3  O   UNL     1      42.134 -16.587 -15.665  0.00  0.00    -0.245 OA
ATOM      4  C   UNL     1      41.172 -15.876 -15.409  0.00  0.00    +0.338 C 
BRANCH   4   5
ATOM      5  O   UNL     1      39.907 -16.330 -15.272  0.00  0.00    -0.477 OA
ATOM      6  H   UNL     1      39.403 -16.091 -14.519  0.00  0.00    +0.295 HD
ENDBRANCH   4   5
ENDBRANCH   1   4
BRANCH   2   8
ATOM      7  O   UNL     1      40.825 -14.194 -18.430  0.00  0.00    -0.245 OA
ATOM      8  C   UNL     1      41.697 -14.078 -17.586  0.00  0.00    +0.338 C 
BRANCH   8   9
ATOM      9  O   UNL     1      42.997 -14.414 -17.767  0.00  0.00    -0.477 OA
ATOM     10  H   UNL     1      43.643 -14.131 -17.150  0.00  0.00    +0.295 HD
ENDBRANCH   8   9
ENDBRANCH   2   8
TORSDOF 4
ENDMDL
MODEL 7
REMARK VINA RESULT:      -4.8     10.810     11.870
REMARK  Name = 444266
REMARK  4 active torsions:
REMARK  status: ('A' for Active; 'I' for Inactive)
REMARK    1  A    between atoms: C_1  and  C_4
REMARK    2  A    between atoms: C_2  and  C_8
REMARK    3  A    between atoms: C_4  and  O_5
REMARK    4  A    between atoms: C_8  and  O_9
REMARK                            x       y       z     vdW  Elec       q    Type
REMARK                         _______ _______ _______ _____ _____    ______ ____
ROOT
ATOM      1  C   UNL     1      41.477 -13.615 -16.207  0.00  0.00    +0.088 C 
ATOM      2  C   UNL     1      41.228 -14.428 -15.174  0.00  0.00    +0.088 C 
ENDROOT
BRANCH   1   4
ATOM      3  O   UNL     1      40.830 -14.173 -18.421  0.00  0.00    -0.245 OA
ATOM      4  C   UNL     1      41.717 -14.096 -17.582  0.00  0.00    +0.338 C 
BRANCH   4   5
ATOM      5  O   UNL     1      43.005 -14.436 -17.806  0.00  0.00    -0.477 OA
ATOM      6  H   UNL     1      43.236 -14.916 -18.577  0.00  0.00    +0.295 HD
ENDBRANCH   4   5
ENDBRANCH   1   4
BRANCH   2   8
ATOM      7  O   UNL     1      42.134 -16.607 -15.668  0.00  0.00    -0.245 OA
ATOM      8  C   UNL     1      41.187 -15.887 -15.401  0.00  0.00    +0.338 C 
BRANCH   8   9
ATOM      9  O   UNL     1      39.908 -16.311 -15.263  0.00  0.00    -0.477 OA
ATOM     10  H   UNL     1      39.717 -17.228 -15.267  0.00  0.00    +0.295 HD
ENDBRANCH   8   9
ENDBRANCH   2   8
TORSDOF 4
ENDMDL
MODEL 8
REMARK VINA RESULT:      -4.8      2.136      3.429
REMARK  Name = 444266
REMARK  4 active torsions:
REMARK  status: ('A' for Active; 'I' for Inactive)
REMARK    1  A    between atoms: C_1  and  C_4
REMARK    2  A    between atoms: C_2  and  C_8
REMARK    3  A    between atoms: C_4  and  O_5
REMARK    4  A    between atoms: C_8  and  O_9
REMARK                            x       y       z     vdW  Elec       q    Type
REMARK                         _______ _______ _______ _____ _____    ______ ____
ROOT
ATOM      1  C   UNL     1      37.685 -24.246 -13.649  0.00  0.00    +0.088 C 
ATOM      2  C   UNL     1      38.421 -24.663 -14.686  0.00  0.00    +0.088 C 
ENDROOT
BRANCH   1   4
ATOM      3  O   UNL     1      37.734 -25.400 -11.576  0.00  0.00    -0.245 OA
ATOM      4  C   UNL     1      38.083 -24.434 -12.240  0.00  0.00    +0.338 C 
BRANCH   4   5
ATOM      5  O   UNL     1      38.865 -23.435 -11.773  0.00  0.00    -0.477 OA
ATOM      6  H   UNL     1      39.343 -23.549 -10.976  0.00  0.00    +0.295 HD
ENDBRANCH   4   5
ENDBRANCH   1   4
BRANCH   2   8
ATOM      7  O   UNL     1      40.756 -24.825 -14.107  0.00  0.00    -0.245 OA
ATOM      8  C   UNL     1      39.703 -25.350 -14.428  0.00  0.00    +0.338 C 
BRANCH   8   9
ATOM      9  O   UNL     1      39.526 -26.681 -14.604  0.00  0.00    -0.477 OA
ATOM     10  H   UNL     1      39.033 -26.994 -15.337  0.00  0.00    +0.295 HD
ENDBRANCH   8   9
ENDBRANCH   2   8
TORSDOF 4
ENDMDL
MODEL 9
REMARK VINA RESULT:      -4.7      1.807      3.074
REMARK  Name = 444266
REMARK  4 active torsions:
REMARK  status: ('A' for Active; 'I' for Inactive)
REMARK    1  A    between atoms: C_1  and  C_4
REMARK    2  A    between atoms: C_2  and  C_8
REMARK    3  A    between atoms: C_4  and  O_5
REMARK    4  A    between atoms: C_8  and  O_9
REMARK                            x       y       z     vdW  Elec       q    Type
REMARK                         _______ _______ _______ _____ _____    ______ ____
ROOT
ATOM      1  C   UNL     1      37.490 -24.993 -14.675  0.00  0.00    +0.088 C 
ATOM      2  C   UNL     1      37.209 -24.520 -13.455  0.00  0.00    +0.088 C 
ENDROOT
BRANCH   1   4
ATOM      3  O   UNL     1      36.207 -26.688 -15.731  0.00  0.00    -0.245 OA
ATOM      4  C   UNL     1      37.206 -26.380 -15.095  0.00  0.00    +0.338 C 
BRANCH   4   5
ATOM      5  O   UNL     1      38.159 -27.256 -14.706  0.00  0.00    -0.477 OA
ATOM      6  H   UNL     1      37.993 -27.840 -13.993  0.00  0.00    +0.295 HD
ENDBRANCH   4   5
ENDBRANCH   1   4
BRANCH   2   8
ATOM      7  O   UNL     1      37.132 -26.305 -11.836  0.00  0.00    -0.245 OA
ATOM      8  C   UNL     1      36.581 -25.416 -12.463  0.00  0.00    +0.338 C 
BRANCH   8   9
ATOM      9  O   UNL     1      35.271 -25.092 -12.354  0.00  0.00    -0.477 OA
ATOM     10  H   UNL     1      34.709 -25.159 -13.101  0.00  0.00    +0.295 HD
ENDBRANCH   8   9
ENDBRANCH   2   8
TORSDOF 4
ENDMDL
