MODEL 1
REMARK VINA RESULT:      -7.9      0.000      0.000
REMARK  Name = 6916258
REMARK  4 active torsions:
REMARK  status: ('A' for Active; 'I' for Inactive)
REMARK    1  A    between atoms: C_3  and  O_20
REMARK    2  A    between atoms: C_10  and  O_22
REMARK    3  A    between atoms: C_14  and  O_24
REMARK    4  A    between atoms: C_17  and  O_26
REMARK                            x       y       z     vdW  Elec       q    Type
REMARK                         _______ _______ _______ _____ _____    ______ ____
ROOT
ATOM      1  N   UNL     1      36.817 -23.899 -11.358  0.00  0.00    +0.389 N 
ATOM      2  C   UNL     1      37.336 -24.294 -14.219  0.00  0.00    +0.043 C 
ATOM      3  C   UNL     1      37.225 -25.485 -13.215  0.00  0.00    +0.075 C 
ATOM      4  C   UNL     1      36.265 -25.066 -12.078  0.00  0.00    -0.028 C 
ATOM      5  C   UNL     1      38.347 -24.672 -15.340  0.00  0.00    +0.035 C 
ATOM      6  C   UNL     1      37.827 -23.028 -13.456  0.00  0.00    -0.016 C 
ATOM      7  C   UNL     1      38.603 -25.939 -12.682  0.00  0.00    +0.028 C 
ATOM      8  C   UNL     1      35.936 -23.959 -14.783  0.00  0.00    +0.012 C 
ATOM      9  C   UNL     1      34.841 -24.880 -12.655  0.00  0.00    +0.008 C 
ATOM     10  C   UNL     1      39.698 -25.182 -14.828  0.00  0.00    +0.111 C 
ATOM     11  C   UNL     1      37.002 -22.715 -12.199  0.00  0.00    -0.077 C 
ATOM     12  C   UNL     1      39.548 -26.316 -13.821  0.00  0.00    +0.032 C 
ATOM     13  C   UNL     1      34.777 -24.224 -14.017  0.00  0.00    -0.025 C 
ATOM     14  C   UNL     1      35.777 -23.329 -16.031  0.00  0.00    +0.168 C 
ATOM     15  C   UNL     1      36.093 -23.575 -10.133  0.00  0.00    -0.100 C 
ATOM     16  C   UNL     1      33.509 -23.897 -14.527  0.00  0.00    -0.001 C 
ATOM     17  C   UNL     1      34.511 -23.004 -16.522  0.00  0.00    +0.172 C 
ATOM     18  C   UNL     1      33.377 -23.292 -15.773  0.00  0.00    +0.040 C 
ATOM     19  H   UNL     1      37.751 -24.203 -11.080  0.00  0.00    -0.080 HD
ENDROOT
BRANCH   3  20
ATOM     20  O   UNL     1      36.673 -26.624 -13.901  0.00  0.00    -0.388 OA
ATOM     21  H   UNL     1      35.854 -26.364 -14.350  0.00  0.00    +0.210 HD
ENDBRANCH   3  20
BRANCH  10  22
ATOM     22  O   UNL     1      40.456 -25.642 -15.945  0.00  0.00    -0.384 OA
ATOM     23  H   UNL     1      40.304 -25.054 -16.702  0.00  0.00    +0.210 HD
ENDBRANCH  10  22
BRANCH  14  24
ATOM     24  O   UNL     1      36.822 -22.920 -16.806  0.00  0.00    -0.469 OA
ATOM     25  C   UNL     1      37.202 -21.550 -16.707  0.00  0.00    +0.253 C 
ENDBRANCH  14  24
BRANCH  17  26
ATOM     26  O   UNL     1      34.366 -22.389 -17.730  0.00  0.00    -0.468 OA
ATOM     27  C   UNL     1      33.091 -22.494 -18.360  0.00  0.00    +0.253 C 
ENDBRANCH  17  26
TORSDOF 4
ENDMDL
MODEL 2
REMARK VINA RESULT:      -6.9      2.200      4.078
REMARK  Name = 6916258
REMARK  4 active torsions:
REMARK  status: ('A' for Active; 'I' for Inactive)
REMARK    1  A    between atoms: C_3  and  O_20
REMARK    2  A    between atoms: C_10  and  O_22
REMARK    3  A    between atoms: C_14  and  O_24
REMARK    4  A    between atoms: C_17  and  O_26
REMARK                            x       y       z     vdW  Elec       q    Type
REMARK                         _______ _______ _______ _____ _____    ______ ____
ROOT
ATOM      1  N   UNL     1      38.690 -25.168 -14.796  0.00  0.00    +0.389 N 
ATOM      2  C   UNL     1      36.124 -24.427 -13.580  0.00  0.00    +0.043 C 
ATOM      3  C   UNL     1      37.433 -23.609 -13.340  0.00  0.00    +0.075 C 
ATOM      4  C   UNL     1      38.324 -23.750 -14.597  0.00  0.00    -0.028 C 
ATOM      5  C   UNL     1      35.239 -24.350 -12.303  0.00  0.00    +0.035 C 
ATOM      6  C   UNL     1      36.498 -25.908 -13.887  0.00  0.00    -0.016 C 
ATOM      7  C   UNL     1      38.167 -24.036 -12.049  0.00  0.00    +0.028 C 
ATOM      8  C   UNL     1      35.395 -23.883 -14.830  0.00  0.00    +0.012 C 
ATOM      9  C   UNL     1      37.625 -23.067 -15.797  0.00  0.00    +0.008 C 
ATOM     10  C   UNL     1      35.970 -24.711 -11.005  0.00  0.00    +0.111 C 
ATOM     11  C   UNL     1      37.544 -26.055 -15.003  0.00  0.00    -0.077 C 
ATOM     12  C   UNL     1      37.261 -23.922 -10.825  0.00  0.00    +0.032 C 
ATOM     13  C   UNL     1      36.128 -23.267 -15.871  0.00  0.00    -0.025 C 
ATOM     14  C   UNL     1      34.007 -24.041 -14.999  0.00  0.00    +0.168 C 
ATOM     15  C   UNL     1      39.708 -25.367 -15.822  0.00  0.00    -0.100 C 
ATOM     16  C   UNL     1      35.460 -22.794 -17.014  0.00  0.00    -0.001 C 
ATOM     17  C   UNL     1      33.358 -23.573 -16.144  0.00  0.00    +0.172 C 
ATOM     18  C   UNL     1      34.083 -22.945 -17.148  0.00  0.00    +0.040 C 
ATOM     19  H   UNL     1      39.108 -25.440 -13.906  0.00  0.00    -0.080 HD
ENDROOT
BRANCH   3  20
ATOM     20  O   UNL     1      37.090 -22.223 -13.160  0.00  0.00    -0.388 OA
ATOM     21  H   UNL     1      36.354 -22.151 -12.532  0.00  0.00    +0.210 HD
ENDBRANCH   3  20
BRANCH  10  22
ATOM     22  O   UNL     1      35.097 -24.440  -9.910  0.00  0.00    -0.384 OA
ATOM     23  H   UNL     1      34.371 -25.084  -9.909  0.00  0.00    +0.210 HD
ENDBRANCH  10  22
BRANCH  14  24
ATOM     24  O   UNL     1      33.214 -24.720 -14.121  0.00  0.00    -0.469 OA
ATOM     25  C   UNL     1      32.144 -23.993 -13.522  0.00  0.00    +0.253 C 
ENDBRANCH  14  24
BRANCH  17  26
ATOM     26  O   UNL     1      32.014 -23.734 -16.300  0.00  0.00    -0.468 OA
ATOM     27  C   UNL     1      31.295 -22.644 -16.874  0.00  0.00    +0.253 C 
ENDBRANCH  17  26
TORSDOF 4
ENDMDL
MODEL 3
REMARK VINA RESULT:      -6.7      2.180      4.278
REMARK  Name = 6916258
REMARK  4 active torsions:
REMARK  status: ('A' for Active; 'I' for Inactive)
REMARK    1  A    between atoms: C_3  and  O_20
REMARK    2  A    between atoms: C_10  and  O_22
REMARK    3  A    between atoms: C_14  and  O_24
REMARK    4  A    between atoms: C_17  and  O_26
REMARK                            x       y       z     vdW  Elec       q    Type
REMARK                         _______ _______ _______ _____ _____    ______ ____
ROOT
ATOM      1  N   UNL     1      37.839 -25.437 -14.307  0.00  0.00    +0.389 N 
ATOM      2  C   UNL     1      35.239 -24.227 -14.926  0.00  0.00    +0.043 C 
ATOM      3  C   UNL     1      36.065 -23.837 -13.659  0.00  0.00    +0.075 C 
ATOM      4  C   UNL     1      37.564 -24.021 -13.989  0.00  0.00    -0.028 C 
ATOM      5  C   UNL     1      33.723 -24.110 -14.596  0.00  0.00    +0.035 C 
ATOM      6  C   UNL     1      35.589 -25.689 -15.332  0.00  0.00    -0.016 C 
ATOM      7  C   UNL     1      35.637 -24.636 -12.407  0.00  0.00    +0.028 C 
ATOM      8  C   UNL     1      35.651 -23.325 -16.111  0.00  0.00    +0.012 C 
ATOM      9  C   UNL     1      37.975 -23.000 -15.078  0.00  0.00    +0.008 C 
ATOM     10  C   UNL     1      33.294 -24.846 -13.323  0.00  0.00    +0.111 C 
ATOM     11  C   UNL     1      37.099 -25.941 -15.464  0.00  0.00    -0.077 C 
ATOM     12  C   UNL     1      34.147 -24.470 -12.117  0.00  0.00    +0.032 C 
ATOM     13  C   UNL     1      36.954 -22.777 -16.171  0.00  0.00    -0.025 C 
ATOM     14  C   UNL     1      34.777 -23.076 -17.185  0.00  0.00    +0.168 C 
ATOM     15  C   UNL     1      39.262 -25.744 -14.410  0.00  0.00    -0.100 C 
ATOM     16  C   UNL     1      37.328 -21.975 -17.263  0.00  0.00    -0.001 C 
ATOM     17  C   UNL     1      35.165 -22.282 -18.267  0.00  0.00    +0.172 C 
ATOM     18  C   UNL     1      36.438 -21.728 -18.303  0.00  0.00    +0.040 C 
ATOM     19  H   UNL     1      37.485 -25.944 -13.495  0.00  0.00    -0.080 HD
ENDROOT
BRANCH   3  20
ATOM     20  O   UNL     1      35.816 -22.454 -13.348  0.00  0.00    -0.388 OA
ATOM     21  H   UNL     1      35.890 -22.319 -12.391  0.00  0.00    +0.210 HD
ENDBRANCH   3  20
BRANCH  10  22
ATOM     22  O   UNL     1      31.931 -24.520 -13.055  0.00  0.00    -0.384 OA
ATOM     23  H   UNL     1      31.575 -25.138 -12.396  0.00  0.00    +0.210 HD
ENDBRANCH  10  22
BRANCH  14  24
ATOM     24  O   UNL     1      33.541 -23.642 -17.297  0.00  0.00    -0.469 OA
ATOM     25  C   UNL     1      32.419 -22.769 -17.193  0.00  0.00    +0.253 C 
ENDBRANCH  14  24
BRANCH  17  26
ATOM     26  O   UNL     1      34.313 -22.051 -19.306  0.00  0.00    -0.468 OA
ATOM     27  C   UNL     1      34.470 -20.820 -20.008  0.00  0.00    +0.253 C 
ENDBRANCH  17  26
TORSDOF 4
ENDMDL
MODEL 4
REMARK VINA RESULT:      -6.5     14.395     17.768
REMARK  Name = 6916258
REMARK  4 active torsions:
REMARK  status: ('A' for Active; 'I' for Inactive)
REMARK    1  A    between atoms: C_3  and  O_20
REMARK    2  A    between atoms: C_10  and  O_22
REMARK    3  A    between atoms: C_14  and  O_24
REMARK    4  A    between atoms: C_17  and  O_26
REMARK                            x       y       z     vdW  Elec       q    Type
REMARK                         _______ _______ _______ _____ _____    ______ ____
ROOT
ATOM      1  N   UNL     1      31.310  -6.448 -22.654  0.00  0.00    +0.389 N 
ATOM      2  C   UNL     1      32.821  -8.917 -23.134  0.00  0.00    +0.043 C 
ATOM      3  C   UNL     1      33.503  -7.598 -22.651  0.00  0.00    +0.075 C 
ATOM      4  C   UNL     1      32.473  -6.805 -21.814  0.00  0.00    -0.028 C 
ATOM      5  C   UNL     1      33.821  -9.702 -24.032  0.00  0.00    +0.035 C 
ATOM      6  C   UNL     1      31.538  -8.562 -23.943  0.00  0.00    -0.016 C 
ATOM      7  C   UNL     1      34.074  -6.765 -23.822  0.00  0.00    +0.028 C 
ATOM      8  C   UNL     1      32.362  -9.742 -21.910  0.00  0.00    +0.012 C 
ATOM      9  C   UNL     1      32.146  -7.596 -20.524  0.00  0.00    +0.008 C 
ATOM     10  C   UNL     1      34.443  -8.873 -25.161  0.00  0.00    +0.111 C 
ATOM     11  C   UNL     1      30.595  -7.603 -23.200  0.00  0.00    -0.077 C 
ATOM     12  C   UNL     1      35.062  -7.576 -24.657  0.00  0.00    +0.032 C 
ATOM     13  C   UNL     1      32.028  -9.094 -20.699  0.00  0.00    -0.025 C 
ATOM     14  C   UNL     1      32.202 -11.138 -21.982  0.00  0.00    +0.168 C 
ATOM     15  C   UNL     1      30.395  -5.510 -22.012  0.00  0.00    -0.100 C 
ATOM     16  C   UNL     1      31.591  -9.849 -19.596  0.00  0.00    -0.001 C 
ATOM     17  C   UNL     1      31.760 -11.875 -20.881  0.00  0.00    +0.172 C 
ATOM     18  C   UNL     1      31.460 -11.231 -19.687  0.00  0.00    +0.040 C 
ATOM     19  H   UNL     1      31.723  -5.962 -23.450  0.00  0.00    -0.080 HD
ENDROOT
BRANCH   3  20
ATOM     20  O   UNL     1      34.629  -7.932 -21.819  0.00  0.00    -0.388 OA
ATOM     21  H   UNL     1      34.642  -8.889 -21.663  0.00  0.00    +0.210 HD
ENDBRANCH   3  20
BRANCH  10  22
ATOM     22  O   UNL     1      35.450  -9.661 -25.792  0.00  0.00    -0.384 OA
ATOM     23  H   UNL     1      35.774 -10.331 -25.169  0.00  0.00    +0.210 HD
ENDBRANCH  10  22
BRANCH  14  24
ATOM     24  O   UNL     1      32.380 -11.859 -23.126  0.00  0.00    -0.469 OA
ATOM     25  C   UNL     1      33.587 -12.609 -23.235  0.00  0.00    +0.253 C 
ENDBRANCH  14  24
BRANCH  17  26
ATOM     26  O   UNL     1      31.604 -13.226 -20.961  0.00  0.00    -0.468 OA
ATOM     27  C   UNL     1      32.579 -14.030 -20.299  0.00  0.00    +0.253 C 
ENDBRANCH  17  26
TORSDOF 4
ENDMDL
MODEL 5
REMARK VINA RESULT:      -5.4     15.077     18.369
REMARK  Name = 6916258
REMARK  4 active torsions:
REMARK  status: ('A' for Active; 'I' for Inactive)
REMARK    1  A    between atoms: C_3  and  O_20
REMARK    2  A    between atoms: C_10  and  O_22
REMARK    3  A    between atoms: C_14  and  O_24
REMARK    4  A    between atoms: C_17  and  O_26
REMARK                            x       y       z     vdW  Elec       q    Type
REMARK                         _______ _______ _______ _____ _____    ______ ____
ROOT
ATOM      1  N   UNL     1      31.743  -6.189 -24.010  0.00  0.00    +0.389 N 
ATOM      2  C   UNL     1      32.856  -8.774 -23.183  0.00  0.00    +0.043 C 
ATOM      3  C   UNL     1      33.752  -7.524 -23.455  0.00  0.00    +0.075 C 
ATOM      4  C   UNL     1      32.924  -6.261 -23.125  0.00  0.00    -0.028 C 
ATOM      5  C   UNL     1      33.649 -10.057 -23.568  0.00  0.00    +0.035 C 
ATOM      6  C   UNL     1      31.559  -8.668 -24.038  0.00  0.00    -0.016 C 
ATOM      7  C   UNL     1      34.311  -7.501 -24.896  0.00  0.00    +0.028 C 
ATOM      8  C   UNL     1      32.414  -8.783 -21.702  0.00  0.00    +0.012 C 
ATOM      9  C   UNL     1      32.624  -6.230 -21.607  0.00  0.00    +0.008 C 
ATOM     10  C   UNL     1      34.262 -10.024 -24.972  0.00  0.00    +0.111 C 
ATOM     11  C   UNL     1      30.830  -7.325 -23.876  0.00  0.00    -0.077 C 
ATOM     12  C   UNL     1      35.096  -8.772 -25.214  0.00  0.00    +0.032 C 
ATOM     13  C   UNL     1      32.290  -7.568 -20.988  0.00  0.00    -0.025 C 
ATOM     14  C   UNL     1      32.062  -9.977 -21.046  0.00  0.00    +0.168 C 
ATOM     15  C   UNL     1      31.028  -4.919 -23.925  0.00  0.00    -0.100 C 
ATOM     16  C   UNL     1      31.867  -7.583 -19.648  0.00  0.00    -0.001 C 
ATOM     17  C   UNL     1      31.637  -9.975 -19.716  0.00  0.00    +0.172 C 
ATOM     18  C   UNL     1      31.544  -8.779 -19.015  0.00  0.00    +0.040 C 
ATOM     19  H   UNL     1      32.137  -6.245 -24.950  0.00  0.00    -0.080 HD
ENDROOT
BRANCH   3  20
ATOM     20  O   UNL     1      34.899  -7.576 -22.587  0.00  0.00    -0.388 OA
ATOM     21  H   UNL     1      35.676  -7.859 -23.095  0.00  0.00    +0.210 HD
ENDBRANCH   3  20
BRANCH  10  22
ATOM     22  O   UNL     1      35.088 -11.176 -25.127  0.00  0.00    -0.384 OA
ATOM     23  H   UNL     1      34.933 -11.569 -26.000  0.00  0.00    +0.210 HD
ENDBRANCH  10  22
BRANCH  14  24
ATOM     24  O   UNL     1      32.030 -11.194 -21.662  0.00  0.00    -0.469 OA
ATOM     25  C   UNL     1      30.755 -11.667 -22.090  0.00  0.00    +0.253 C 
ENDBRANCH  14  24
BRANCH  17  26
ATOM     26  O   UNL     1      31.294 -11.137 -19.090  0.00  0.00    -0.468 OA
ATOM     27  C   UNL     1      31.303 -11.129 -17.663  0.00  0.00    +0.253 C 
ENDBRANCH  17  26
TORSDOF 4
ENDMDL
MODEL 6
REMARK VINA RESULT:      -5.3     17.048     19.860
REMARK  Name = 6916258
REMARK  4 active torsions:
REMARK  status: ('A' for Active; 'I' for Inactive)
REMARK    1  A    between atoms: C_3  and  O_20
REMARK    2  A    between atoms: C_10  and  O_22
REMARK    3  A    between atoms: C_14  and  O_24
REMARK    4  A    between atoms: C_17  and  O_26
REMARK                            x       y       z     vdW  Elec       q    Type
REMARK                         _______ _______ _______ _____ _____    ______ ____
ROOT
ATOM      1  N   UNL     1      32.635  -8.231 -21.175  0.00  0.00    +0.389 N 
ATOM      2  C   UNL     1      33.610  -7.946 -23.928  0.00  0.00    +0.043 C 
ATOM      3  C   UNL     1      32.588  -9.051 -23.511  0.00  0.00    +0.075 C 
ATOM      4  C   UNL     1      31.752  -8.510 -22.328  0.00  0.00    -0.028 C 
ATOM      5  C   UNL     1      34.505  -8.493 -25.077  0.00  0.00    +0.035 C 
ATOM      6  C   UNL     1      34.487  -7.571 -22.696  0.00  0.00    -0.016 C 
ATOM      7  C   UNL     1      33.276 -10.395 -23.177  0.00  0.00    +0.028 C 
ATOM      8  C   UNL     1      32.849  -6.665 -24.340  0.00  0.00    +0.012 C 
ATOM      9  C   UNL     1      30.894  -7.317 -22.815  0.00  0.00    +0.008 C 
ATOM     10  C   UNL     1      35.145  -9.855 -24.786  0.00  0.00    +0.111 C 
ATOM     11  C   UNL     1      33.665  -7.227 -21.445  0.00  0.00    -0.077 C 
ATOM     12  C   UNL     1      34.124 -10.896 -24.344  0.00  0.00    +0.032 C 
ATOM     13  C   UNL     1      31.580  -6.380 -23.783  0.00  0.00    -0.025 C 
ATOM     14  C   UNL     1      33.415  -5.723 -25.218  0.00  0.00    +0.168 C 
ATOM     15  C   UNL     1      31.907  -7.931 -19.946  0.00  0.00    -0.100 C 
ATOM     16  C   UNL     1      30.903  -5.203 -24.146  0.00  0.00    -0.001 C 
ATOM     17  C   UNL     1      32.734  -4.553 -25.564  0.00  0.00    +0.172 C 
ATOM     18  C   UNL     1      31.476  -4.296 -25.032  0.00  0.00    +0.040 C 
ATOM     19  H   UNL     1      33.124  -9.113 -21.023  0.00  0.00    -0.080 HD
ENDROOT
BRANCH   3  20
ATOM     20  O   UNL     1      31.714  -9.320 -24.622  0.00  0.00    -0.388 OA
ATOM     21  H   UNL     1      31.772  -8.594 -25.262  0.00  0.00    +0.210 HD
ENDBRANCH   3  20
BRANCH  10  22
ATOM     22  O   UNL     1      35.794 -10.307 -25.973  0.00  0.00    -0.384 OA
ATOM     23  H   UNL     1      36.211  -9.554 -26.421  0.00  0.00    +0.210 HD
ENDBRANCH  10  22
BRANCH  14  24
ATOM     24  O   UNL     1      34.676  -5.830 -25.726  0.00  0.00    -0.469 OA
ATOM     25  C   UNL     1      34.855  -5.463 -27.091  0.00  0.00    +0.253 C 
ENDBRANCH  14  24
BRANCH  17  26
ATOM     26  O   UNL     1      33.292  -3.644 -26.412  0.00  0.00    -0.468 OA
ATOM     27  C   UNL     1      32.776  -2.315 -26.366  0.00  0.00    +0.253 C 
ENDBRANCH  17  26
TORSDOF 4
ENDMDL
