MODEL 1
REMARK VINA RESULT:      -5.7      0.000      0.000
REMARK  Name = 92824
REMARK  6 active torsions:
REMARK  status: ('A' for Active; 'I' for Inactive)
REMARK    1  A    between atoms: C_1  and  O_2
REMARK    2  A    between atoms: C_1  and  C_5
REMARK    3  A    between atoms: C_1  and  C_8
REMARK    4  A    between atoms: C_5  and  O_6
REMARK    5  A    between atoms: C_8  and  C_10
REMARK    6  A    between atoms: C_10  and  O_11
REMARK                            x       y       z     vdW  Elec       q    Type
REMARK                         _______ _______ _______ _____ _____    ______ ____
ROOT
ATOM      1  C   UNL     1      38.106 -25.692 -13.888  0.00  0.00    +0.221 C 
ENDROOT
BRANCH   1   2
ATOM      2  O   UNL     1      38.182 -27.047 -14.316  0.00  0.00    -0.374 OA
ATOM      3  H   UNL     1      37.369 -27.281 -14.791  0.00  0.00    +0.211 HD
ENDBRANCH   1   2
BRANCH   1   5
ATOM      4  O   UNL     1      38.105 -24.869 -11.600  0.00  0.00    -0.248 OA
ATOM      5  C   UNL     1      37.708 -25.681 -12.426  0.00  0.00    +0.342 C 
BRANCH   5   6
ATOM      6  O   UNL     1      36.832 -26.674 -12.125  0.00  0.00    -0.479 OA
ATOM      7  H   UNL     1      36.283 -26.602 -11.369  0.00  0.00    +0.295 HD
ENDBRANCH   5   6
ENDBRANCH   1   5
BRANCH   1   8
ATOM      8  C   UNL     1      39.476 -25.048 -14.089  0.00  0.00    +0.150 C 
BRANCH   8  10
ATOM      9  O   UNL     1      41.232 -26.745 -14.099  0.00  0.00    -0.250 OA
ATOM     10  C   UNL     1      40.470 -26.005 -14.704  0.00  0.00    +0.317 C 
BRANCH  10  11
ATOM     11  O   UNL     1      40.397 -25.945 -16.059  0.00  0.00    -0.480 OA
ATOM     12  H   UNL     1      40.327 -26.734 -16.559  0.00  0.00    +0.295 HD
ENDBRANCH  10  11
ENDBRANCH   8  10
ENDBRANCH   1   8
TORSDOF 6
ENDMDL
MODEL 2
REMARK VINA RESULT:      -5.6      2.144      2.615
REMARK  Name = 92824
REMARK  6 active torsions:
REMARK  status: ('A' for Active; 'I' for Inactive)
REMARK    1  A    between atoms: C_1  and  O_2
REMARK    2  A    between atoms: C_1  and  C_5
REMARK    3  A    between atoms: C_1  and  C_8
REMARK    4  A    between atoms: C_5  and  O_6
REMARK    5  A    between atoms: C_8  and  C_10
REMARK    6  A    between atoms: C_10  and  O_11
REMARK                            x       y       z     vdW  Elec       q    Type
REMARK                         _______ _______ _______ _____ _____    ______ ____
ROOT
ATOM      1  C   UNL     1      37.841 -24.930 -14.366  0.00  0.00    +0.221 C 
ENDROOT
BRANCH   1   2
ATOM      2  O   UNL     1      38.265 -23.759 -15.052  0.00  0.00    -0.374 OA
ATOM      3  H   UNL     1      37.556 -23.454 -15.640  0.00  0.00    +0.211 HD
ENDBRANCH   1   2
BRANCH   1   5
ATOM      4  O   UNL     1      35.678 -25.252 -15.430  0.00  0.00    -0.248 OA
ATOM      5  C   UNL     1      36.822 -25.641 -15.234  0.00  0.00    +0.342 C 
BRANCH   5   6
ATOM      6  O   UNL     1      37.326 -26.769 -15.798  0.00  0.00    -0.479 OA
ATOM      7  H   UNL     1      37.564 -27.496 -15.258  0.00  0.00    +0.295 HD
ENDBRANCH   5   6
ENDBRANCH   1   5
BRANCH   1   8
ATOM      8  C   UNL     1      39.063 -25.813 -14.120  0.00  0.00    +0.150 C 
BRANCH   8  10
ATOM      9  O   UNL     1      41.131 -24.564 -14.481  0.00  0.00    -0.250 OA
ATOM     10  C   UNL     1      40.273 -25.334 -14.888  0.00  0.00    +0.317 C 
BRANCH  10  11
ATOM     11  O   UNL     1      40.291 -25.895 -16.125  0.00  0.00    -0.480 OA
ATOM     12  H   UNL     1      41.054 -26.351 -16.420  0.00  0.00    +0.295 HD
ENDBRANCH  10  11
ENDBRANCH   8  10
ENDBRANCH   1   8
TORSDOF 6
ENDMDL
MODEL 3
REMARK VINA RESULT:      -5.5      1.599      2.494
REMARK  Name = 92824
REMARK  6 active torsions:
REMARK  status: ('A' for Active; 'I' for Inactive)
REMARK    1  A    between atoms: C_1  and  O_2
REMARK    2  A    between atoms: C_1  and  C_5
REMARK    3  A    between atoms: C_1  and  C_8
REMARK    4  A    between atoms: C_5  and  O_6
REMARK    5  A    between atoms: C_8  and  C_10
REMARK    6  A    between atoms: C_10  and  O_11
REMARK                            x       y       z     vdW  Elec       q    Type
REMARK                         _______ _______ _______ _____ _____    ______ ____
ROOT
ATOM      1  C   UNL     1      37.686 -26.716 -14.277  0.00  0.00    +0.221 C 
ENDROOT
BRANCH   1   2
ATOM      2  O   UNL     1      36.954 -26.719 -13.057  0.00  0.00    -0.374 OA
ATOM      3  H   UNL     1      36.381 -27.501 -13.027  0.00  0.00    +0.211 HD
ENDBRANCH   1   2
BRANCH   1   5
ATOM      4  O   UNL     1      35.850 -25.643 -15.457  0.00  0.00    -0.248 OA
ATOM      5  C   UNL     1      36.704 -26.519 -15.415  0.00  0.00    +0.342 C 
BRANCH   5   6
ATOM      6  O   UNL     1      36.887 -27.422 -16.412  0.00  0.00    -0.479 OA
ATOM      7  H   UNL     1      36.152 -27.883 -16.767  0.00  0.00    +0.295 HD
ENDBRANCH   5   6
ENDBRANCH   1   5
BRANCH   1   8
ATOM      8  C   UNL     1      38.702 -25.576 -14.225  0.00  0.00    +0.150 C 
BRANCH   8  10
ATOM      9  O   UNL     1      40.946 -26.499 -13.951  0.00  0.00    -0.250 OA
ATOM     10  C   UNL     1      40.077 -26.020 -14.665  0.00  0.00    +0.317 C 
BRANCH  10  11
ATOM     11  O   UNL     1      40.225 -25.824 -16.001  0.00  0.00    -0.480 OA
ATOM     12  H   UNL     1      40.044 -24.984 -16.373  0.00  0.00    +0.295 HD
ENDBRANCH  10  11
ENDBRANCH   8  10
ENDBRANCH   1   8
TORSDOF 6
ENDMDL
MODEL 4
REMARK VINA RESULT:      -5.5      1.022      3.773
REMARK  Name = 92824
REMARK  6 active torsions:
REMARK  status: ('A' for Active; 'I' for Inactive)
REMARK    1  A    between atoms: C_1  and  O_2
REMARK    2  A    between atoms: C_1  and  C_5
REMARK    3  A    between atoms: C_1  and  C_8
REMARK    4  A    between atoms: C_5  and  O_6
REMARK    5  A    between atoms: C_8  and  C_10
REMARK    6  A    between atoms: C_10  and  O_11
REMARK                            x       y       z     vdW  Elec       q    Type
REMARK                         _______ _______ _______ _____ _____    ______ ____
ROOT
ATOM      1  C   UNL     1      38.896 -25.933 -14.333  0.00  0.00    +0.221 C 
ENDROOT
BRANCH   1   2
ATOM      2  O   UNL     1      38.097 -26.403 -15.412  0.00  0.00    -0.374 OA
ATOM      3  H   UNL     1      38.315 -25.906 -16.215  0.00  0.00    +0.211 HD
ENDBRANCH   1   2
BRANCH   1   5
ATOM      4  O   UNL     1      40.965 -24.656 -14.332  0.00  0.00    -0.248 OA
ATOM      5  C   UNL     1      40.207 -25.430 -14.902  0.00  0.00    +0.342 C 
BRANCH   5   6
ATOM      6  O   UNL     1      40.468 -25.952 -16.128  0.00  0.00    -0.479 OA
ATOM      7  H   UNL     1      40.585 -26.876 -16.228  0.00  0.00    +0.295 HD
ENDBRANCH   5   6
ENDBRANCH   1   5
BRANCH   1   8
ATOM      8  C   UNL     1      38.138 -24.811 -13.627  0.00  0.00    +0.150 C 
BRANCH   8  10
ATOM      9  O   UNL     1      37.658 -24.734 -11.233  0.00  0.00    -0.250 OA
ATOM     10  C   UNL     1      37.527 -25.270 -12.324  0.00  0.00    +0.317 C 
BRANCH  10  11
ATOM     11  O   UNL     1      36.779 -26.385 -12.528  0.00  0.00    -0.480 OA
ATOM     12  H   UNL     1      36.541 -26.636 -13.399  0.00  0.00    +0.295 HD
ENDBRANCH  10  11
ENDBRANCH   8  10
ENDBRANCH   1   8
TORSDOF 6
ENDMDL
MODEL 5
REMARK VINA RESULT:      -5.4      1.876      3.864
REMARK  Name = 92824
REMARK  6 active torsions:
REMARK  status: ('A' for Active; 'I' for Inactive)
REMARK    1  A    between atoms: C_1  and  O_2
REMARK    2  A    between atoms: C_1  and  C_5
REMARK    3  A    between atoms: C_1  and  C_8
REMARK    4  A    between atoms: C_5  and  O_6
REMARK    5  A    between atoms: C_8  and  C_10
REMARK    6  A    between atoms: C_10  and  O_11
REMARK                            x       y       z     vdW  Elec       q    Type
REMARK                         _______ _______ _______ _____ _____    ______ ____
ROOT
ATOM      1  C   UNL     1      38.837 -25.839 -14.290  0.00  0.00    +0.221 C 
ENDROOT
BRANCH   1   2
ATOM      2  O   UNL     1      38.628 -27.201 -14.644  0.00  0.00    -0.374 OA
ATOM      3  H   UNL     1      39.007 -27.367 -15.521  0.00  0.00    +0.211 HD
ENDBRANCH   1   2
BRANCH   1   5
ATOM      4  O   UNL     1      40.966 -24.665 -14.311  0.00  0.00    -0.248 OA
ATOM      5  C   UNL     1      40.164 -25.398 -14.874  0.00  0.00    +0.342 C 
BRANCH   5   6
ATOM      6  O   UNL     1      40.383 -25.928 -16.105  0.00  0.00    -0.479 OA
ATOM      7  H   UNL     1      40.526 -25.364 -16.839  0.00  0.00    +0.295 HD
ENDBRANCH   5   6
ENDBRANCH   1   5
BRANCH   1   8
ATOM      8  C   UNL     1      37.685 -25.012 -14.859  0.00  0.00    +0.150 C 
BRANCH   8  10
ATOM      9  O   UNL     1      36.204 -26.690 -15.838  0.00  0.00    -0.250 OA
ATOM     10  C   UNL     1      36.419 -25.824 -15.002  0.00  0.00    +0.317 C 
BRANCH  10  11
ATOM     11  O   UNL     1      35.525 -25.466 -14.044  0.00  0.00    -0.480 OA
ATOM     12  H   UNL     1      35.012 -24.690 -14.150  0.00  0.00    +0.295 HD
ENDBRANCH  10  11
ENDBRANCH   8  10
ENDBRANCH   1   8
TORSDOF 6
ENDMDL
MODEL 6
REMARK VINA RESULT:      -5.3      2.062      3.614
REMARK  Name = 92824
REMARK  6 active torsions:
REMARK  status: ('A' for Active; 'I' for Inactive)
REMARK    1  A    between atoms: C_1  and  O_2
REMARK    2  A    between atoms: C_1  and  C_5
REMARK    3  A    between atoms: C_1  and  C_8
REMARK    4  A    between atoms: C_5  and  O_6
REMARK    5  A    between atoms: C_8  and  C_10
REMARK    6  A    between atoms: C_10  and  O_11
REMARK                            x       y       z     vdW  Elec       q    Type
REMARK                         _______ _______ _______ _____ _____    ______ ____
ROOT
ATOM      1  C   UNL     1      38.706 -26.075 -14.390  0.00  0.00    +0.221 C 
ENDROOT
BRANCH   1   2
ATOM      2  O   UNL     1      37.968 -26.423 -15.555  0.00  0.00    -0.374 OA
ATOM      3  H   UNL     1      37.411 -25.674 -15.820  0.00  0.00    +0.211 HD
ENDBRANCH   1   2
BRANCH   1   5
ATOM      4  O   UNL     1      41.062 -26.478 -13.945  0.00  0.00    -0.248 OA
ATOM      5  C   UNL     1      40.182 -26.150 -14.729  0.00  0.00    +0.342 C 
BRANCH   5   6
ATOM      6  O   UNL     1      40.428 -25.825 -16.024  0.00  0.00    -0.479 OA
ATOM      7  H   UNL     1      40.615 -26.498 -16.648  0.00  0.00    +0.295 HD
ENDBRANCH   5   6
ENDBRANCH   1   5
BRANCH   1   8
ATOM      8  C   UNL     1      38.309 -24.660 -13.975  0.00  0.00    +0.150 C 
BRANCH   8  10
ATOM      9  O   UNL     1      36.415 -23.784 -15.244  0.00  0.00    -0.250 OA
ATOM     10  C   UNL     1      37.621 -23.912 -15.093  0.00  0.00    +0.317 C 
BRANCH  10  11
ATOM     11  O   UNL     1      38.545 -23.372 -15.929  0.00  0.00    -0.480 OA
ATOM     12  H   UNL     1      38.554 -22.448 -16.083  0.00  0.00    +0.295 HD
ENDBRANCH  10  11
ENDBRANCH   8  10
ENDBRANCH   1   8
TORSDOF 6
ENDMDL
MODEL 7
REMARK VINA RESULT:      -5.2      1.872      3.758
REMARK  Name = 92824
REMARK  6 active torsions:
REMARK  status: ('A' for Active; 'I' for Inactive)
REMARK    1  A    between atoms: C_1  and  O_2
REMARK    2  A    between atoms: C_1  and  C_5
REMARK    3  A    between atoms: C_1  and  C_8
REMARK    4  A    between atoms: C_5  and  O_6
REMARK    5  A    between atoms: C_8  and  C_10
REMARK    6  A    between atoms: C_10  and  O_11
REMARK                            x       y       z     vdW  Elec       q    Type
REMARK                         _______ _______ _______ _____ _____    ______ ____
ROOT
ATOM      1  C   UNL     1      38.079 -24.863 -14.006  0.00  0.00    +0.221 C 
ENDROOT
BRANCH   1   2
ATOM      2  O   UNL     1      39.353 -24.699 -13.396  0.00  0.00    -0.374 OA
ATOM      3  H   UNL     1      39.977 -24.337 -14.044  0.00  0.00    +0.211 HD
ENDBRANCH   1   2
BRANCH   1   5
ATOM      4  O   UNL     1      38.126 -27.202 -14.667  0.00  0.00    -0.248 OA
ATOM      5  C   UNL     1      37.701 -26.328 -13.923  0.00  0.00    +0.342 C 
BRANCH   5   6
ATOM      6  O   UNL     1      36.839 -26.579 -12.905  0.00  0.00    -0.479 OA
ATOM      7  H   UNL     1      36.999 -27.293 -12.320  0.00  0.00    +0.295 HD
ENDBRANCH   5   6
ENDBRANCH   1   5
BRANCH   1   8
ATOM      8  C   UNL     1      37.071 -23.993 -13.255  0.00  0.00    +0.150 C 
BRANCH   8  10
ATOM      9  O   UNL     1      38.202 -22.357 -11.837  0.00  0.00    -0.250 OA
ATOM     10  C   UNL     1      37.646 -23.437 -11.973  0.00  0.00    +0.317 C 
BRANCH  10  11
ATOM     11  O   UNL     1      37.449 -24.315 -10.956  0.00  0.00    -0.480 OA
ATOM     12  H   UNL     1      37.533 -25.235 -11.109  0.00  0.00    +0.295 HD
ENDBRANCH  10  11
ENDBRANCH   8  10
ENDBRANCH   1   8
TORSDOF 6
ENDMDL
MODEL 8
REMARK VINA RESULT:      -5.1     11.093     12.064
REMARK  Name = 92824
REMARK  6 active torsions:
REMARK  status: ('A' for Active; 'I' for Inactive)
REMARK    1  A    between atoms: C_1  and  O_2
REMARK    2  A    between atoms: C_1  and  C_5
REMARK    3  A    between atoms: C_1  and  C_8
REMARK    4  A    between atoms: C_5  and  O_6
REMARK    5  A    between atoms: C_8  and  C_10
REMARK    6  A    between atoms: C_10  and  O_11
REMARK                            x       y       z     vdW  Elec       q    Type
REMARK                         _______ _______ _______ _____ _____    ______ ____
ROOT
ATOM      1  C   UNL     1      27.725 -22.355 -17.159  0.00  0.00    +0.221 C 
ENDROOT
BRANCH   1   2
ATOM      2  O   UNL     1      27.430 -23.640 -17.693  0.00  0.00    -0.374 OA
ATOM      3  H   UNL     1      26.487 -23.690 -17.912  0.00  0.00    +0.211 HD
ENDBRANCH   1   2
BRANCH   1   5
ATOM      4  O   UNL     1      26.232 -20.631 -18.002  0.00  0.00    -0.248 OA
ATOM      5  C   UNL     1      26.457 -21.526 -17.199  0.00  0.00    +0.342 C 
BRANCH   5   6
ATOM      6  O   UNL     1      25.569 -21.901 -16.242  0.00  0.00    -0.479 OA
ATOM      7  H   UNL     1      25.385 -22.809 -16.103  0.00  0.00    +0.295 HD
ENDBRANCH   5   6
ENDBRANCH   1   5
BRANCH   1   8
ATOM      8  C   UNL     1      28.219 -22.533 -15.724  0.00  0.00    +0.150 C 
BRANCH   8  10
ATOM      9  O   UNL     1      30.309 -23.255 -14.686  0.00  0.00    -0.250 OA
ATOM     10  C   UNL     1      29.691 -22.871 -15.669  0.00  0.00    +0.317 C 
BRANCH  10  11
ATOM     11  O   UNL     1      30.254 -22.700 -16.892  0.00  0.00    -0.480 OA
ATOM     12  H   UNL     1      29.722 -22.736 -17.662  0.00  0.00    +0.295 HD
ENDBRANCH  10  11
ENDBRANCH   8  10
ENDBRANCH   1   8
TORSDOF 6
ENDMDL
MODEL 9
REMARK VINA RESULT:      -5.1      2.132      2.885
REMARK  Name = 92824
REMARK  6 active torsions:
REMARK  status: ('A' for Active; 'I' for Inactive)
REMARK    1  A    between atoms: C_1  and  O_2
REMARK    2  A    between atoms: C_1  and  C_5
REMARK    3  A    between atoms: C_1  and  C_8
REMARK    4  A    between atoms: C_5  and  O_6
REMARK    5  A    between atoms: C_8  and  C_10
REMARK    6  A    between atoms: C_10  and  O_11
REMARK                            x       y       z     vdW  Elec       q    Type
REMARK                         _______ _______ _______ _____ _____    ______ ____
ROOT
ATOM      1  C   UNL     1      36.750 -24.986 -12.689  0.00  0.00    +0.221 C 
ENDROOT
BRANCH   1   2
ATOM      2  O   UNL     1      36.826 -26.291 -12.127  0.00  0.00    -0.374 OA
ATOM      3  H   UNL     1      35.990 -26.498 -11.680  0.00  0.00    +0.211 HD
ENDBRANCH   1   2
BRANCH   1   5
ATOM      4  O   UNL     1      37.889 -23.373 -11.271  0.00  0.00    -0.248 OA
ATOM      5  C   UNL     1      37.934 -24.186 -12.184  0.00  0.00    +0.342 C 
BRANCH   5   6
ATOM      6  O   UNL     1      39.078 -24.486 -12.852  0.00  0.00    -0.479 OA
ATOM      7  H   UNL     1      39.108 -24.410 -13.786  0.00  0.00    +0.295 HD
ENDBRANCH   5   6
ENDBRANCH   1   5
BRANCH   1   8
ATOM      8  C   UNL     1      36.784 -25.115 -14.211  0.00  0.00    +0.150 C 
BRANCH   8  10
ATOM      9  O   UNL     1      38.281 -26.999 -14.632  0.00  0.00    -0.250 OA
ATOM     10  C   UNL     1      37.161 -26.510 -14.654  0.00  0.00    +0.317 C 
BRANCH  10  11
ATOM     11  O   UNL     1      36.058 -27.176 -15.083  0.00  0.00    -0.480 OA
ATOM     12  H   UNL     1      35.362 -26.708 -15.502  0.00  0.00    +0.295 HD
ENDBRANCH  10  11
ENDBRANCH   8  10
ENDBRANCH   1   8
TORSDOF 6
ENDMDL
