MODEL 1
REMARK VINA RESULT:      -6.1      0.000      0.000
REMARK  Name = 6453585
REMARK  1 active torsions:
REMARK  status: ('A' for Active; 'I' for Inactive)
REMARK    1  A    between atoms: C_9  and  O_11
REMARK                            x       y       z     vdW  Elec       q    Type
REMARK                         _______ _______ _______ _____ _____    ______ ____
ROOT
ATOM      1  O   UNL     1      41.002 -24.719 -14.267  0.00  0.00    -0.226 OA
ATOM      2  N   UNL     1      36.082 -25.136 -13.485  0.00  0.00    +0.388 N 
ATOM      3  N   UNL     1      38.801 -25.494 -14.290  0.00  0.00    -0.250 N 
ATOM      4  C   UNL     1      36.405 -25.471 -14.879  0.00  0.00    -0.055 C 
ATOM      5  C   UNL     1      37.148 -24.312 -12.894  0.00  0.00    -0.055 C 
ATOM      6  C   UNL     1      37.732 -26.228 -14.967  0.00  0.00    +0.074 C 
ATOM      7  C   UNL     1      38.488 -25.046 -12.936  0.00  0.00    +0.074 C 
ATOM      8  C   UNL     1      34.797 -24.444 -13.406  0.00  0.00    -0.101 C 
ATOM      9  C   UNL     1      40.084 -25.328 -14.810  0.00  0.00    +0.402 C 
ATOM     10  H   UNL     1      36.013 -26.003 -12.952  0.00  0.00    -0.080 HD
ENDROOT
BRANCH   9  11
ATOM     11  O   UNL     1      40.260 -25.921 -16.024  0.00  0.00    -0.466 OA
ATOM     12  H   UNL     1      39.524 -26.275 -16.484  0.00  0.00    +0.297 HD
ENDBRANCH   9  11
TORSDOF 1
ENDMDL
MODEL 2
REMARK VINA RESULT:      -5.8      7.797      9.465
REMARK  Name = 6453585
REMARK  1 active torsions:
REMARK  status: ('A' for Active; 'I' for Inactive)
REMARK    1  A    between atoms: C_9  and  O_11
REMARK                            x       y       z     vdW  Elec       q    Type
REMARK                         _______ _______ _______ _____ _____    ______ ____
ROOT
ATOM      1  O   UNL     1      27.578 -24.040 -17.550  0.00  0.00    -0.226 OA
ATOM      2  N   UNL     1      31.066 -24.351 -13.983  0.00  0.00    +0.388 N 
ATOM      3  N   UNL     1      28.983 -23.529 -15.759  0.00  0.00    -0.250 N 
ATOM      4  C   UNL     1      31.126 -23.037 -14.638  0.00  0.00    -0.055 C 
ATOM      5  C   UNL     1      30.401 -25.332 -14.855  0.00  0.00    -0.055 C 
ATOM      6  C   UNL     1      29.723 -22.533 -14.984  0.00  0.00    +0.074 C 
ATOM      7  C   UNL     1      28.983 -24.878 -15.200  0.00  0.00    +0.074 C 
ATOM      8  C   UNL     1      32.407 -24.809 -13.625  0.00  0.00    -0.101 C 
ATOM      9  C   UNL     1      28.211 -23.229 -16.880  0.00  0.00    +0.402 C 
ATOM     10  H   UNL     1      30.519 -24.260 -13.126  0.00  0.00    -0.080 HD
ENDROOT
BRANCH   9  11
ATOM     11  O   UNL     1      28.202 -21.903 -17.195  0.00  0.00    -0.466 OA
ATOM     12  H   UNL     1      29.007 -21.424 -17.228  0.00  0.00    +0.297 HD
ENDBRANCH   9  11
TORSDOF 1
ENDMDL
MODEL 3
REMARK VINA RESULT:      -5.6      3.250      4.506
REMARK  Name = 6453585
REMARK  1 active torsions:
REMARK  status: ('A' for Active; 'I' for Inactive)
REMARK    1  A    between atoms: C_9  and  O_11
REMARK                            x       y       z     vdW  Elec       q    Type
REMARK                         _______ _______ _______ _____ _____    ______ ____
ROOT
ATOM      1  O   UNL     1      34.389 -23.889 -12.384  0.00  0.00    -0.226 OA
ATOM      2  N   UNL     1      38.616 -25.521 -14.496  0.00  0.00    +0.388 N 
ATOM      3  N   UNL     1      36.284 -25.155 -12.884  0.00  0.00    -0.250 N 
ATOM      4  C   UNL     1      38.698 -25.645 -13.033  0.00  0.00    -0.055 C 
ATOM      5  C   UNL     1      37.600 -24.525 -14.872  0.00  0.00    -0.055 C 
ATOM      6  C   UNL     1      37.348 -26.057 -12.443  0.00  0.00    +0.074 C 
ATOM      7  C   UNL     1      36.228 -24.916 -14.324  0.00  0.00    +0.074 C 
ATOM      8  C   UNL     1      39.917 -25.161 -15.055  0.00  0.00    -0.101 C 
ATOM      9  C   UNL     1      35.295 -24.645 -12.045  0.00  0.00    +0.402 C 
ATOM     10  H   UNL     1      38.339 -26.423 -14.882  0.00  0.00    -0.080 HD
ENDROOT
BRANCH   9  11
ATOM     11  O   UNL     1      35.404 -25.070 -10.755  0.00  0.00    -0.466 OA
ATOM     12  H   UNL     1      34.811 -24.749 -10.104  0.00  0.00    +0.297 HD
ENDBRANCH   9  11
TORSDOF 1
ENDMDL
MODEL 4
REMARK VINA RESULT:      -5.4     13.471     13.994
REMARK  Name = 6453585
REMARK  1 active torsions:
REMARK  status: ('A' for Active; 'I' for Inactive)
REMARK    1  A    between atoms: C_9  and  O_11
REMARK                            x       y       z     vdW  Elec       q    Type
REMARK                         _______ _______ _______ _____ _____    ______ ____
ROOT
ATOM      1  O   UNL     1      32.991 -14.162 -24.960  0.00  0.00    -0.226 OA
ATOM      2  N   UNL     1      35.259 -18.084 -22.850  0.00  0.00    +0.388 N 
ATOM      3  N   UNL     1      34.266 -16.088 -24.639  0.00  0.00    -0.250 N 
ATOM      4  C   UNL     1      34.673 -18.471 -24.141  0.00  0.00    -0.055 C 
ATOM      5  C   UNL     1      34.601 -16.877 -22.327  0.00  0.00    -0.055 C 
ATOM      6  C   UNL     1      34.809 -17.342 -25.164  0.00  0.00    +0.074 C 
ATOM      7  C   UNL     1      34.741 -15.714 -23.309  0.00  0.00    +0.074 C 
ATOM      8  C   UNL     1      35.156 -19.181 -21.889  0.00  0.00    -0.101 C 
ATOM      9  C   UNL     1      33.460 -15.219 -25.371  0.00  0.00    +0.402 C 
ATOM     10  H   UNL     1      36.247 -17.876 -22.994  0.00  0.00    -0.080 HD
ENDROOT
BRANCH   9  11
ATOM     11  O   UNL     1      33.218 -15.644 -26.644  0.00  0.00    -0.466 OA
ATOM     12  H   UNL     1      32.887 -15.043 -27.283  0.00  0.00    +0.297 HD
ENDBRANCH   9  11
TORSDOF 1
ENDMDL
MODEL 5
REMARK VINA RESULT:      -5.4     13.307     13.811
REMARK  Name = 6453585
REMARK  1 active torsions:
REMARK  status: ('A' for Active; 'I' for Inactive)
REMARK    1  A    between atoms: C_9  and  O_11
REMARK                            x       y       z     vdW  Elec       q    Type
REMARK                         _______ _______ _______ _____ _____    ______ ____
ROOT
ATOM      1  O   UNL     1      35.220 -17.607 -20.850  0.00  0.00    -0.226 OA
ATOM      2  N   UNL     1      33.905 -15.305 -25.087  0.00  0.00    +0.388 N 
ATOM      3  N   UNL     1      34.815 -15.969 -22.460  0.00  0.00    -0.250 N 
ATOM      4  C   UNL     1      33.444 -14.532 -23.925  0.00  0.00    -0.055 C 
ATOM      5  C   UNL     1      34.138 -16.709 -24.713  0.00  0.00    -0.055 C 
ATOM      6  C   UNL     1      34.468 -14.586 -22.790  0.00  0.00    +0.074 C 
ATOM      7  C   UNL     1      35.180 -16.807 -23.599  0.00  0.00    +0.074 C 
ATOM      8  C   UNL     1      32.937 -15.220 -26.179  0.00  0.00    -0.101 C 
ATOM      9  C   UNL     1      34.931 -16.454 -21.159  0.00  0.00    +0.402 C 
ATOM     10  H   UNL     1      34.788 -14.907 -25.409  0.00  0.00    -0.080 HD
ENDROOT
BRANCH   9  11
ATOM     11  O   UNL     1      34.691 -15.513 -20.203  0.00  0.00    -0.466 OA
ATOM     12  H   UNL     1      35.074 -14.661 -20.279  0.00  0.00    +0.297 HD
ENDBRANCH   9  11
TORSDOF 1
ENDMDL
MODEL 6
REMARK VINA RESULT:      -5.3     13.905     14.426
REMARK  Name = 6453585
REMARK  1 active torsions:
REMARK  status: ('A' for Active; 'I' for Inactive)
REMARK    1  A    between atoms: C_9  and  O_11
REMARK                            x       y       z     vdW  Elec       q    Type
REMARK                         _______ _______ _______ _____ _____    ______ ____
ROOT
ATOM      1  O   UNL     1      35.119 -16.779 -21.556  0.00  0.00    -0.226 OA
ATOM      2  N   UNL     1      31.998 -12.979 -22.452  0.00  0.00    +0.388 N 
ATOM      3  N   UNL     1      33.766 -15.217 -22.638  0.00  0.00    -0.250 N 
ATOM      4  C   UNL     1      33.090 -12.982 -23.436  0.00  0.00    -0.055 C 
ATOM      5  C   UNL     1      32.392 -13.718 -21.243  0.00  0.00    -0.055 C 
ATOM      6  C   UNL     1      33.473 -14.412 -23.824  0.00  0.00    +0.074 C 
ATOM      7  C   UNL     1      32.756 -15.163 -21.585  0.00  0.00    +0.074 C 
ATOM      8  C   UNL     1      31.614 -11.610 -22.113  0.00  0.00    -0.101 C 
ATOM      9  C   UNL     1      34.848 -16.090 -22.535  0.00  0.00    +0.402 C 
ATOM     10  H   UNL     1      31.190 -13.446 -22.865  0.00  0.00    -0.080 HD
ENDROOT
BRANCH   9  11
ATOM     11  O   UNL     1      35.623 -16.130 -23.655  0.00  0.00    -0.466 OA
ATOM     12  H   UNL     1      36.381 -15.582 -23.720  0.00  0.00    +0.297 HD
ENDBRANCH   9  11
TORSDOF 1
ENDMDL
MODEL 7
REMARK VINA RESULT:      -5.3     13.958     14.513
REMARK  Name = 6453585
REMARK  1 active torsions:
REMARK  status: ('A' for Active; 'I' for Inactive)
REMARK    1  A    between atoms: C_9  and  O_11
REMARK                            x       y       z     vdW  Elec       q    Type
REMARK                         _______ _______ _______ _____ _____    ______ ____
ROOT
ATOM      1  O   UNL     1      33.104 -15.565 -26.507  0.00  0.00    -0.226 OA
ATOM      2  N   UNL     1      33.569 -14.734 -21.600  0.00  0.00    +0.388 N 
ATOM      3  N   UNL     1      33.968 -15.426 -24.344  0.00  0.00    -0.250 N 
ATOM      4  C   UNL     1      34.191 -16.017 -21.959  0.00  0.00    -0.055 C 
ATOM      5  C   UNL     1      32.585 -14.336 -22.618  0.00  0.00    -0.055 C 
ATOM      6  C   UNL     1      34.884 -15.927 -23.320  0.00  0.00    +0.074 C 
ATOM      7  C   UNL     1      33.246 -14.207 -23.990  0.00  0.00    +0.074 C 
ATOM      8  C   UNL     1      32.940 -14.818 -20.284  0.00  0.00    -0.101 C 
ATOM      9  C   UNL     1      33.861 -15.963 -25.626  0.00  0.00    +0.402 C 
ATOM     10  H   UNL     1      34.299 -14.021 -21.562  0.00  0.00    -0.080 HD
ENDROOT
BRANCH   9  11
ATOM     11  O   UNL     1      34.700 -17.014 -25.847  0.00  0.00    -0.466 OA
ATOM     12  H   UNL     1      34.867 -17.632 -25.163  0.00  0.00    +0.297 HD
ENDBRANCH   9  11
TORSDOF 1
ENDMDL
MODEL 8
REMARK VINA RESULT:      -5.1     12.387     12.916
REMARK  Name = 6453585
REMARK  1 active torsions:
REMARK  status: ('A' for Active; 'I' for Inactive)
REMARK    1  A    between atoms: C_9  and  O_11
REMARK                            x       y       z     vdW  Elec       q    Type
REMARK                         _______ _______ _______ _____ _____    ______ ____
ROOT
ATOM      1  O   UNL     1      35.631 -18.471 -22.928  0.00  0.00    -0.226 OA
ATOM      2  N   UNL     1      33.416 -14.065 -22.111  0.00  0.00    +0.388 N 
ATOM      3  N   UNL     1      34.965 -16.462 -21.948  0.00  0.00    -0.250 N 
ATOM      4  C   UNL     1      33.400 -14.877 -20.885  0.00  0.00    -0.055 C 
ATOM      5  C   UNL     1      33.587 -14.923 -23.294  0.00  0.00    -0.055 C 
ATOM      6  C   UNL     1      34.696 -15.678 -20.742  0.00  0.00    +0.074 C 
ATOM      7  C   UNL     1      34.889 -15.719 -23.203  0.00  0.00    +0.074 C 
ATOM      8  C   UNL     1      32.190 -13.278 -22.222  0.00  0.00    -0.101 C 
ATOM      9  C   UNL     1      35.396 -17.787 -21.936  0.00  0.00    +0.402 C 
ATOM     10  H   UNL     1      34.207 -13.423 -22.061  0.00  0.00    -0.080 HD
ENDROOT
BRANCH   9  11
ATOM     11  O   UNL     1      35.551 -18.298 -20.682  0.00  0.00    -0.466 OA
ATOM     12  H   UNL     1      35.415 -19.213 -20.530  0.00  0.00    +0.297 HD
ENDBRANCH   9  11
TORSDOF 1
ENDMDL
MODEL 9
REMARK VINA RESULT:      -5.1      6.566      8.138
REMARK  Name = 6453585
REMARK  1 active torsions:
REMARK  status: ('A' for Active; 'I' for Inactive)
REMARK    1  A    between atoms: C_9  and  O_11
REMARK                            x       y       z     vdW  Elec       q    Type
REMARK                         _______ _______ _______ _____ _____    ______ ____
ROOT
ATOM      1  O   UNL     1      29.326 -22.310 -17.036  0.00  0.00    -0.226 OA
ATOM      2  N   UNL     1      32.991 -24.410 -14.363  0.00  0.00    +0.388 N 
ATOM      3  N   UNL     1      30.572 -23.820 -15.768  0.00  0.00    -0.250 N 
ATOM      4  C   UNL     1      31.687 -24.692 -13.746  0.00  0.00    -0.055 C 
ATOM      5  C   UNL     1      32.905 -23.225 -15.232  0.00  0.00    -0.055 C 
ATOM      6  C   UNL     1      30.616 -24.927 -14.812  0.00  0.00    +0.074 C 
ATOM      7  C   UNL     1      31.863 -23.433 -16.331  0.00  0.00    +0.074 C 
ATOM      8  C   UNL     1      34.015 -24.220 -13.338  0.00  0.00    -0.101 C 
ATOM      9  C   UNL     1      29.395 -23.238 -16.235  0.00  0.00    +0.402 C 
ATOM     10  H   UNL     1      33.256 -25.211 -14.937  0.00  0.00    -0.080 HD
ENDROOT
BRANCH   9  11
ATOM     11  O   UNL     1      28.267 -23.801 -15.717  0.00  0.00    -0.466 OA
ATOM     12  H   UNL     1      27.971 -24.632 -16.034  0.00  0.00    +0.297 HD
ENDBRANCH   9  11
TORSDOF 1
ENDMDL
