MODEL 1
REMARK VINA RESULT:      -7.4      0.000      0.000
REMARK  Name = 447536
REMARK  4 active torsions:
REMARK  status: ('A' for Active; 'I' for Inactive)
REMARK    1  A    between atoms: C_1  and  C_2
REMARK    2  A    between atoms: C_1  and  S_8
REMARK    3  A    between atoms: C_1  and  C_13
REMARK    4  A    between atoms: C_13  and  O_14
REMARK                            x       y       z     vdW  Elec       q    Type
REMARK                         _______ _______ _______ _____ _____    ______ ____
ROOT
ATOM      1  C   UNL     1      34.234 -18.374 -22.233  0.00  0.00    +0.256 C 
ENDROOT
BRANCH   1   2
ATOM      2  C   UNL     1      34.200 -19.476 -21.229  0.00  0.00    +0.011 C 
ATOM      3  C   UNL     1      35.383 -20.105 -20.843  0.00  0.00    -0.002 C 
ATOM      4  C   UNL     1      32.984 -19.877 -20.674  0.00  0.00    -0.002 C 
ATOM      5  C   UNL     1      35.351 -21.136 -19.903  0.00  0.00    -0.000 C 
ATOM      6  C   UNL     1      32.952 -20.908 -19.735  0.00  0.00    -0.000 C 
ATOM      7  C   UNL     1      34.135 -21.537 -19.350  0.00  0.00    -0.000 C 
ENDBRANCH   1   2
BRANCH   1   8
ATOM      8  S   UNL     1      34.400 -16.839 -21.354  0.00  0.00    +0.035 S 
ATOM      9  O   UNL     1      34.917 -15.942 -22.612  0.00  0.00    -0.069 OA
ATOM     10  O   UNL     1      35.476 -16.973 -20.394  0.00  0.00    -0.069 OA
ATOM     11  O   UNL     1      33.078 -16.390 -20.967  0.00  0.00    -0.069 OA
ENDBRANCH   1   8
BRANCH   1  13
ATOM     12  O   UNL     1      35.145 -18.926 -24.423  0.00  0.00    -0.248 OA
ATOM     13  C   UNL     1      35.319 -18.492 -23.291  0.00  0.00    +0.341 C 
BRANCH  13  14
ATOM     14  O   UNL     1      36.539 -18.091 -22.848  0.00  0.00    -0.479 OA
ATOM     15  H   UNL     1      36.750 -17.178 -22.817  0.00  0.00    +0.295 HD
ENDBRANCH  13  14
ENDBRANCH   1  13
TORSDOF 4
ENDMDL
MODEL 2
REMARK VINA RESULT:      -7.4      0.064      1.293
REMARK  Name = 447536
REMARK  4 active torsions:
REMARK  status: ('A' for Active; 'I' for Inactive)
REMARK    1  A    between atoms: C_1  and  C_2
REMARK    2  A    between atoms: C_1  and  S_8
REMARK    3  A    between atoms: C_1  and  C_13
REMARK    4  A    between atoms: C_13  and  O_14
REMARK                            x       y       z     vdW  Elec       q    Type
REMARK                         _______ _______ _______ _____ _____    ______ ____
ROOT
ATOM      1  C   UNL     1      34.219 -18.312 -22.242  0.00  0.00    +0.256 C 
ENDROOT
BRANCH   1   2
ATOM      2  C   UNL     1      34.185 -19.420 -21.244  0.00  0.00    +0.011 C 
ATOM      3  C   UNL     1      32.971 -19.813 -20.679  0.00  0.00    -0.002 C 
ATOM      4  C   UNL     1      35.366 -20.063 -20.875  0.00  0.00    -0.002 C 
ATOM      5  C   UNL     1      32.940 -20.849 -19.745  0.00  0.00    -0.000 C 
ATOM      6  C   UNL     1      35.335 -21.099 -19.941  0.00  0.00    -0.000 C 
ATOM      7  C   UNL     1      34.122 -21.491 -19.376  0.00  0.00    -0.000 C 
ENDBRANCH   1   2
BRANCH   1   8
ATOM      8  S   UNL     1      34.398 -16.784 -21.356  0.00  0.00    +0.035 S 
ATOM      9  O   UNL     1      34.954 -15.893 -22.601  0.00  0.00    -0.069 OA
ATOM     10  O   UNL     1      35.454 -16.940 -20.377  0.00  0.00    -0.069 OA
ATOM     11  O   UNL     1      33.078 -16.311 -20.991  0.00  0.00    -0.069 OA
ENDBRANCH   1   8
BRANCH   1  13
ATOM     12  O   UNL     1      35.109 -18.829 -24.450  0.00  0.00    -0.248 OA
ATOM     13  C   UNL     1      35.297 -18.430 -23.307  0.00  0.00    +0.341 C 
BRANCH  13  14
ATOM     14  O   UNL     1      36.528 -18.072 -22.858  0.00  0.00    -0.479 OA
ATOM     15  H   UNL     1      36.704 -18.051 -21.938  0.00  0.00    +0.295 HD
ENDBRANCH  13  14
ENDBRANCH   1  13
TORSDOF 4
ENDMDL
MODEL 3
REMARK VINA RESULT:      -6.9      1.095      1.740
REMARK  Name = 447536
REMARK  4 active torsions:
REMARK  status: ('A' for Active; 'I' for Inactive)
REMARK    1  A    between atoms: C_1  and  C_2
REMARK    2  A    between atoms: C_1  and  S_8
REMARK    3  A    between atoms: C_1  and  C_13
REMARK    4  A    between atoms: C_13  and  O_14
REMARK                            x       y       z     vdW  Elec       q    Type
REMARK                         _______ _______ _______ _____ _____    ______ ____
ROOT
ATOM      1  C   UNL     1      34.085 -17.473 -22.457  0.00  0.00    +0.256 C 
ENDROOT
BRANCH   1   2
ATOM      2  C   UNL     1      34.484 -18.622 -21.593  0.00  0.00    +0.011 C 
ATOM      3  C   UNL     1      35.834 -18.876 -21.349  0.00  0.00    -0.002 C 
ATOM      4  C   UNL     1      33.507 -19.441 -21.028  0.00  0.00    -0.002 C 
ATOM      5  C   UNL     1      36.205 -19.951 -20.541  0.00  0.00    -0.000 C 
ATOM      6  C   UNL     1      33.879 -20.516 -20.220  0.00  0.00    -0.000 C 
ATOM      7  C   UNL     1      35.228 -20.770 -19.977  0.00  0.00    -0.000 C 
ENDBRANCH   1   2
BRANCH   1   8
ATOM      8  S   UNL     1      34.030 -16.018 -21.440  0.00  0.00    +0.035 S 
ATOM      9  O   UNL     1      32.587 -16.313 -20.744  0.00  0.00    -0.069 OA
ATOM     10  O   UNL     1      33.911 -14.859 -22.301  0.00  0.00    -0.069 OA
ATOM     11  O   UNL     1      35.069 -16.124 -20.435  0.00  0.00    -0.069 OA
ENDBRANCH   1   8
BRANCH   1  13
ATOM     12  O   UNL     1      34.907 -17.863 -24.717  0.00  0.00    -0.248 OA
ATOM     13  C   UNL     1      34.972 -17.232 -23.668  0.00  0.00    +0.341 C 
BRANCH  13  14
ATOM     14  O   UNL     1      35.889 -16.250 -23.469  0.00  0.00    -0.479 OA
ATOM     15  H   UNL     1      36.762 -16.350 -23.794  0.00  0.00    +0.295 HD
ENDBRANCH  13  14
ENDBRANCH   1  13
TORSDOF 4
ENDMDL
MODEL 4
REMARK VINA RESULT:      -6.9      8.671     10.165
REMARK  Name = 447536
REMARK  4 active torsions:
REMARK  status: ('A' for Active; 'I' for Inactive)
REMARK    1  A    between atoms: C_1  and  C_2
REMARK    2  A    between atoms: C_1  and  S_8
REMARK    3  A    between atoms: C_1  and  C_13
REMARK    4  A    between atoms: C_13  and  O_14
REMARK                            x       y       z     vdW  Elec       q    Type
REMARK                         _______ _______ _______ _____ _____    ______ ____
ROOT
ATOM      1  C   UNL     1      37.648 -24.288 -13.613  0.00  0.00    +0.256 C 
ENDROOT
BRANCH   1   2
ATOM      2  C   UNL     1      36.924 -23.657 -14.754  0.00  0.00    +0.011 C 
ATOM      3  C   UNL     1      35.574 -23.937 -14.964  0.00  0.00    -0.002 C 
ATOM      4  C   UNL     1      37.597 -22.786 -15.611  0.00  0.00    -0.002 C 
ATOM      5  C   UNL     1      34.897 -23.346 -16.031  0.00  0.00    -0.000 C 
ATOM      6  C   UNL     1      36.920 -22.195 -16.679  0.00  0.00    -0.000 C 
ATOM      7  C   UNL     1      35.570 -22.476 -16.888  0.00  0.00    -0.000 C 
ENDBRANCH   1   2
BRANCH   1   8
ATOM      8  S   UNL     1      37.219 -23.399 -12.136  0.00  0.00    +0.035 S 
ATOM      9  O   UNL     1      37.914 -24.423 -11.076  0.00  0.00    -0.069 OA
ATOM     10  O   UNL     1      35.781 -23.451 -11.969  0.00  0.00    -0.069 OA
ATOM     11  O   UNL     1      37.948 -22.147 -12.129  0.00  0.00    -0.069 OA
ENDBRANCH   1   8
BRANCH   1  13
ATOM     12  O   UNL     1      38.021 -26.667 -13.979  0.00  0.00    -0.248 OA
ATOM     13  C   UNL     1      37.393 -25.774 -13.423  0.00  0.00    +0.341 C 
BRANCH  13  14
ATOM     14  O   UNL     1      36.357 -26.032 -12.583  0.00  0.00    -0.479 OA
ATOM     15  H   UNL     1      35.896 -25.325 -12.176  0.00  0.00    +0.295 HD
ENDBRANCH  13  14
ENDBRANCH   1  13
TORSDOF 4
ENDMDL
MODEL 5
REMARK VINA RESULT:      -6.8      8.777     10.116
REMARK  Name = 447536
REMARK  4 active torsions:
REMARK  status: ('A' for Active; 'I' for Inactive)
REMARK    1  A    between atoms: C_1  and  C_2
REMARK    2  A    between atoms: C_1  and  S_8
REMARK    3  A    between atoms: C_1  and  C_13
REMARK    4  A    between atoms: C_13  and  O_14
REMARK                            x       y       z     vdW  Elec       q    Type
REMARK                         _______ _______ _______ _____ _____    ______ ____
ROOT
ATOM      1  C   UNL     1      37.709 -24.679 -13.803  0.00  0.00    +0.256 C 
ENDROOT
BRANCH   1   2
ATOM      2  C   UNL     1      36.875 -23.983 -14.824  0.00  0.00    +0.011 C 
ATOM      3  C   UNL     1      37.429 -22.967 -15.603  0.00  0.00    -0.002 C 
ATOM      4  C   UNL     1      35.540 -24.348 -15.000  0.00  0.00    -0.002 C 
ATOM      5  C   UNL     1      36.647 -22.316 -16.557  0.00  0.00    -0.000 C 
ATOM      6  C   UNL     1      34.759 -23.697 -15.955  0.00  0.00    -0.000 C 
ATOM      7  C   UNL     1      35.313 -22.681 -16.733  0.00  0.00    -0.000 C 
ENDBRANCH   1   2
BRANCH   1   8
ATOM      8  S   UNL     1      37.286 -24.020 -12.209  0.00  0.00    +0.035 S 
ATOM      9  O   UNL     1      38.077 -22.604 -12.359  0.00  0.00    -0.069 OA
ATOM     10  O   UNL     1      37.937 -24.820 -11.192  0.00  0.00    -0.069 OA
ATOM     11  O   UNL     1      35.860 -23.763 -12.186  0.00  0.00    -0.069 OA
ENDBRANCH   1   8
BRANCH   1  13
ATOM     12  O   UNL     1      38.140 -26.944 -14.591  0.00  0.00    -0.248 OA
ATOM     13  C   UNL     1      37.592 -26.195 -13.791  0.00  0.00    +0.341 C 
BRANCH  13  14
ATOM     14  O   UNL     1      36.778 -26.657 -12.806  0.00  0.00    -0.479 OA
ATOM     15  H   UNL     1      35.930 -26.277 -12.682  0.00  0.00    +0.295 HD
ENDBRANCH  13  14
ENDBRANCH   1  13
TORSDOF 4
ENDMDL
MODEL 6
REMARK VINA RESULT:      -6.7      8.849     10.472
REMARK  Name = 447536
REMARK  4 active torsions:
REMARK  status: ('A' for Active; 'I' for Inactive)
REMARK    1  A    between atoms: C_1  and  C_2
REMARK    2  A    between atoms: C_1  and  S_8
REMARK    3  A    between atoms: C_1  and  C_13
REMARK    4  A    between atoms: C_13  and  O_14
REMARK                            x       y       z     vdW  Elec       q    Type
REMARK                         _______ _______ _______ _____ _____    ______ ____
ROOT
ATOM      1  C   UNL     1      36.740 -24.315 -13.079  0.00  0.00    +0.256 C 
ENDROOT
BRANCH   1   2
ATOM      2  C   UNL     1      36.561 -23.633 -14.393  0.00  0.00    +0.011 C 
ATOM      3  C   UNL     1      37.674 -23.179 -15.101  0.00  0.00    -0.002 C 
ATOM      4  C   UNL     1      35.280 -23.448 -14.914  0.00  0.00    -0.002 C 
ATOM      5  C   UNL     1      37.505 -22.540 -16.330  0.00  0.00    -0.000 C 
ATOM      6  C   UNL     1      35.112 -22.809 -16.143  0.00  0.00    -0.000 C 
ATOM      7  C   UNL     1      36.224 -22.355 -16.850  0.00  0.00    -0.000 C 
ENDBRANCH   1   2
BRANCH   1   8
ATOM      8  S   UNL     1      37.456 -25.911 -13.387  0.00  0.00    +0.035 S 
ATOM      9  O   UNL     1      36.955 -26.626 -12.011  0.00  0.00    -0.069 OA
ATOM     10  O   UNL     1      38.899 -25.782 -13.354  0.00  0.00    -0.069 OA
ATOM     11  O   UNL     1      36.766 -26.513 -14.509  0.00  0.00    -0.069 OA
ENDBRANCH   1   8
BRANCH   1  13
ATOM     12  O   UNL     1      37.715 -22.339 -12.042  0.00  0.00    -0.248 OA
ATOM     13  C   UNL     1      37.572 -23.555 -12.059  0.00  0.00    +0.341 C 
BRANCH  13  14
ATOM     14  O   UNL     1      38.186 -24.370 -11.162  0.00  0.00    -0.479 OA
ATOM     15  H   UNL     1      37.675 -24.867 -10.553  0.00  0.00    +0.295 HD
ENDBRANCH  13  14
ENDBRANCH   1  13
TORSDOF 4
ENDMDL
MODEL 7
REMARK VINA RESULT:      -6.5      9.018     10.131
REMARK  Name = 447536
REMARK  4 active torsions:
REMARK  status: ('A' for Active; 'I' for Inactive)
REMARK    1  A    between atoms: C_1  and  C_2
REMARK    2  A    between atoms: C_1  and  S_8
REMARK    3  A    between atoms: C_1  and  C_13
REMARK    4  A    between atoms: C_13  and  O_14
REMARK                            x       y       z     vdW  Elec       q    Type
REMARK                         _______ _______ _______ _____ _____    ______ ____
ROOT
ATOM      1  C   UNL     1      36.940 -24.963 -14.556  0.00  0.00    +0.256 C 
ENDROOT
BRANCH   1   2
ATOM      2  C   UNL     1      35.564 -24.409 -14.705  0.00  0.00    +0.011 C 
ATOM      3  C   UNL     1      34.583 -24.712 -13.760  0.00  0.00    -0.002 C 
ATOM      4  C   UNL     1      35.257 -23.586 -15.788  0.00  0.00    -0.002 C 
ATOM      5  C   UNL     1      33.296 -24.193 -13.900  0.00  0.00    -0.000 C 
ATOM      6  C   UNL     1      33.969 -23.067 -15.928  0.00  0.00    -0.000 C 
ATOM      7  C   UNL     1      32.990 -23.371 -14.983  0.00  0.00    -0.000 C 
ENDBRANCH   1   2
BRANCH   1   8
ATOM      8  S   UNL     1      37.401 -24.829 -12.846  0.00  0.00    +0.035 S 
ATOM      9  O   UNL     1      39.012 -24.757 -13.077  0.00  0.00    -0.069 OA
ATOM     10  O   UNL     1      37.074 -26.075 -12.182  0.00  0.00    -0.069 OA
ATOM     11  O   UNL     1      36.939 -23.550 -12.348  0.00  0.00    -0.069 OA
ENDBRANCH   1   8
BRANCH   1  13
ATOM     12  O   UNL     1      36.331 -26.994 -15.756  0.00  0.00    -0.248 OA
ATOM     13  C   UNL     1      37.120 -26.395 -15.036  0.00  0.00    +0.341 C 
BRANCH  13  14
ATOM     14  O   UNL     1      38.250 -26.978 -14.557  0.00  0.00    -0.479 OA
ATOM     15  H   UNL     1      38.211 -27.834 -14.178  0.00  0.00    +0.295 HD
ENDBRANCH  13  14
ENDBRANCH   1  13
TORSDOF 4
ENDMDL
MODEL 8
REMARK VINA RESULT:      -6.3      1.250      2.652
REMARK  Name = 447536
REMARK  4 active torsions:
REMARK  status: ('A' for Active; 'I' for Inactive)
REMARK    1  A    between atoms: C_1  and  C_2
REMARK    2  A    between atoms: C_1  and  S_8
REMARK    3  A    between atoms: C_1  and  C_13
REMARK    4  A    between atoms: C_13  and  O_14
REMARK                            x       y       z     vdW  Elec       q    Type
REMARK                         _______ _______ _______ _____ _____    ______ ____
ROOT
ATOM      1  C   UNL     1      35.304 -17.848 -21.435  0.00  0.00    +0.256 C 
ENDROOT
BRANCH   1   2
ATOM      2  C   UNL     1      34.754 -19.104 -20.849  0.00  0.00    +0.011 C 
ATOM      3  C   UNL     1      35.619 -20.111 -20.422  0.00  0.00    -0.002 C 
ATOM      4  C   UNL     1      33.374 -19.272 -20.728  0.00  0.00    -0.002 C 
ATOM      5  C   UNL     1      35.104 -21.286 -19.874  0.00  0.00    -0.000 C 
ATOM      6  C   UNL     1      32.859 -20.447 -20.180  0.00  0.00    -0.000 C 
ATOM      7  C   UNL     1      33.725 -21.454 -19.753  0.00  0.00    -0.000 C 
ENDBRANCH   1   2
BRANCH   1   8
ATOM      8  S   UNL     1      35.221 -17.988 -23.204  0.00  0.00    +0.035 S 
ATOM      9  O   UNL     1      36.621 -18.797 -23.408  0.00  0.00    -0.069 OA
ATOM     10  O   UNL     1      35.352 -16.664 -23.777  0.00  0.00    -0.069 OA
ATOM     11  O   UNL     1      34.118 -18.864 -23.541  0.00  0.00    -0.069 OA
ENDBRANCH   1   8
BRANCH   1  13
ATOM     12  O   UNL     1      34.939 -15.926 -19.983  0.00  0.00    -0.248 OA
ATOM     13  C   UNL     1      34.625 -16.566 -20.979  0.00  0.00    +0.341 C 
BRANCH  13  14
ATOM     14  O   UNL     1      33.590 -16.199 -21.779  0.00  0.00    -0.479 OA
ATOM     15  H   UNL     1      33.309 -15.306 -21.803  0.00  0.00    +0.295 HD
ENDBRANCH  13  14
ENDBRANCH   1  13
TORSDOF 4
ENDMDL
MODEL 9
REMARK VINA RESULT:      -6.3      3.036      5.113
REMARK  Name = 447536
REMARK  4 active torsions:
REMARK  status: ('A' for Active; 'I' for Inactive)
REMARK    1  A    between atoms: C_1  and  C_2
REMARK    2  A    between atoms: C_1  and  S_8
REMARK    3  A    between atoms: C_1  and  C_13
REMARK    4  A    between atoms: C_13  and  O_14
REMARK                            x       y       z     vdW  Elec       q    Type
REMARK                         _______ _______ _______ _____ _____    ______ ____
ROOT
ATOM      1  C   UNL     1      35.256 -16.326 -22.734  0.00  0.00    +0.256 C 
ENDROOT
BRANCH   1   2
ATOM      2  C   UNL     1      34.438 -15.581 -23.734  0.00  0.00    +0.011 C 
ATOM      3  C   UNL     1      34.075 -16.195 -24.934  0.00  0.00    -0.002 C 
ATOM      4  C   UNL     1      34.036 -14.272 -23.472  0.00  0.00    -0.002 C 
ATOM      5  C   UNL     1      33.310 -15.498 -25.869  0.00  0.00    -0.000 C 
ATOM      6  C   UNL     1      33.271 -13.575 -24.407  0.00  0.00    -0.000 C 
ATOM      7  C   UNL     1      32.908 -14.189 -25.606  0.00  0.00    -0.000 C 
ENDBRANCH   1   2
BRANCH   1   8
ATOM      8  S   UNL     1      34.547 -16.043 -21.130  0.00  0.00    +0.035 S 
ATOM      9  O   UNL     1      35.381 -17.194 -20.335  0.00  0.00    -0.069 OA
ATOM     10  O   UNL     1      33.148 -16.416 -21.173  0.00  0.00    -0.069 OA
ATOM     11  O   UNL     1      34.979 -14.741 -20.663  0.00  0.00    -0.069 OA
ENDBRANCH   1   8
BRANCH   1  13
ATOM     12  O   UNL     1      34.463 -18.577 -23.217  0.00  0.00    -0.248 OA
ATOM     13  C   UNL     1      35.396 -17.818 -22.989  0.00  0.00    +0.341 C 
BRANCH  13  14
ATOM     14  O   UNL     1      36.681 -18.252 -22.907  0.00  0.00    -0.479 OA
ATOM     15  H   UNL     1      36.972 -18.713 -22.145  0.00  0.00    +0.295 HD
ENDBRANCH  13  14
ENDBRANCH   1  13
TORSDOF 4
ENDMDL
