MODEL 1
REMARK VINA RESULT:      -7.3      0.000      0.000
REMARK  Name = 75451
REMARK  5 active torsions:
REMARK  status: ('A' for Active; 'I' for Inactive)
REMARK    1  A    between atoms: C_1  and  C_10
REMARK    2  A    between atoms: C_6  and  N_7
REMARK    3  A    between atoms: C_10  and  C_11
REMARK    4  A    between atoms: C_11  and  C_13
REMARK    5  A    between atoms: C_13  and  O_14
REMARK                            x       y       z     vdW  Elec       q    Type
REMARK                         _______ _______ _______ _____ _____    ______ ____
ROOT
ATOM      1  C   UNL     1      34.826 -19.452 -21.260  0.00  0.00    -0.022 C 
ATOM      2  C   UNL     1      33.439 -19.438 -21.109  0.00  0.00    -0.003 C 
ATOM      3  C   UNL     1      35.593 -20.390 -20.569  0.00  0.00    -0.003 C 
ATOM      4  C   UNL     1      32.820 -20.361 -20.267  0.00  0.00    +0.014 C 
ATOM      5  C   UNL     1      34.975 -21.313 -19.727  0.00  0.00    +0.014 C 
ATOM      6  C   UNL     1      33.588 -21.299 -19.575  0.00  0.00    +0.042 C 
ENDROOT
BRANCH   6   7
ATOM      7  N   UNL     1      32.962 -22.234 -18.724  0.00  0.00    -0.357 N 
ATOM      8  H   UNL     1      32.309 -21.928 -18.053  0.00  0.00    +0.142 HD
ATOM      9  H   UNL     1      33.178 -23.191 -18.800  0.00  0.00    +0.142 HD
ENDBRANCH   6   7
BRANCH   1  10
ATOM     10  C   UNL     1      35.488 -18.466 -22.162  0.00  0.00    +0.038 C 
BRANCH  10  11
ATOM     11  C   UNL     1      35.167 -18.674 -23.646  0.00  0.00    +0.114 C 
BRANCH  11  13
ATOM     12  O   UNL     1      34.639 -17.245 -25.521  0.00  0.00    -0.250 OA
ATOM     13  C   UNL     1      35.093 -17.363 -24.390  0.00  0.00    +0.314 C 
BRANCH  13  14
ATOM     14  O   UNL     1      35.609 -16.325 -23.685  0.00  0.00    -0.480 OA
ATOM     15  H   UNL     1      36.537 -16.244 -23.585  0.00  0.00    +0.295 HD
ENDBRANCH  13  14
ENDBRANCH  11  13
ENDBRANCH  10  11
ENDBRANCH   1  10
TORSDOF 5
ENDMDL
MODEL 2
REMARK VINA RESULT:      -7.3      0.077      1.397
REMARK  Name = 75451
REMARK  5 active torsions:
REMARK  status: ('A' for Active; 'I' for Inactive)
REMARK    1  A    between atoms: C_1  and  C_10
REMARK    2  A    between atoms: C_6  and  N_7
REMARK    3  A    between atoms: C_10  and  C_11
REMARK    4  A    between atoms: C_11  and  C_13
REMARK    5  A    between atoms: C_13  and  O_14
REMARK                            x       y       z     vdW  Elec       q    Type
REMARK                         _______ _______ _______ _____ _____    ______ ____
ROOT
ATOM      1  C   UNL     1      34.786 -19.513 -21.249  0.00  0.00    -0.022 C 
ATOM      2  C   UNL     1      35.561 -20.434 -20.544  0.00  0.00    -0.003 C 
ATOM      3  C   UNL     1      33.399 -19.509 -21.100  0.00  0.00    -0.003 C 
ATOM      4  C   UNL     1      34.949 -21.350 -19.689  0.00  0.00    +0.014 C 
ATOM      5  C   UNL     1      32.786 -20.425 -20.245  0.00  0.00    +0.014 C 
ATOM      6  C   UNL     1      33.561 -21.345 -19.540  0.00  0.00    +0.042 C 
ENDROOT
BRANCH   6   7
ATOM      7  N   UNL     1      32.942 -22.272 -18.674  0.00  0.00    -0.357 N 
ATOM      8  H   UNL     1      32.858 -23.216 -18.942  0.00  0.00    +0.142 HD
ATOM      9  H   UNL     1      32.593 -21.975 -17.803  0.00  0.00    +0.142 HD
ENDBRANCH   6   7
BRANCH   1  10
ATOM     10  C   UNL     1      35.441 -18.532 -22.162  0.00  0.00    +0.038 C 
BRANCH  10  11
ATOM     11  C   UNL     1      35.024 -18.681 -23.630  0.00  0.00    +0.114 C 
BRANCH  11  13
ATOM     12  O   UNL     1      34.677 -17.202 -25.508  0.00  0.00    -0.250 OA
ATOM     13  C   UNL     1      35.081 -17.363 -24.362  0.00  0.00    +0.314 C 
BRANCH  13  14
ATOM     14  O   UNL     1      35.651 -16.375 -23.630  0.00  0.00    -0.480 OA
ATOM     15  H   UNL     1      36.183 -16.590 -22.889  0.00  0.00    +0.295 HD
ENDBRANCH  13  14
ENDBRANCH  11  13
ENDBRANCH  10  11
ENDBRANCH   1  10
TORSDOF 5
ENDMDL
MODEL 3
REMARK VINA RESULT:      -7.2      1.004      1.964
REMARK  Name = 75451
REMARK  5 active torsions:
REMARK  status: ('A' for Active; 'I' for Inactive)
REMARK    1  A    between atoms: C_1  and  C_10
REMARK    2  A    between atoms: C_6  and  N_7
REMARK    3  A    between atoms: C_10  and  C_11
REMARK    4  A    between atoms: C_11  and  C_13
REMARK    5  A    between atoms: C_13  and  O_14
REMARK                            x       y       z     vdW  Elec       q    Type
REMARK                         _______ _______ _______ _____ _____    ______ ____
ROOT
ATOM      1  C   UNL     1      35.178 -19.735 -20.852  0.00  0.00    -0.022 C 
ATOM      2  C   UNL     1      35.779 -20.744 -20.099  0.00  0.00    -0.003 C 
ATOM      3  C   UNL     1      33.788 -19.615 -20.873  0.00  0.00    -0.003 C 
ATOM      4  C   UNL     1      34.992 -21.632 -19.368  0.00  0.00    +0.014 C 
ATOM      5  C   UNL     1      33.000 -20.503 -20.142  0.00  0.00    +0.014 C 
ATOM      6  C   UNL     1      33.601 -21.512 -19.389  0.00  0.00    +0.042 C 
ENDROOT
BRANCH   6   7
ATOM      7  N   UNL     1      32.804 -22.410 -18.649  0.00  0.00    -0.357 N 
ATOM      8  H   UNL     1      32.681 -22.276 -17.681  0.00  0.00    +0.142 HD
ATOM      9  H   UNL     1      32.372 -23.172 -19.099  0.00  0.00    +0.142 HD
ENDBRANCH   6   7
BRANCH   1  10
ATOM     10  C   UNL     1      36.021 -18.784 -21.633  0.00  0.00    +0.038 C 
BRANCH  10  11
ATOM     11  C   UNL     1      35.287 -18.134 -22.811  0.00  0.00    +0.114 C 
BRANCH  11  13
ATOM     12  O   UNL     1      34.721 -16.096 -21.646  0.00  0.00    -0.250 OA
ATOM     13  C   UNL     1      35.179 -16.638 -22.644  0.00  0.00    +0.314 C 
BRANCH  13  14
ATOM     14  O   UNL     1      35.617 -15.951 -23.728  0.00  0.00    -0.480 OA
ATOM     15  H   UNL     1      36.151 -15.190 -23.614  0.00  0.00    +0.295 HD
ENDBRANCH  13  14
ENDBRANCH  11  13
ENDBRANCH  10  11
ENDBRANCH   1  10
TORSDOF 5
ENDMDL
MODEL 4
REMARK VINA RESULT:      -6.6      4.212      5.624
REMARK  Name = 75451
REMARK  5 active torsions:
REMARK  status: ('A' for Active; 'I' for Inactive)
REMARK    1  A    between atoms: C_1  and  C_10
REMARK    2  A    between atoms: C_6  and  N_7
REMARK    3  A    between atoms: C_10  and  C_11
REMARK    4  A    between atoms: C_11  and  C_13
REMARK    5  A    between atoms: C_13  and  O_14
REMARK                            x       y       z     vdW  Elec       q    Type
REMARK                         _______ _______ _______ _____ _____    ______ ____
ROOT
ATOM      1  C   UNL     1      35.014 -19.209 -21.525  0.00  0.00    -0.022 C 
ATOM      2  C   UNL     1      34.920 -19.505 -22.885  0.00  0.00    -0.003 C 
ATOM      3  C   UNL     1      35.117 -17.882 -21.105  0.00  0.00    -0.003 C 
ATOM      4  C   UNL     1      34.928 -18.475 -23.825  0.00  0.00    +0.014 C 
ATOM      5  C   UNL     1      35.126 -16.852 -22.045  0.00  0.00    +0.014 C 
ATOM      6  C   UNL     1      35.031 -17.148 -23.405  0.00  0.00    +0.042 C 
ENDROOT
BRANCH   6   7
ATOM      7  N   UNL     1      35.040 -16.106 -24.356  0.00  0.00    -0.357 N 
ATOM      8  H   UNL     1      35.216 -15.180 -24.071  0.00  0.00    +0.142 HD
ATOM      9  H   UNL     1      34.867 -16.304 -25.305  0.00  0.00    +0.142 HD
ENDBRANCH   6   7
BRANCH   1  10
ATOM     10  C   UNL     1      35.003 -20.310 -20.519  0.00  0.00    +0.038 C 
BRANCH  10  11
ATOM     11  C   UNL     1      33.600 -20.688 -20.032  0.00  0.00    +0.114 C 
BRANCH  11  13
ATOM     12  O   UNL     1      32.668 -22.372 -18.573  0.00  0.00    -0.250 OA
ATOM     13  C   UNL     1      33.609 -21.979 -19.251  0.00  0.00    +0.314 C 
BRANCH  13  14
ATOM     14  O   UNL     1      34.783 -22.650 -19.353  0.00  0.00    -0.480 OA
ATOM     15  H   UNL     1      34.865 -23.357 -19.963  0.00  0.00    +0.295 HD
ENDBRANCH  13  14
ENDBRANCH  11  13
ENDBRANCH  10  11
ENDBRANCH   1  10
TORSDOF 5
ENDMDL
MODEL 5
REMARK VINA RESULT:      -6.5      4.876      6.368
REMARK  Name = 75451
REMARK  5 active torsions:
REMARK  status: ('A' for Active; 'I' for Inactive)
REMARK    1  A    between atoms: C_1  and  C_10
REMARK    2  A    between atoms: C_6  and  N_7
REMARK    3  A    between atoms: C_10  and  C_11
REMARK    4  A    between atoms: C_11  and  C_13
REMARK    5  A    between atoms: C_13  and  O_14
REMARK                            x       y       z     vdW  Elec       q    Type
REMARK                         _______ _______ _______ _____ _____    ______ ____
ROOT
ATOM      1  C   UNL     1      34.602 -21.090 -19.842  0.00  0.00    -0.022 C 
ATOM      2  C   UNL     1      35.807 -20.519 -20.250  0.00  0.00    -0.003 C 
ATOM      3  C   UNL     1      33.391 -20.509 -20.220  0.00  0.00    -0.003 C 
ATOM      4  C   UNL     1      35.802 -19.367 -21.036  0.00  0.00    +0.014 C 
ATOM      5  C   UNL     1      33.385 -19.358 -21.006  0.00  0.00    +0.014 C 
ATOM      6  C   UNL     1      34.590 -18.786 -21.414  0.00  0.00    +0.042 C 
ENDROOT
BRANCH   6   7
ATOM      7  N   UNL     1      34.585 -17.620 -22.209  0.00  0.00    -0.357 N 
ATOM      8  H   UNL     1      33.814 -17.423 -22.788  0.00  0.00    +0.142 HD
ATOM      9  H   UNL     1      35.353 -17.005 -22.186  0.00  0.00    +0.142 HD
ENDBRANCH   6   7
BRANCH   1  10
ATOM     10  C   UNL     1      34.607 -22.323 -19.003  0.00  0.00    +0.038 C 
BRANCH  10  11
ATOM     11  C   UNL     1      33.273 -22.598 -18.300  0.00  0.00    +0.114 C 
BRANCH  11  13
ATOM     12  O   UNL     1      34.537 -23.814 -16.639  0.00  0.00    -0.250 OA
ATOM     13  C   UNL     1      33.472 -23.323 -16.991  0.00  0.00    +0.314 C 
BRANCH  13  14
ATOM     14  O   UNL     1      32.337 -23.400 -16.252  0.00  0.00    -0.480 OA
ATOM     15  H   UNL     1      31.581 -22.907 -16.504  0.00  0.00    +0.295 HD
ENDBRANCH  13  14
ENDBRANCH  11  13
ENDBRANCH  10  11
ENDBRANCH   1  10
TORSDOF 5
ENDMDL
MODEL 6
REMARK VINA RESULT:      -6.5      8.460      9.688
REMARK  Name = 75451
REMARK  5 active torsions:
REMARK  status: ('A' for Active; 'I' for Inactive)
REMARK    1  A    between atoms: C_1  and  C_10
REMARK    2  A    between atoms: C_6  and  N_7
REMARK    3  A    between atoms: C_10  and  C_11
REMARK    4  A    between atoms: C_11  and  C_13
REMARK    5  A    between atoms: C_13  and  O_14
REMARK                            x       y       z     vdW  Elec       q    Type
REMARK                         _______ _______ _______ _____ _____    ______ ____
ROOT
ATOM      1  C   UNL     1      29.978 -23.867 -15.382  0.00  0.00    -0.022 C 
ATOM      2  C   UNL     1      30.070 -24.783 -14.333  0.00  0.00    -0.003 C 
ATOM      3  C   UNL     1      31.122 -23.214 -15.840  0.00  0.00    -0.003 C 
ATOM      4  C   UNL     1      31.306 -25.045 -13.743  0.00  0.00    +0.014 C 
ATOM      5  C   UNL     1      32.358 -23.476 -15.251  0.00  0.00    +0.014 C 
ATOM      6  C   UNL     1      32.451 -24.391 -14.202  0.00  0.00    +0.042 C 
ENDROOT
BRANCH   6   7
ATOM      7  N   UNL     1      33.701 -24.657 -13.605  0.00  0.00    -0.357 N 
ATOM      8  H   UNL     1      34.533 -24.434 -14.084  0.00  0.00    +0.142 HD
ATOM      9  H   UNL     1      33.743 -25.066 -12.710  0.00  0.00    +0.142 HD
ENDBRANCH   6   7
BRANCH   1  10
ATOM     10  C   UNL     1      28.656 -23.588 -16.014  0.00  0.00    +0.038 C 
BRANCH  10  11
ATOM     11  C   UNL     1      27.924 -22.386 -15.409  0.00  0.00    +0.114 C 
BRANCH  11  13
ATOM     12  O   UNL     1      26.916 -21.469 -17.403  0.00  0.00    -0.250 OA
ATOM     13  C   UNL     1      26.777 -21.935 -16.279  0.00  0.00    +0.314 C 
BRANCH  13  14
ATOM     14  O   UNL     1      25.570 -22.075 -15.677  0.00  0.00    -0.480 OA
ATOM     15  H   UNL     1      25.462 -21.818 -14.782  0.00  0.00    +0.295 HD
ENDBRANCH  13  14
ENDBRANCH  11  13
ENDBRANCH  10  11
ENDBRANCH   1  10
TORSDOF 5
ENDMDL
MODEL 7
REMARK VINA RESULT:      -6.4      4.327      5.773
REMARK  Name = 75451
REMARK  5 active torsions:
REMARK  status: ('A' for Active; 'I' for Inactive)
REMARK    1  A    between atoms: C_1  and  C_10
REMARK    2  A    between atoms: C_6  and  N_7
REMARK    3  A    between atoms: C_10  and  C_11
REMARK    4  A    between atoms: C_11  and  C_13
REMARK    5  A    between atoms: C_13  and  O_14
REMARK                            x       y       z     vdW  Elec       q    Type
REMARK                         _______ _______ _______ _____ _____    ______ ____
ROOT
ATOM      1  C   UNL     1      34.959 -17.250 -21.681  0.00  0.00    -0.022 C 
ATOM      2  C   UNL     1      35.032 -17.036 -23.058  0.00  0.00    -0.003 C 
ATOM      3  C   UNL     1      34.641 -16.194 -20.828  0.00  0.00    -0.003 C 
ATOM      4  C   UNL     1      34.787 -15.767 -23.580  0.00  0.00    +0.014 C 
ATOM      5  C   UNL     1      34.396 -14.924 -21.349  0.00  0.00    +0.014 C 
ATOM      6  C   UNL     1      34.469 -14.710 -22.726  0.00  0.00    +0.042 C 
ENDROOT
BRANCH   6   7
ATOM      7  N   UNL     1      34.221 -13.426 -23.255  0.00  0.00    -0.357 N 
ATOM      8  H   UNL     1      33.308 -13.058 -23.247  0.00  0.00    +0.142 HD
ATOM      9  H   UNL     1      34.961 -12.898 -23.633  0.00  0.00    +0.142 HD
ENDBRANCH   6   7
BRANCH   1  10
ATOM     10  C   UNL     1      35.219 -18.608 -21.123  0.00  0.00    +0.038 C 
BRANCH  10  11
ATOM     11  C   UNL     1      34.064 -19.594 -21.333  0.00  0.00    +0.114 C 
BRANCH  11  13
ATOM     12  O   UNL     1      34.814 -21.157 -19.651  0.00  0.00    -0.250 OA
ATOM     13  C   UNL     1      33.897 -20.517 -20.151  0.00  0.00    +0.314 C 
BRANCH  13  14
ATOM     14  O   UNL     1      32.616 -20.588 -19.712  0.00  0.00    -0.480 OA
ATOM     15  H   UNL     1      32.079 -21.317 -19.953  0.00  0.00    +0.295 HD
ENDBRANCH  13  14
ENDBRANCH  11  13
ENDBRANCH  10  11
ENDBRANCH   1  10
TORSDOF 5
ENDMDL
MODEL 8
REMARK VINA RESULT:      -6.3      3.437      4.793
REMARK  Name = 75451
REMARK  5 active torsions:
REMARK  status: ('A' for Active; 'I' for Inactive)
REMARK    1  A    between atoms: C_1  and  C_10
REMARK    2  A    between atoms: C_6  and  N_7
REMARK    3  A    between atoms: C_10  and  C_11
REMARK    4  A    between atoms: C_11  and  C_13
REMARK    5  A    between atoms: C_13  and  O_14
REMARK                            x       y       z     vdW  Elec       q    Type
REMARK                         _______ _______ _______ _____ _____    ______ ____
ROOT
ATOM      1  C   UNL     1      34.419 -14.983 -23.006  0.00  0.00    -0.022 C 
ATOM      2  C   UNL     1      34.299 -14.931 -21.617  0.00  0.00    -0.003 C 
ATOM      3  C   UNL     1      34.935 -16.124 -23.619  0.00  0.00    -0.003 C 
ATOM      4  C   UNL     1      34.695 -16.020 -20.842  0.00  0.00    +0.014 C 
ATOM      5  C   UNL     1      35.331 -17.214 -22.845  0.00  0.00    +0.014 C 
ATOM      6  C   UNL     1      35.211 -17.162 -21.456  0.00  0.00    +0.042 C 
ENDROOT
BRANCH   6   7
ATOM      7  N   UNL     1      35.612 -18.264 -20.671  0.00  0.00    -0.357 N 
ATOM      8  H   UNL     1      35.405 -18.284 -19.709  0.00  0.00    +0.142 HD
ATOM      9  H   UNL     1      36.099 -19.013 -21.086  0.00  0.00    +0.142 HD
ENDBRANCH   6   7
BRANCH   1  10
ATOM     10  C   UNL     1      33.994 -13.818 -23.836  0.00  0.00    +0.038 C 
BRANCH  10  11
ATOM     11  C   UNL     1      32.789 -14.109 -24.737  0.00  0.00    +0.114 C 
BRANCH  11  13
ATOM     12  O   UNL     1      33.437 -15.282 -26.746  0.00  0.00    -0.250 OA
ATOM     13  C   UNL     1      33.190 -14.220 -26.187  0.00  0.00    +0.314 C 
BRANCH  13  14
ATOM     14  O   UNL     1      33.278 -13.017 -26.805  0.00  0.00    -0.480 OA
ATOM     15  H   UNL     1      33.430 -12.976 -27.729  0.00  0.00    +0.295 HD
ENDBRANCH  13  14
ENDBRANCH  11  13
ENDBRANCH  10  11
ENDBRANCH   1  10
TORSDOF 5
ENDMDL
MODEL 9
REMARK VINA RESULT:      -6.2      2.726      3.881
REMARK  Name = 75451
REMARK  5 active torsions:
REMARK  status: ('A' for Active; 'I' for Inactive)
REMARK    1  A    between atoms: C_1  and  C_10
REMARK    2  A    between atoms: C_6  and  N_7
REMARK    3  A    between atoms: C_10  and  C_11
REMARK    4  A    between atoms: C_11  and  C_13
REMARK    5  A    between atoms: C_13  and  O_14
REMARK                            x       y       z     vdW  Elec       q    Type
REMARK                         _______ _______ _______ _____ _____    ______ ____
ROOT
ATOM      1  C   UNL     1      34.782 -17.383 -23.962  0.00  0.00    -0.022 C 
ATOM      2  C   UNL     1      34.731 -18.777 -23.977  0.00  0.00    -0.003 C 
ATOM      3  C   UNL     1      35.074 -16.709 -22.777  0.00  0.00    -0.003 C 
ATOM      4  C   UNL     1      34.972 -19.497 -22.808  0.00  0.00    +0.014 C 
ATOM      5  C   UNL     1      35.315 -17.428 -21.606  0.00  0.00    +0.014 C 
ATOM      6  C   UNL     1      35.264 -18.822 -21.621  0.00  0.00    +0.042 C 
ENDROOT
BRANCH   6   7
ATOM      7  N   UNL     1      35.509 -19.549 -20.438  0.00  0.00    -0.357 N 
ATOM      8  H   UNL     1      35.929 -19.107 -19.665  0.00  0.00    +0.142 HD
ATOM      9  H   UNL     1      35.260 -20.501 -20.384  0.00  0.00    +0.142 HD
ENDBRANCH   6   7
BRANCH   1  10
ATOM     10  C   UNL     1      34.526 -16.614 -25.214  0.00  0.00    +0.038 C 
BRANCH  10  11
ATOM     11  C   UNL     1      33.689 -15.348 -25.000  0.00  0.00    +0.114 C 
BRANCH  11  13
ATOM     12  O   UNL     1      32.941 -13.807 -26.703  0.00  0.00    -0.250 OA
ATOM     13  C   UNL     1      32.953 -14.947 -26.255  0.00  0.00    +0.314 C 
BRANCH  13  14
ATOM     14  O   UNL     1      32.281 -15.977 -26.826  0.00  0.00    -0.480 OA
ATOM     15  H   UNL     1      31.425 -16.203 -26.519  0.00  0.00    +0.295 HD
ENDBRANCH  13  14
ENDBRANCH  11  13
ENDBRANCH  10  11
ENDBRANCH   1  10
TORSDOF 5
ENDMDL
