MODEL 1
REMARK VINA RESULT:      -5.3      0.000      0.000
REMARK  Name = 5311217
REMARK  11 active torsions:
REMARK  status: ('A' for Active; 'I' for Inactive)
REMARK    1  A    between atoms: C_2  and  C_10
REMARK    2  A    between atoms: C_3  and  C_26
REMARK    3  A    between atoms: C_4  and  C_31
REMARK    4  A    between atoms: C_11  and  C_16
REMARK    5  A    between atoms: C_17  and  C_19
REMARK    6  A    between atoms: C_19  and  O_20
REMARK    7  A    between atoms: O_20  and  C_21
REMARK    8  A    between atoms: C_26  and  O_27
REMARK    9  A    between atoms: O_27  and  C_28
REMARK   10  A    between atoms: C_31  and  O_32
REMARK   11  A    between atoms: O_32  and  C_33
REMARK                            x       y       z     vdW  Elec       q    Type
REMARK                         _______ _______ _______ _____ _____    ______ ____
ROOT
ATOM      1  N   UNL     1      34.116 -11.204 -24.302  0.00  0.00    -0.334 N 
ATOM      2  C   UNL     1      32.624  -8.932 -23.510  0.00  0.00    +0.011 C 
ATOM      3  C   UNL     1      34.033  -8.848 -24.102  0.00  0.00    +0.071 C 
ATOM      4  C   UNL     1      32.174 -10.371 -23.233  0.00  0.00    +0.085 C 
ATOM      5  C   UNL     1      34.696  -9.960 -24.491  0.00  0.00    +0.098 C 
ATOM      6  C   UNL     1      32.914 -11.426 -23.646  0.00  0.00    +0.028 C 
ATOM      7  C   UNL     1      36.059  -9.987 -25.130  0.00  0.00    +0.026 C 
ATOM      8  C   UNL     1      32.549 -12.875 -23.466  0.00  0.00    +0.047 C 
ATOM      9  H   UNL     1      34.592 -11.988 -24.659  0.00  0.00    +0.147 HD
ENDROOT
BRANCH   2  10
ATOM     10  C   UNL     1      32.549  -8.120 -22.249  0.00  0.00    +0.000 C 
ATOM     11  C   UNL     1      32.007  -6.835 -22.240  0.00  0.00    +0.000 C 
ATOM     12  C   UNL     1      33.034  -8.680 -21.067  0.00  0.00    -0.000 C 
ATOM     13  C   UNL     1      31.953  -6.109 -21.050  0.00  0.00    +0.000 C 
ATOM     14  C   UNL     1      32.979  -7.954 -19.876  0.00  0.00    -0.000 C 
ATOM     15  C   UNL     1      32.439  -6.669 -19.869  0.00  0.00    +0.000 C 
BRANCH  11  16
ATOM     16  C   UNL     1      31.493  -6.222 -23.458  0.00  0.00    +0.007 C 
ATOM     17  C   UNL     1      31.914  -5.048 -23.975  0.00  0.00    +0.082 C 
BRANCH  17  19
ATOM     18  O   UNL     1      31.733  -4.758 -26.354  0.00  0.00    -0.245 OA
ATOM     19  C   UNL     1      31.318  -4.533 -25.229  0.00  0.00    +0.341 C 
BRANCH  19  20
ATOM     20  O   UNL     1      30.239  -3.777 -24.892  0.00  0.00    -0.453 OA
BRANCH  20  21
ATOM     21  C   UNL     1      30.430  -2.361 -24.980  0.00  0.00    +0.137 C 
ATOM     22  C   UNL     1      29.248  -1.786 -25.758  0.00  0.00    +0.044 C 
ATOM     23  C   UNL     1      31.741  -2.092 -25.716  0.00  0.00    +0.044 C 
ATOM     24  C   UNL     1      30.472  -1.786 -23.565  0.00  0.00    +0.044 C 
ENDBRANCH  20  21
ENDBRANCH  19  20
ENDBRANCH  17  19
ENDBRANCH  11  16
ENDBRANCH   2  10
BRANCH   3  26
ATOM     25  O   UNL     1      35.322  -7.032 -23.291  0.00  0.00    -0.245 OA
ATOM     26  C   UNL     1      34.639  -7.508 -24.178  0.00  0.00    +0.339 C 
BRANCH  26  27
ATOM     27  O   UNL     1      34.299  -6.952 -25.365  0.00  0.00    -0.446 OA
BRANCH  27  28
ATOM     28  C   UNL     1      35.236  -6.003 -25.883  0.00  0.00    +0.209 C 
ATOM     29  C   UNL     1      34.581  -5.218 -26.998  0.00  0.00    +0.051 C 
ENDBRANCH  27  28
ENDBRANCH  26  27
ENDBRANCH   3  26
BRANCH   4  31
ATOM     30  O   UNL     1      29.905  -9.945 -22.698  0.00  0.00    -0.245 OA
ATOM     31  C   UNL     1      30.939 -10.537 -22.450  0.00  0.00    +0.342 C 
BRANCH  31  32
ATOM     32  O   UNL     1      31.178 -11.429 -21.459  0.00  0.00    -0.445 OA
BRANCH  32  33
ATOM     33  C   UNL     1      30.536 -11.138 -20.213  0.00  0.00    +0.209 C 
ATOM     34  C   UNL     1      31.570 -11.159 -19.108  0.00  0.00    +0.051 C 
ENDBRANCH  32  33
ENDBRANCH  31  32
ENDBRANCH   4  31
TORSDOF 11
ENDMDL
MODEL 2
REMARK VINA RESULT:      -4.7      3.776      7.515
REMARK  Name = 5311217
REMARK  11 active torsions:
REMARK  status: ('A' for Active; 'I' for Inactive)
REMARK    1  A    between atoms: C_2  and  C_10
REMARK    2  A    between atoms: C_3  and  C_26
REMARK    3  A    between atoms: C_4  and  C_31
REMARK    4  A    between atoms: C_11  and  C_16
REMARK    5  A    between atoms: C_17  and  C_19
REMARK    6  A    between atoms: C_19  and  O_20
REMARK    7  A    between atoms: O_20  and  C_21
REMARK    8  A    between atoms: C_26  and  O_27
REMARK    9  A    between atoms: O_27  and  C_28
REMARK   10  A    between atoms: C_31  and  O_32
REMARK   11  A    between atoms: O_32  and  C_33
REMARK                            x       y       z     vdW  Elec       q    Type
REMARK                         _______ _______ _______ _____ _____    ______ ____
ROOT
ATOM      1  N   UNL     1      33.422 -16.295 -20.812  0.00  0.00    -0.334 N 
ATOM      2  C   UNL     1      34.096 -14.590 -22.970  0.00  0.00    +0.011 C 
ATOM      3  C   UNL     1      32.987 -14.274 -21.962  0.00  0.00    +0.071 C 
ATOM      4  C   UNL     1      34.684 -15.995 -22.793  0.00  0.00    +0.085 C 
ATOM      5  C   UNL     1      32.720 -15.106 -20.931  0.00  0.00    +0.098 C 
ATOM      6  C   UNL     1      34.343 -16.767 -21.735  0.00  0.00    +0.028 C 
ATOM      7  C   UNL     1      31.692 -14.866 -19.859  0.00  0.00    +0.026 C 
ATOM      8  C   UNL     1      34.888 -18.139 -21.441  0.00  0.00    +0.047 C 
ATOM      9  H   UNL     1      33.254 -16.845 -20.013  0.00  0.00    +0.147 HD
ENDROOT
BRANCH   2  10
ATOM     10  C   UNL     1      33.578 -14.425 -24.370  0.00  0.00    +0.000 C 
ATOM     11  C   UNL     1      33.610 -13.190 -25.018  0.00  0.00    +0.000 C 
ATOM     12  C   UNL     1      33.057 -15.542 -25.024  0.00  0.00    -0.000 C 
ATOM     13  C   UNL     1      33.121 -13.072 -26.319  0.00  0.00    +0.000 C 
ATOM     14  C   UNL     1      32.568 -15.423 -26.325  0.00  0.00    -0.000 C 
ATOM     15  C   UNL     1      32.600 -14.189 -26.972  0.00  0.00    +0.000 C 
BRANCH  11  16
ATOM     16  C   UNL     1      34.147 -12.005 -24.362  0.00  0.00    +0.007 C 
ATOM     17  C   UNL     1      33.690 -10.747 -24.535  0.00  0.00    +0.082 C 
BRANCH  17  19
ATOM     18  O   UNL     1      35.429  -9.171 -24.013  0.00  0.00    -0.245 OA
ATOM     19  C   UNL     1      34.315  -9.622 -23.801  0.00  0.00    +0.341 C 
BRANCH  19  20
ATOM     20  O   UNL     1      33.424  -9.196 -22.866  0.00  0.00    -0.453 OA
BRANCH  20  21
ATOM     21  C   UNL     1      32.835  -7.915 -23.116  0.00  0.00    +0.137 C 
ATOM     22  C   UNL     1      32.673  -7.213 -21.770  0.00  0.00    +0.044 C 
ATOM     23  C   UNL     1      31.475  -8.128 -23.778  0.00  0.00    +0.044 C 
ATOM     24  C   UNL     1      33.767  -7.120 -24.029  0.00  0.00    +0.044 C 
ENDBRANCH  20  21
ENDBRANCH  19  20
ENDBRANCH  17  19
ENDBRANCH  11  16
ENDBRANCH   2  10
BRANCH   3  26
ATOM     25  O   UNL     1      31.389 -12.944 -23.100  0.00  0.00    -0.245 OA
ATOM     26  C   UNL     1      32.205 -13.050 -22.204  0.00  0.00    +0.339 C 
BRANCH  26  27
ATOM     27  O   UNL     1      32.560 -12.126 -21.279  0.00  0.00    -0.446 OA
BRANCH  27  28
ATOM     28  C   UNL     1      31.504 -11.264 -20.845  0.00  0.00    +0.209 C 
ATOM     29  C   UNL     1      31.615 -11.060 -19.350  0.00  0.00    +0.051 C 
ENDBRANCH  27  28
ENDBRANCH  26  27
ENDBRANCH   3  26
BRANCH   4  31
ATOM     30  O   UNL     1      36.241 -15.730 -24.560  0.00  0.00    -0.245 OA
ATOM     31  C   UNL     1      35.580 -16.473 -23.857  0.00  0.00    +0.342 C 
BRANCH  31  32
ATOM     32  O   UNL     1      35.522 -17.826 -23.890  0.00  0.00    -0.445 OA
BRANCH  32  33
ATOM     33  C   UNL     1      34.771 -18.375 -24.979  0.00  0.00    +0.209 C 
ATOM     34  C   UNL     1      34.646 -19.871 -24.788  0.00  0.00    +0.051 C 
ENDBRANCH  32  33
ENDBRANCH  31  32
ENDBRANCH   4  31
TORSDOF 11
ENDMDL
MODEL 3
REMARK VINA RESULT:      -3.8     11.989     16.930
REMARK  Name = 5311217
REMARK  11 active torsions:
REMARK  status: ('A' for Active; 'I' for Inactive)
REMARK    1  A    between atoms: C_2  and  C_10
REMARK    2  A    between atoms: C_3  and  C_26
REMARK    3  A    between atoms: C_4  and  C_31
REMARK    4  A    between atoms: C_11  and  C_16
REMARK    5  A    between atoms: C_17  and  C_19
REMARK    6  A    between atoms: C_19  and  O_20
REMARK    7  A    between atoms: O_20  and  C_21
REMARK    8  A    between atoms: C_26  and  O_27
REMARK    9  A    between atoms: O_27  and  C_28
REMARK   10  A    between atoms: C_31  and  O_32
REMARK   11  A    between atoms: O_32  and  C_33
REMARK                            x       y       z     vdW  Elec       q    Type
REMARK                         _______ _______ _______ _____ _____    ______ ____
ROOT
ATOM      1  N   UNL     1      33.336 -23.220 -13.700  0.00  0.00    -0.334 N 
ATOM      2  C   UNL     1      33.566 -22.679 -16.469  0.00  0.00    +0.011 C 
ATOM      3  C   UNL     1      32.231 -22.962 -15.775  0.00  0.00    +0.071 C 
ATOM      4  C   UNL     1      34.776 -22.886 -15.549  0.00  0.00    +0.085 C 
ATOM      5  C   UNL     1      32.168 -23.189 -14.444  0.00  0.00    +0.098 C 
ATOM      6  C   UNL     1      34.615 -23.127 -14.227  0.00  0.00    +0.028 C 
ATOM      7  C   UNL     1      30.907 -23.425 -13.657  0.00  0.00    +0.026 C 
ATOM      8  C   UNL     1      35.727 -23.304 -13.229  0.00  0.00    +0.047 C 
ATOM      9  H   UNL     1      33.252 -23.318 -12.724  0.00  0.00    +0.147 HD
ENDROOT
BRANCH   2  10
ATOM     10  C   UNL     1      33.701 -23.539 -17.693  0.00  0.00    +0.000 C 
ATOM     11  C   UNL     1      33.790 -22.982 -18.969  0.00  0.00    +0.000 C 
ATOM     12  C   UNL     1      33.737 -24.924 -17.533  0.00  0.00    -0.000 C 
ATOM     13  C   UNL     1      33.915 -23.811 -20.084  0.00  0.00    +0.000 C 
ATOM     14  C   UNL     1      33.861 -25.753 -18.648  0.00  0.00    -0.000 C 
ATOM     15  C   UNL     1      33.949 -25.196 -19.923  0.00  0.00    +0.000 C 
BRANCH  11  16
ATOM     16  C   UNL     1      33.755 -21.539 -19.169  0.00  0.00    +0.007 C 
ATOM     17  C   UNL     1      33.517 -20.924 -20.347  0.00  0.00    +0.082 C 
BRANCH  17  19
ATOM     18  O   UNL     1      32.494 -18.754 -20.492  0.00  0.00    -0.245 OA
ATOM     19  C   UNL     1      33.497 -19.445 -20.421  0.00  0.00    +0.341 C 
BRANCH  19  20
ATOM     20  O   UNL     1      34.787 -19.015 -20.394  0.00  0.00    -0.453 OA
BRANCH  20  21
ATOM     21  C   UNL     1      35.268 -18.437 -21.613  0.00  0.00    +0.137 C 
ATOM     22  C   UNL     1      36.768 -18.710 -21.690  0.00  0.00    +0.044 C 
ATOM     23  C   UNL     1      34.997 -16.934 -21.578  0.00  0.00    +0.044 C 
ATOM     24  C   UNL     1      34.541 -19.095 -22.784  0.00  0.00    +0.044 C 
ENDBRANCH  20  21
ENDBRANCH  19  20
ENDBRANCH  17  19
ENDBRANCH  11  16
ENDBRANCH   2  10
BRANCH   3  26
ATOM     25  O   UNL     1      30.726 -22.133 -17.408  0.00  0.00    -0.245 OA
ATOM     26  C   UNL     1      31.039 -23.021 -16.638  0.00  0.00    +0.339 C 
BRANCH  26  27
ATOM     27  O   UNL     1      30.404 -24.196 -16.408  0.00  0.00    -0.446 OA
BRANCH  27  28
ATOM     28  C   UNL     1      29.024 -24.225 -16.787  0.00  0.00    +0.209 C 
ATOM     29  C   UNL     1      28.217 -23.442 -15.774  0.00  0.00    +0.051 C 
ENDBRANCH  27  28
ENDBRANCH  26  27
ENDBRANCH   3  26
BRANCH   4  31
ATOM     30  O   UNL     1      36.496 -21.953 -16.886  0.00  0.00    -0.245 OA
ATOM     31  C   UNL     1      36.101 -22.870 -16.189  0.00  0.00    +0.342 C 
BRANCH  31  32
ATOM     32  O   UNL     1      36.748 -24.014 -15.861  0.00  0.00    -0.445 OA
BRANCH  32  33
ATOM     33  C   UNL     1      38.121 -23.850 -15.493  0.00  0.00    +0.209 C 
ATOM     34  C   UNL     1      38.591 -25.096 -14.774  0.00  0.00    +0.051 C 
ENDBRANCH  32  33
ENDBRANCH  31  32
ENDBRANCH   4  31
TORSDOF 11
ENDMDL
MODEL 4
REMARK VINA RESULT:      -3.7      3.875      8.708
REMARK  Name = 5311217
REMARK  11 active torsions:
REMARK  status: ('A' for Active; 'I' for Inactive)
REMARK    1  A    between atoms: C_2  and  C_10
REMARK    2  A    between atoms: C_3  and  C_26
REMARK    3  A    between atoms: C_4  and  C_31
REMARK    4  A    between atoms: C_11  and  C_16
REMARK    5  A    between atoms: C_17  and  C_19
REMARK    6  A    between atoms: C_19  and  O_20
REMARK    7  A    between atoms: O_20  and  C_21
REMARK    8  A    between atoms: C_26  and  O_27
REMARK    9  A    between atoms: O_27  and  C_28
REMARK   10  A    between atoms: C_31  and  O_32
REMARK   11  A    between atoms: O_32  and  C_33
REMARK                            x       y       z     vdW  Elec       q    Type
REMARK                         _______ _______ _______ _____ _____    ______ ____
ROOT
ATOM      1  N   UNL     1      33.300  -8.586 -23.166  0.00  0.00    -0.334 N 
ATOM      2  C   UNL     1      33.958 -11.285 -23.711  0.00  0.00    +0.011 C 
ATOM      3  C   UNL     1      34.642 -10.098 -24.395  0.00  0.00    +0.071 C 
ATOM      4  C   UNL     1      32.771 -10.870 -22.833  0.00  0.00    +0.085 C 
ATOM      5  C   UNL     1      34.312  -8.824 -24.082  0.00  0.00    +0.098 C 
ATOM      6  C   UNL     1      32.507  -9.566 -22.589  0.00  0.00    +0.028 C 
ATOM      7  C   UNL     1      34.955  -7.590 -24.653  0.00  0.00    +0.026 C 
ATOM      8  C   UNL     1      31.398  -9.048 -21.712  0.00  0.00    +0.047 C 
ATOM      9  H   UNL     1      33.132  -7.652 -22.906  0.00  0.00    +0.147 HD
ENDROOT
BRANCH   2  10
ATOM     10  C   UNL     1      33.509 -12.281 -24.742  0.00  0.00    +0.000 C 
ATOM     11  C   UNL     1      33.714 -13.650 -24.571  0.00  0.00    +0.000 C 
ATOM     12  C   UNL     1      32.872 -11.810 -25.890  0.00  0.00    -0.000 C 
ATOM     13  C   UNL     1      33.283 -14.548 -25.548  0.00  0.00    +0.000 C 
ATOM     14  C   UNL     1      32.441 -12.707 -26.868  0.00  0.00    -0.000 C 
ATOM     15  C   UNL     1      32.648 -14.075 -26.697  0.00  0.00    +0.000 C 
BRANCH  11  16
ATOM     16  C   UNL     1      34.376 -14.174 -23.383  0.00  0.00    +0.007 C 
ATOM     17  C   UNL     1      34.156 -15.391 -22.844  0.00  0.00    +0.082 C 
BRANCH  17  19
ATOM     18  O   UNL     1      34.770 -15.339 -20.520  0.00  0.00    -0.245 OA
ATOM     19  C   UNL     1      34.901 -15.815 -21.636  0.00  0.00    +0.341 C 
BRANCH  19  20
ATOM     20  O   UNL     1      35.743 -16.818 -22.004  0.00  0.00    -0.453 OA
BRANCH  20  21
ATOM     21  C   UNL     1      35.224 -18.144 -21.847  0.00  0.00    +0.137 C 
ATOM     22  C   UNL     1      36.236 -18.939 -21.025  0.00  0.00    +0.044 C 
ATOM     23  C   UNL     1      35.049 -18.764 -23.231  0.00  0.00    +0.044 C 
ATOM     24  C   UNL     1      33.886 -18.059 -21.114  0.00  0.00    +0.044 C 
ENDBRANCH  20  21
ENDBRANCH  19  20
ENDBRANCH  17  19
ENDBRANCH  11  16
ENDBRANCH   2  10
BRANCH   3  26
ATOM     25  O   UNL     1      36.832 -10.429 -25.237  0.00  0.00    -0.245 OA
ATOM     26  C   UNL     1      35.632 -10.417 -25.437  0.00  0.00    +0.339 C 
BRANCH  26  27
ATOM     27  O   UNL     1      34.971 -10.677 -26.590  0.00  0.00    -0.446 OA
BRANCH  27  28
ATOM     28  C   UNL     1      35.803 -11.001 -27.708  0.00  0.00    +0.209 C 
ATOM     29  C   UNL     1      35.702 -12.485 -27.986  0.00  0.00    +0.051 C 
ENDBRANCH  27  28
ENDBRANCH  26  27
ENDBRANCH   3  26
BRANCH   4  31
ATOM     30  O   UNL     1      30.795 -12.175 -22.758  0.00  0.00    -0.245 OA
ATOM     31  C   UNL     1      31.913 -11.954 -22.331  0.00  0.00    +0.342 C 
BRANCH  31  32
ATOM     32  O   UNL     1      32.584 -12.613 -21.356  0.00  0.00    -0.445 OA
BRANCH  32  33
ATOM     33  C   UNL     1      31.843 -12.831 -20.150  0.00  0.00    +0.209 C 
ATOM     34  C   UNL     1      31.642 -11.505 -19.449  0.00  0.00    +0.051 C 
ENDBRANCH  32  33
ENDBRANCH  31  32
ENDBRANCH   4  31
TORSDOF 11
ENDMDL
MODEL 5
REMARK VINA RESULT:      -3.3     14.574     19.945
REMARK  Name = 5311217
REMARK  11 active torsions:
REMARK  status: ('A' for Active; 'I' for Inactive)
REMARK    1  A    between atoms: C_2  and  C_10
REMARK    2  A    between atoms: C_3  and  C_26
REMARK    3  A    between atoms: C_4  and  C_31
REMARK    4  A    between atoms: C_11  and  C_16
REMARK    5  A    between atoms: C_17  and  C_19
REMARK    6  A    between atoms: C_19  and  O_20
REMARK    7  A    between atoms: O_20  and  C_21
REMARK    8  A    between atoms: C_26  and  O_27
REMARK    9  A    between atoms: O_27  and  C_28
REMARK   10  A    between atoms: C_31  and  O_32
REMARK   11  A    between atoms: O_32  and  C_33
REMARK                            x       y       z     vdW  Elec       q    Type
REMARK                         _______ _______ _______ _____ _____    ______ ____
ROOT
ATOM      1  N   UNL     1      31.542 -23.116 -14.703  0.00  0.00    -0.334 N 
ATOM      2  C   UNL     1      34.131 -23.806 -15.618  0.00  0.00    +0.011 C 
ATOM      3  C   UNL     1      33.795 -23.570 -14.143  0.00  0.00    +0.071 C 
ATOM      4  C   UNL     1      32.970 -23.466 -16.559  0.00  0.00    +0.085 C 
ATOM      5  C   UNL     1      32.537 -23.269 -13.751  0.00  0.00    +0.098 C 
ATOM      6  C   UNL     1      31.745 -23.158 -16.074  0.00  0.00    +0.028 C 
ATOM      7  C   UNL     1      32.090 -23.069 -12.328  0.00  0.00    +0.026 C 
ATOM      8  C   UNL     1      30.528 -22.849 -16.904  0.00  0.00    +0.047 C 
ATOM      9  H   UNL     1      30.624 -22.967 -14.382  0.00  0.00    +0.147 HD
ENDROOT
BRANCH   2  10
ATOM     10  C   UNL     1      35.349 -23.014 -15.999  0.00  0.00    +0.000 C 
ATOM     11  C   UNL     1      36.627 -23.568 -15.938  0.00  0.00    +0.000 C 
ATOM     12  C   UNL     1      35.179 -21.696 -16.425  0.00  0.00    -0.000 C 
ATOM     13  C   UNL     1      37.737 -22.803 -16.300  0.00  0.00    +0.000 C 
ATOM     14  C   UNL     1      36.289 -20.932 -16.787  0.00  0.00    -0.000 C 
ATOM     15  C   UNL     1      37.567 -21.486 -16.724  0.00  0.00    +0.000 C 
BRANCH  11  16
ATOM     16  C   UNL     1      36.837 -24.941 -15.498  0.00  0.00    +0.007 C 
ATOM     17  C   UNL     1      37.738 -25.331 -14.571  0.00  0.00    +0.082 C 
BRANCH  17  19
ATOM     18  O   UNL     1      36.980 -27.419 -13.654  0.00  0.00    -0.245 OA
ATOM     19  C   UNL     1      37.850 -26.760 -14.199  0.00  0.00    +0.341 C 
BRANCH  19  20
ATOM     20  O   UNL     1      39.085 -27.187 -14.577  0.00  0.00    -0.453 OA
BRANCH  20  21
ATOM     21  C   UNL     1      40.168 -26.313 -14.239  0.00  0.00    +0.137 C 
ATOM     22  C   UNL     1      41.338 -27.185 -13.786  0.00  0.00    +0.044 C 
ATOM     23  C   UNL     1      39.714 -25.394 -13.107  0.00  0.00    +0.044 C 
ATOM     24  C   UNL     1      40.547 -25.505 -15.478  0.00  0.00    +0.044 C 
ENDBRANCH  20  21
ENDBRANCH  19  20
ENDBRANCH  17  19
ENDBRANCH  11  16
ENDBRANCH   2  10
BRANCH   3  26
ATOM     25  O   UNL     1      35.763 -22.772 -13.090  0.00  0.00    -0.245 OA
ATOM     26  C   UNL     1      34.917 -23.640 -13.191  0.00  0.00    +0.339 C 
BRANCH  26  27
ATOM     27  O   UNL     1      34.815 -24.799 -12.496  0.00  0.00    -0.446 OA
BRANCH  27  28
ATOM     28  C   UNL     1      35.854 -25.026 -11.538  0.00  0.00    +0.209 C 
ATOM     29  C   UNL     1      35.449 -24.414 -10.215  0.00  0.00    +0.051 C 
ENDBRANCH  27  28
ENDBRANCH  26  27
ENDBRANCH   3  26
BRANCH   4  31
ATOM     30  O   UNL     1      33.788 -24.364 -18.594  0.00  0.00    -0.245 OA
ATOM     31  C   UNL     1      33.276 -23.435 -17.998  0.00  0.00    +0.342 C 
BRANCH  31  32
ATOM     32  O   UNL     1      32.892 -22.232 -18.490  0.00  0.00    -0.445 OA
BRANCH  32  33
ATOM     33  C   UNL     1      33.700 -21.729 -19.560  0.00  0.00    +0.209 C 
ATOM     34  C   UNL     1      33.038 -20.497 -20.140  0.00  0.00    +0.051 C 
ENDBRANCH  32  33
ENDBRANCH  31  32
ENDBRANCH   4  31
TORSDOF 11
ENDMDL
MODEL 6
REMARK VINA RESULT:      -3.2      4.245      7.903
REMARK  Name = 5311217
REMARK  11 active torsions:
REMARK  status: ('A' for Active; 'I' for Inactive)
REMARK    1  A    between atoms: C_2  and  C_10
REMARK    2  A    between atoms: C_3  and  C_26
REMARK    3  A    between atoms: C_4  and  C_31
REMARK    4  A    between atoms: C_11  and  C_16
REMARK    5  A    between atoms: C_17  and  C_19
REMARK    6  A    between atoms: C_19  and  O_20
REMARK    7  A    between atoms: O_20  and  C_21
REMARK    8  A    between atoms: C_26  and  O_27
REMARK    9  A    between atoms: O_27  and  C_28
REMARK   10  A    between atoms: C_31  and  O_32
REMARK   11  A    between atoms: O_32  and  C_33
REMARK                            x       y       z     vdW  Elec       q    Type
REMARK                         _______ _______ _______ _____ _____    ______ ____
ROOT
ATOM      1  N   UNL     1      34.052 -17.361 -25.463  0.00  0.00    -0.334 N 
ATOM      2  C   UNL     1      34.306 -15.328 -23.509  0.00  0.00    +0.011 C 
ATOM      3  C   UNL     1      34.838 -16.751 -23.317  0.00  0.00    +0.071 C 
ATOM      4  C   UNL     1      33.477 -15.166 -24.789  0.00  0.00    +0.085 C 
ATOM      5  C   UNL     1      34.717 -17.681 -24.291  0.00  0.00    +0.098 C 
ATOM      6  C   UNL     1      33.399 -16.162 -25.702  0.00  0.00    +0.028 C 
ATOM      7  C   UNL     1      35.249 -19.088 -24.226  0.00  0.00    +0.026 C 
ATOM      8  C   UNL     1      32.651 -16.096 -27.006  0.00  0.00    +0.047 C 
ATOM      9  H   UNL     1      34.042 -18.036 -26.180  0.00  0.00    +0.147 HD
ENDROOT
BRANCH   2  10
ATOM     10  C   UNL     1      33.491 -14.921 -22.316  0.00  0.00    +0.000 C 
ATOM     11  C   UNL     1      33.318 -13.579 -21.975  0.00  0.00    +0.000 C 
ATOM     12  C   UNL     1      32.898 -15.918 -21.541  0.00  0.00    -0.000 C 
ATOM     13  C   UNL     1      32.553 -13.235 -20.860  0.00  0.00    +0.000 C 
ATOM     14  C   UNL     1      32.134 -15.574 -20.426  0.00  0.00    -0.000 C 
ATOM     15  C   UNL     1      31.962 -14.233 -20.085  0.00  0.00    +0.000 C 
BRANCH  11  16
ATOM     16  C   UNL     1      33.924 -12.513 -22.763  0.00  0.00    +0.007 C 
ATOM     17  C   UNL     1      33.386 -11.291 -22.961  0.00  0.00    +0.082 C 
BRANCH  17  19
ATOM     18  O   UNL     1      35.280 -10.349 -24.102  0.00  0.00    -0.245 OA
ATOM     19  C   UNL     1      34.106 -10.286 -23.776  0.00  0.00    +0.341 C 
BRANCH  19  20
ATOM     20  O   UNL     1      33.222  -9.300 -24.087  0.00  0.00    -0.453 OA
BRANCH  20  21
ATOM     21  C   UNL     1      33.365  -8.088 -23.337  0.00  0.00    +0.137 C 
ATOM     22  C   UNL     1      32.470  -7.036 -23.990  0.00  0.00    +0.044 C 
ATOM     23  C   UNL     1      34.829  -7.655 -23.388  0.00  0.00    +0.044 C 
ATOM     24  C   UNL     1      32.924  -8.351 -21.899  0.00  0.00    +0.044 C 
ENDBRANCH  20  21
ENDBRANCH  19  20
ENDBRANCH  17  19
ENDBRANCH  11  16
ENDBRANCH   2  10
BRANCH   3  26
ATOM     25  O   UNL     1      35.660 -16.218 -21.159  0.00  0.00    -0.245 OA
ATOM     26  C   UNL     1      35.439 -17.060 -22.008  0.00  0.00    +0.339 C 
BRANCH  26  27
ATOM     27  O   UNL     1      35.678 -18.392 -21.952  0.00  0.00    -0.446 OA
BRANCH  27  28
ATOM     28  C   UNL     1      35.256 -19.034 -20.745  0.00  0.00    +0.209 C 
ATOM     29  C   UNL     1      33.828 -19.508 -20.910  0.00  0.00    +0.051 C 
ENDBRANCH  27  28
ENDBRANCH  26  27
ENDBRANCH   3  26
BRANCH   4  31
ATOM     30  O   UNL     1      31.582 -13.761 -24.561  0.00  0.00    -0.245 OA
ATOM     31  C   UNL     1      32.731 -13.906 -24.935  0.00  0.00    +0.342 C 
BRANCH  31  32
ATOM     32  O   UNL     1      33.539 -12.998 -25.535  0.00  0.00    -0.445 OA
BRANCH  32  33
ATOM     33  C   UNL     1      33.266 -12.765 -26.920  0.00  0.00    +0.209 C 
ATOM     34  C   UNL     1      34.536 -12.975 -27.716  0.00  0.00    +0.051 C 
ENDBRANCH  32  33
ENDBRANCH  31  32
ENDBRANCH   4  31
TORSDOF 11
ENDMDL
MODEL 7
REMARK VINA RESULT:      -3.1     12.105     17.004
REMARK  Name = 5311217
REMARK  11 active torsions:
REMARK  status: ('A' for Active; 'I' for Inactive)
REMARK    1  A    between atoms: C_2  and  C_10
REMARK    2  A    between atoms: C_3  and  C_26
REMARK    3  A    between atoms: C_4  and  C_31
REMARK    4  A    between atoms: C_11  and  C_16
REMARK    5  A    between atoms: C_17  and  C_19
REMARK    6  A    between atoms: C_19  and  O_20
REMARK    7  A    between atoms: O_20  and  C_21
REMARK    8  A    between atoms: C_26  and  O_27
REMARK    9  A    between atoms: O_27  and  C_28
REMARK   10  A    between atoms: C_31  and  O_32
REMARK   11  A    between atoms: O_32  and  C_33
REMARK                            x       y       z     vdW  Elec       q    Type
REMARK                         _______ _______ _______ _____ _____    ______ ____
ROOT
ATOM      1  N   UNL     1      33.247 -23.279 -13.723  0.00  0.00    -0.334 N 
ATOM      2  C   UNL     1      33.689 -22.719 -16.463  0.00  0.00    +0.011 C 
ATOM      3  C   UNL     1      32.294 -22.841 -15.844  0.00  0.00    +0.071 C 
ATOM      4  C   UNL     1      34.812 -23.097 -15.490  0.00  0.00    +0.085 C 
ATOM      5  C   UNL     1      32.133 -23.084 -14.523  0.00  0.00    +0.098 C 
ATOM      6  C   UNL     1      34.553 -23.340 -14.184  0.00  0.00    +0.028 C 
ATOM      7  C   UNL     1      30.813 -23.171 -13.806  0.00  0.00    +0.026 C 
ATOM      8  C   UNL     1      35.579 -23.678 -13.137  0.00  0.00    +0.047 C 
ATOM      9  H   UNL     1      33.100 -23.383 -12.755  0.00  0.00    +0.147 HD
ENDROOT
BRANCH   2  10
ATOM     10  C   UNL     1      33.777 -23.565 -17.700  0.00  0.00    +0.000 C 
ATOM     11  C   UNL     1      34.285 -23.057 -18.896  0.00  0.00    +0.000 C 
ATOM     12  C   UNL     1      33.338 -24.888 -17.635  0.00  0.00    -0.000 C 
ATOM     13  C   UNL     1      34.353 -23.872 -20.027  0.00  0.00    +0.000 C 
ATOM     14  C   UNL     1      33.406 -25.702 -18.766  0.00  0.00    -0.000 C 
ATOM     15  C   UNL     1      33.913 -25.194 -19.961  0.00  0.00    +0.000 C 
BRANCH  11  16
ATOM     16  C   UNL     1      34.751 -21.680 -18.997  0.00  0.00    +0.007 C 
ATOM     17  C   UNL     1      35.554 -21.201 -19.970  0.00  0.00    +0.082 C 
BRANCH  17  19
ATOM     18  O   UNL     1      36.999 -19.332 -19.525  0.00  0.00    -0.245 OA
ATOM     19  C   UNL     1      35.952 -19.775 -19.969  0.00  0.00    +0.341 C 
BRANCH  19  20
ATOM     20  O   UNL     1      34.945 -19.067 -20.549  0.00  0.00    -0.453 OA
BRANCH  20  21
ATOM     21  C   UNL     1      35.293 -18.381 -21.757  0.00  0.00    +0.137 C 
ATOM     22  C   UNL     1      34.963 -16.904 -21.557  0.00  0.00    +0.044 C 
ATOM     23  C   UNL     1      34.467 -18.966 -22.902  0.00  0.00    +0.044 C 
ATOM     24  C   UNL     1      36.787 -18.569 -22.011  0.00  0.00    +0.044 C 
ENDBRANCH  20  21
ENDBRANCH  19  20
ENDBRANCH  17  19
ENDBRANCH  11  16
ENDBRANCH   2  10
BRANCH   3  26
ATOM     25  O   UNL     1      31.111 -21.940 -17.690  0.00  0.00    -0.245 OA
ATOM     26  C   UNL     1      31.151 -22.731 -16.765  0.00  0.00    +0.339 C 
BRANCH  26  27
ATOM     27  O   UNL     1      30.213 -23.635 -16.393  0.00  0.00    -0.446 OA
BRANCH  27  28
ATOM     28  C   UNL     1      28.907 -23.413 -16.934  0.00  0.00    +0.209 C 
ATOM     29  C   UNL     1      28.102 -22.584 -15.957  0.00  0.00    +0.051 C 
ENDBRANCH  27  28
ENDBRANCH  26  27
ENDBRANCH   3  26
BRANCH   4  31
ATOM     30  O   UNL     1      36.765 -22.320 -16.584  0.00  0.00    -0.245 OA
ATOM     31  C   UNL     1      36.160 -23.238 -16.062  0.00  0.00    +0.342 C 
BRANCH  31  32
ATOM     32  O   UNL     1      36.562 -24.522 -15.898  0.00  0.00    -0.445 OA
BRANCH  32  33
ATOM     33  C   UNL     1      37.838 -24.682 -15.269  0.00  0.00    +0.209 C 
ATOM     34  C   UNL     1      37.960 -26.099 -14.753  0.00  0.00    +0.051 C 
ENDBRANCH  32  33
ENDBRANCH  31  32
ENDBRANCH   4  31
TORSDOF 11
ENDMDL
MODEL 8
REMARK VINA RESULT:      -3.1      3.613      8.688
REMARK  Name = 5311217
REMARK  11 active torsions:
REMARK  status: ('A' for Active; 'I' for Inactive)
REMARK    1  A    between atoms: C_2  and  C_10
REMARK    2  A    between atoms: C_3  and  C_26
REMARK    3  A    between atoms: C_4  and  C_31
REMARK    4  A    between atoms: C_11  and  C_16
REMARK    5  A    between atoms: C_17  and  C_19
REMARK    6  A    between atoms: C_19  and  O_20
REMARK    7  A    between atoms: O_20  and  C_21
REMARK    8  A    between atoms: C_26  and  O_27
REMARK    9  A    between atoms: O_27  and  C_28
REMARK   10  A    between atoms: C_31  and  O_32
REMARK   11  A    between atoms: O_32  and  C_33
REMARK                            x       y       z     vdW  Elec       q    Type
REMARK                         _______ _______ _______ _____ _____    ______ ____
ROOT
ATOM      1  N   UNL     1      31.866  -9.512 -21.781  0.00  0.00    -0.334 N 
ATOM      2  C   UNL     1      33.551 -11.367 -23.099  0.00  0.00    +0.011 C 
ATOM      3  C   UNL     1      33.676  -9.850 -23.266  0.00  0.00    +0.071 C 
ATOM      4  C   UNL     1      32.319 -11.781 -22.285  0.00  0.00    +0.085 C 
ATOM      5  C   UNL     1      32.865  -9.002 -22.594  0.00  0.00    +0.098 C 
ATOM      6  C   UNL     1      31.553 -10.857 -21.659  0.00  0.00    +0.028 C 
ATOM      7  C   UNL     1      32.936  -7.500 -22.646  0.00  0.00    +0.026 C 
ATOM      8  C   UNL     1      30.351 -11.153 -20.803  0.00  0.00    +0.047 C 
ATOM      9  H   UNL     1      31.338  -8.872 -21.252  0.00  0.00    +0.147 HD
ENDROOT
BRANCH   2  10
ATOM     10  C   UNL     1      33.521 -12.030 -24.446  0.00  0.00    +0.000 C 
ATOM     11  C   UNL     1      34.011 -13.323 -24.633  0.00  0.00    +0.000 C 
ATOM     12  C   UNL     1      32.986 -11.324 -25.524  0.00  0.00    -0.000 C 
ATOM     13  C   UNL     1      33.966 -13.909 -25.899  0.00  0.00    +0.000 C 
ATOM     14  C   UNL     1      32.941 -11.911 -26.789  0.00  0.00    -0.000 C 
ATOM     15  C   UNL     1      33.432 -13.202 -26.976  0.00  0.00    +0.000 C 
BRANCH  11  16
ATOM     16  C   UNL     1      34.576 -14.086 -23.528  0.00  0.00    +0.007 C 
ATOM     17  C   UNL     1      34.552 -15.431 -23.420  0.00  0.00    +0.082 C 
BRANCH  17  19
ATOM     18  O   UNL     1      35.142 -15.676 -21.103  0.00  0.00    -0.245 OA
ATOM     19  C   UNL     1      35.172 -16.093 -22.249  0.00  0.00    +0.341 C 
BRANCH  19  20
ATOM     20  O   UNL     1      35.766 -17.234 -22.689  0.00  0.00    -0.453 OA
BRANCH  20  21
ATOM     21  C   UNL     1      35.281 -18.446 -22.101  0.00  0.00    +0.137 C 
ATOM     22  C   UNL     1      34.989 -19.424 -23.238  0.00  0.00    +0.044 C 
ATOM     23  C   UNL     1      34.005 -18.131 -21.323  0.00  0.00    +0.044 C 
ATOM     24  C   UNL     1      36.361 -19.005 -21.176  0.00  0.00    +0.044 C 
ENDBRANCH  20  21
ENDBRANCH  19  20
ENDBRANCH  17  19
ENDBRANCH  11  16
ENDBRANCH   2  10
BRANCH   3  26
ATOM     25  O   UNL     1      35.783  -9.882 -24.350  0.00  0.00    -0.245 OA
ATOM     26  C   UNL     1      34.686  -9.373 -24.226  0.00  0.00    +0.339 C 
BRANCH  26  27
ATOM     27  O   UNL     1      34.169  -8.316 -24.899  0.00  0.00    -0.446 OA
BRANCH  27  28
ATOM     28  C   UNL     1      34.956  -7.122 -24.851  0.00  0.00    +0.209 C 
ATOM     29  C   UNL     1      34.312  -6.070 -25.729  0.00  0.00    +0.051 C 
ENDBRANCH  27  28
ENDBRANCH  26  27
ENDBRANCH   3  26
BRANCH   4  31
ATOM     30  O   UNL     1      31.421 -13.777 -23.193  0.00  0.00    -0.245 OA
ATOM     31  C   UNL     1      31.988 -13.214 -22.274  0.00  0.00    +0.342 C 
BRANCH  31  32
ATOM     32  O   UNL     1      32.419 -13.744 -21.104  0.00  0.00    -0.445 OA
BRANCH  32  33
ATOM     33  C   UNL     1      32.043 -15.108 -20.881  0.00  0.00    +0.209 C 
ATOM     34  C   UNL     1      32.230 -15.437 -19.416  0.00  0.00    +0.051 C 
ENDBRANCH  32  33
ENDBRANCH  31  32
ENDBRANCH   4  31
TORSDOF 11
ENDMDL
MODEL 9
REMARK VINA RESULT:      -2.8     14.386     18.848
REMARK  Name = 5311217
REMARK  11 active torsions:
REMARK  status: ('A' for Active; 'I' for Inactive)
REMARK    1  A    between atoms: C_2  and  C_10
REMARK    2  A    between atoms: C_3  and  C_26
REMARK    3  A    between atoms: C_4  and  C_31
REMARK    4  A    between atoms: C_11  and  C_16
REMARK    5  A    between atoms: C_17  and  C_19
REMARK    6  A    between atoms: C_19  and  O_20
REMARK    7  A    between atoms: O_20  and  C_21
REMARK    8  A    between atoms: C_26  and  O_27
REMARK    9  A    between atoms: O_27  and  C_28
REMARK   10  A    between atoms: C_31  and  O_32
REMARK   11  A    between atoms: O_32  and  C_33
REMARK                            x       y       z     vdW  Elec       q    Type
REMARK                         _______ _______ _______ _____ _____    ______ ____
ROOT
ATOM      1  N   UNL     1      33.888 -24.330 -12.294  0.00  0.00    -0.334 N 
ATOM      2  C   UNL     1      36.038 -23.551 -13.962  0.00  0.00    +0.011 C 
ATOM      3  C   UNL     1      34.781 -24.253 -14.483  0.00  0.00    +0.071 C 
ATOM      4  C   UNL     1      36.089 -23.469 -12.432  0.00  0.00    +0.085 C 
ATOM      5  C   UNL     1      33.767 -24.581 -13.651  0.00  0.00    +0.098 C 
ATOM      6  C   UNL     1      35.028 -23.838 -11.677  0.00  0.00    +0.028 C 
ATOM      7  C   UNL     1      32.470 -25.223 -14.065  0.00  0.00    +0.026 C 
ATOM      8  C   UNL     1      34.954 -23.760 -10.176  0.00  0.00    +0.047 C 
ATOM      9  H   UNL     1      33.107 -24.516 -11.725  0.00  0.00    +0.147 HD
ENDROOT
BRANCH   2  10
ATOM     10  C   UNL     1      37.265 -24.249 -14.478  0.00  0.00    +0.000 C 
ATOM     11  C   UNL     1      38.051 -23.690 -15.486  0.00  0.00    +0.000 C 
ATOM     12  C   UNL     1      37.612 -25.481 -13.926  0.00  0.00    -0.000 C 
ATOM     13  C   UNL     1      39.184 -24.365 -15.941  0.00  0.00    +0.000 C 
ATOM     14  C   UNL     1      38.745 -26.156 -14.381  0.00  0.00    -0.000 C 
ATOM     15  C   UNL     1      39.530 -25.598 -15.389  0.00  0.00    +0.000 C 
BRANCH  11  16
ATOM     16  C   UNL     1      37.715 -22.404 -16.084  0.00  0.00    +0.007 C 
ATOM     17  C   UNL     1      37.265 -22.227 -17.344  0.00  0.00    +0.082 C 
BRANCH  17  19
ATOM     18  O   UNL     1      37.667 -19.888 -17.725  0.00  0.00    -0.245 OA
ATOM     19  C   UNL     1      36.946 -20.867 -17.834  0.00  0.00    +0.341 C 
BRANCH  19  20
ATOM     20  O   UNL     1      35.720 -20.918 -18.420  0.00  0.00    -0.453 OA
BRANCH  20  21
ATOM     21  C   UNL     1      35.719 -20.845 -19.850  0.00  0.00    +0.137 C 
ATOM     22  C   UNL     1      34.336 -20.364 -20.285  0.00  0.00    +0.044 C 
ATOM     23  C   UNL     1      36.003 -22.239 -20.408  0.00  0.00    +0.044 C 
ATOM     24  C   UNL     1      36.795 -19.853 -20.289  0.00  0.00    +0.044 C 
ENDBRANCH  20  21
ENDBRANCH  19  20
ENDBRANCH  17  19
ENDBRANCH  11  16
ENDBRANCH   2  10
BRANCH   3  26
ATOM     25  O   UNL     1      35.029 -25.694 -16.348  0.00  0.00    -0.245 OA
ATOM     26  C   UNL     1      34.758 -24.589 -15.916  0.00  0.00    +0.339 C 
BRANCH  26  27
ATOM     27  O   UNL     1      34.395 -23.483 -16.609  0.00  0.00    -0.446 OA
BRANCH  27  28
ATOM     28  C   UNL     1      33.281 -23.656 -17.490  0.00  0.00    +0.209 C 
ATOM     29  C   UNL     1      32.120 -22.825 -16.986  0.00  0.00    +0.051 C 
ENDBRANCH  27  28
ENDBRANCH  26  27
ENDBRANCH   3  26
BRANCH   4  31
ATOM     30  O   UNL     1      37.819 -21.911 -11.988  0.00  0.00    -0.245 OA
ATOM     31  C   UNL     1      37.361 -23.029 -11.838  0.00  0.00    +0.342 C 
BRANCH  31  32
ATOM     32  O   UNL     1      37.883 -24.062 -11.133  0.00  0.00    -0.445 OA
BRANCH  32  33
ATOM     33  C   UNL     1      39.101 -24.601 -11.659  0.00  0.00    +0.209 C 
ATOM     34  C   UNL     1      39.993 -23.462 -12.101  0.00  0.00    +0.051 C 
ENDBRANCH  32  33
ENDBRANCH  31  32
ENDBRANCH   4  31
TORSDOF 11
ENDMDL
