MODEL 1
REMARK VINA RESULT:      -7.8      0.000      0.000
REMARK  Name = 130611
REMARK  5 active torsions:
REMARK  status: ('A' for Active; 'I' for Inactive)
REMARK    1  A    between atoms: C_6  and  C_19
REMARK    2  A    between atoms: C_7  and  O_13
REMARK    3  A    between atoms: C_8  and  O_15
REMARK    4  A    between atoms: C_9  and  O_17
REMARK    5  A    between atoms: C_19  and  O_20
REMARK                            x       y       z     vdW  Elec       q    Type
REMARK                         _______ _______ _______ _____ _____    ______ ____
ROOT
ATOM      1  O   UNL     1      33.282 -24.470 -13.291  0.00  0.00    -0.265 OA
ATOM      2  O   UNL     1      33.375 -23.195 -15.799  0.00  0.00    -0.265 OA
ATOM      3  N   UNL     1      35.625 -24.153 -13.352  0.00  0.00    -0.252 N 
ATOM      4  N   UNL     1      35.699 -23.150 -15.394  0.00  0.00    -0.281 N 
ATOM      5  C   UNL     1      36.541 -23.543 -14.293  0.00  0.00    +0.182 C 
ATOM      6  C   UNL     1      36.110 -24.807 -12.139  0.00  0.00    +0.136 C 
ATOM      7  C   UNL     1      37.627 -24.537 -14.696  0.00  0.00    +0.177 C 
ATOM      8  C   UNL     1      37.296 -25.738 -12.476  0.00  0.00    +0.160 C 
ATOM      9  C   UNL     1      38.317 -25.120 -13.449  0.00  0.00    +0.169 C 
ATOM     10  C   UNL     1      34.320 -24.087 -13.785  0.00  0.00    +0.304 C 
ATOM     11  C   UNL     1      34.370 -23.413 -15.141  0.00  0.00    +0.301 C 
ATOM     12  H   UNL     1      36.032 -22.740 -16.225  0.00  0.00    +0.151 HD
ENDROOT
BRANCH   7  13
ATOM     13  O   UNL     1      38.587 -23.874 -15.512  0.00  0.00    -0.379 OA
ATOM     14  H   UNL     1      38.443 -22.916 -15.469  0.00  0.00    +0.211 HD
ENDBRANCH   7  13
BRANCH   8  15
ATOM     15  O   UNL     1      36.758 -26.924 -13.069  0.00  0.00    -0.380 OA
ATOM     16  H   UNL     1      37.306 -27.184 -13.826  0.00  0.00    +0.211 HD
ENDBRANCH   8  15
BRANCH   9  17
ATOM     17  O   UNL     1      39.051 -24.091 -12.789  0.00  0.00    -0.379 OA
ATOM     18  H   UNL     1      38.457 -23.352 -12.585  0.00  0.00    +0.211 HD
ENDBRANCH   9  17
BRANCH   6  19
ATOM     19  C   UNL     1      36.441 -23.769 -11.068  0.00  0.00    +0.159 C 
BRANCH  19  20
ATOM     20  O   UNL     1      36.043 -24.281  -9.809  0.00  0.00    -0.380 OA
ATOM     21  H   UNL     1      36.030 -25.250  -9.845  0.00  0.00    +0.211 HD
ENDBRANCH  19  20
ENDBRANCH   6  19
TORSDOF 5
ENDMDL
MODEL 2
REMARK VINA RESULT:      -7.6      1.591      3.592
REMARK  Name = 130611
REMARK  5 active torsions:
REMARK  status: ('A' for Active; 'I' for Inactive)
REMARK    1  A    between atoms: C_6  and  C_19
REMARK    2  A    between atoms: C_7  and  O_13
REMARK    3  A    between atoms: C_8  and  O_15
REMARK    4  A    between atoms: C_9  and  O_17
REMARK    5  A    between atoms: C_19  and  O_20
REMARK                            x       y       z     vdW  Elec       q    Type
REMARK                         _______ _______ _______ _____ _____    ______ ____
ROOT
ATOM      1  O   UNL     1      37.915 -22.739 -16.231  0.00  0.00    -0.265 OA
ATOM      2  O   UNL     1      35.200 -22.652 -16.973  0.00  0.00    -0.265 OA
ATOM      3  N   UNL     1      37.113 -24.146 -14.507  0.00  0.00    -0.252 N 
ATOM      4  N   UNL     1      34.915 -24.048 -15.092  0.00  0.00    -0.281 N 
ATOM      5  C   UNL     1      35.810 -24.661 -14.144  0.00  0.00    +0.182 C 
ATOM      6  C   UNL     1      38.294 -24.431 -13.695  0.00  0.00    +0.136 C 
ATOM      7  C   UNL     1      35.484 -24.304 -12.696  0.00  0.00    +0.177 C 
ATOM      8  C   UNL     1      37.979 -24.199 -12.201  0.00  0.00    +0.160 C 
ATOM      9  C   UNL     1      36.615 -24.761 -11.756  0.00  0.00    +0.169 C 
ATOM     10  C   UNL     1      37.057 -23.341 -15.622  0.00  0.00    +0.304 C 
ATOM     11  C   UNL     1      35.595 -23.282 -16.015  0.00  0.00    +0.301 C 
ATOM     12  H   UNL     1      33.938 -24.163 -15.084  0.00  0.00    +0.151 HD
ENDROOT
BRANCH   7  13
ATOM     13  O   UNL     1      34.263 -24.935 -12.323  0.00  0.00    -0.379 OA
ATOM     14  H   UNL     1      34.096 -24.785 -11.380  0.00  0.00    +0.211 HD
ENDBRANCH   7  13
BRANCH   8  15
ATOM     15  O   UNL     1      37.989 -22.787 -11.972  0.00  0.00    -0.380 OA
ATOM     16  H   UNL     1      37.709 -22.606 -11.061  0.00  0.00    +0.211 HD
ENDBRANCH   8  15
BRANCH   9  17
ATOM     17  O   UNL     1      36.664 -26.186 -11.733  0.00  0.00    -0.379 OA
ATOM     18  H   UNL     1      37.474 -26.487 -12.172  0.00  0.00    +0.211 HD
ENDBRANCH   9  17
BRANCH   6  19
ATOM     19  C   UNL     1      38.821 -25.834 -13.992  0.00  0.00    +0.159 C 
BRANCH  19  20
ATOM     20  O   UNL     1      39.266 -25.870 -15.336  0.00  0.00    -0.380 OA
ATOM     21  H   UNL     1      40.161 -26.244 -15.369  0.00  0.00    +0.211 HD
ENDBRANCH  19  20
ENDBRANCH   6  19
TORSDOF 5
ENDMDL
MODEL 3
REMARK VINA RESULT:      -7.6      2.132      4.154
REMARK  Name = 130611
REMARK  5 active torsions:
REMARK  status: ('A' for Active; 'I' for Inactive)
REMARK    1  A    between atoms: C_6  and  C_19
REMARK    2  A    between atoms: C_7  and  O_13
REMARK    3  A    between atoms: C_8  and  O_15
REMARK    4  A    between atoms: C_9  and  O_17
REMARK    5  A    between atoms: C_19  and  O_20
REMARK                            x       y       z     vdW  Elec       q    Type
REMARK                         _______ _______ _______ _____ _____    ______ ____
ROOT
ATOM      1  O   UNL     1      37.405 -22.196 -11.553  0.00  0.00    -0.265 OA
ATOM      2  O   UNL     1      36.065 -23.944  -9.799  0.00  0.00    -0.265 OA
ATOM      3  N   UNL     1      37.054 -23.938 -13.114  0.00  0.00    -0.252 N 
ATOM      4  N   UNL     1      35.998 -25.360 -11.684  0.00  0.00    -0.281 N 
ATOM      5  C   UNL     1      36.408 -25.232 -13.060  0.00  0.00    +0.182 C 
ATOM      6  C   UNL     1      37.733 -23.480 -14.325  0.00  0.00    +0.136 C 
ATOM      7  C   UNL     1      37.376 -26.327 -13.500  0.00  0.00    +0.177 C 
ATOM      8  C   UNL     1      38.639 -24.601 -14.882  0.00  0.00    +0.160 C 
ATOM      9  C   UNL     1      37.982 -25.994 -14.876  0.00  0.00    +0.169 C 
ATOM     10  C   UNL     1      36.996 -23.281 -11.906  0.00  0.00    +0.304 C 
ATOM     11  C   UNL     1      36.286 -24.225 -10.957  0.00  0.00    +0.301 C 
ATOM     12  H   UNL     1      35.563 -26.160 -11.310  0.00  0.00    +0.151 HD
ENDROOT
BRANCH   7  13
ATOM     13  O   UNL     1      36.679 -27.567 -13.568  0.00  0.00    -0.379 OA
ATOM     14  H   UNL     1      35.725 -27.401 -13.620  0.00  0.00    +0.211 HD
ENDBRANCH   7  13
BRANCH   8  15
ATOM     15  O   UNL     1      39.816 -24.647 -14.070  0.00  0.00    -0.380 OA
ATOM     16  H   UNL     1      39.609 -24.316 -13.182  0.00  0.00    +0.211 HD
ENDBRANCH   8  15
BRANCH   9  17
ATOM     17  O   UNL     1      36.959 -26.050 -15.869  0.00  0.00    -0.379 OA
ATOM     18  H   UNL     1      37.314 -25.735 -16.715  0.00  0.00    +0.211 HD
ENDBRANCH   9  17
BRANCH   6  19
ATOM     19  C   UNL     1      36.718 -22.961 -15.342  0.00  0.00    +0.159 C 
BRANCH  19  20
ATOM     20  O   UNL     1      37.314 -22.994 -16.626  0.00  0.00    -0.380 OA
ATOM     21  H   UNL     1      36.711 -22.594 -17.272  0.00  0.00    +0.211 HD
ENDBRANCH  19  20
ENDBRANCH   6  19
TORSDOF 5
ENDMDL
MODEL 4
REMARK VINA RESULT:      -7.5      1.439      3.384
REMARK  Name = 130611
REMARK  5 active torsions:
REMARK  status: ('A' for Active; 'I' for Inactive)
REMARK    1  A    between atoms: C_6  and  C_19
REMARK    2  A    between atoms: C_7  and  O_13
REMARK    3  A    between atoms: C_8  and  O_15
REMARK    4  A    between atoms: C_9  and  O_17
REMARK    5  A    between atoms: C_19  and  O_20
REMARK                            x       y       z     vdW  Elec       q    Type
REMARK                         _______ _______ _______ _____ _____    ______ ____
ROOT
ATOM      1  O   UNL     1      34.842 -23.555 -16.650  0.00  0.00    -0.265 OA
ATOM      2  O   UNL     1      32.449 -23.005 -15.272  0.00  0.00    -0.265 OA
ATOM      3  N   UNL     1      35.412 -24.678 -14.647  0.00  0.00    -0.252 N 
ATOM      4  N   UNL     1      33.488 -24.205 -13.526  0.00  0.00    -0.281 N 
ATOM      5  C   UNL     1      34.734 -24.916 -13.391  0.00  0.00    +0.182 C 
ATOM      6  C   UNL     1      36.785 -25.130 -14.865  0.00  0.00    +0.136 C 
ATOM      7  C   UNL     1      35.585 -24.416 -12.226  0.00  0.00    +0.177 C 
ATOM      8  C   UNL     1      37.666 -24.753 -13.654  0.00  0.00    +0.160 C 
ATOM      9  C   UNL     1      37.000 -25.020 -12.290  0.00  0.00    +0.169 C 
ATOM     10  C   UNL     1      34.639 -23.946 -15.521  0.00  0.00    +0.304 C 
ATOM     11  C   UNL     1      33.356 -23.638 -14.776  0.00  0.00    +0.301 C 
ATOM     12  H   UNL     1      32.812 -24.134 -12.814  0.00  0.00    +0.151 HD
ENDROOT
BRANCH   7  13
ATOM     13  O   UNL     1      34.960 -24.783 -11.000  0.00  0.00    -0.379 OA
ATOM     14  H   UNL     1      34.662 -23.985 -10.537  0.00  0.00    +0.211 HD
ENDBRANCH   7  13
BRANCH   8  15
ATOM     15  O   UNL     1      37.960 -23.356 -13.753  0.00  0.00    -0.380 OA
ATOM     16  H   UNL     1      37.334 -22.937 -14.364  0.00  0.00    +0.211 HD
ENDBRANCH   8  15
BRANCH   9  17
ATOM     17  O   UNL     1      36.926 -26.425 -12.056  0.00  0.00    -0.379 OA
ATOM     18  H   UNL     1      36.070 -26.640 -11.655  0.00  0.00    +0.211 HD
ENDBRANCH   9  17
BRANCH   6  19
ATOM     19  C   UNL     1      36.811 -26.623 -15.191  0.00  0.00    +0.159 C 
BRANCH  19  20
ATOM     20  O   UNL     1      38.064 -27.146 -14.792  0.00  0.00    -0.380 OA
ATOM     21  H   UNL     1      38.040 -27.356 -13.846  0.00  0.00    +0.211 HD
ENDBRANCH  19  20
ENDBRANCH   6  19
TORSDOF 5
ENDMDL
MODEL 5
REMARK VINA RESULT:      -7.4      1.421      4.228
REMARK  Name = 130611
REMARK  5 active torsions:
REMARK  status: ('A' for Active; 'I' for Inactive)
REMARK    1  A    between atoms: C_6  and  C_19
REMARK    2  A    between atoms: C_7  and  O_13
REMARK    3  A    between atoms: C_8  and  O_15
REMARK    4  A    between atoms: C_9  and  O_17
REMARK    5  A    between atoms: C_19  and  O_20
REMARK                            x       y       z     vdW  Elec       q    Type
REMARK                         _______ _______ _______ _____ _____    ______ ____
ROOT
ATOM      1  O   UNL     1      37.987 -25.484 -11.602  0.00  0.00    -0.265 OA
ATOM      2  O   UNL     1      36.160 -24.217  -9.875  0.00  0.00    -0.265 OA
ATOM      3  N   UNL     1      36.672 -24.469 -13.287  0.00  0.00    -0.252 N 
ATOM      4  N   UNL     1      35.180 -23.471 -11.887  0.00  0.00    -0.281 N 
ATOM      5  C   UNL     1      35.514 -23.601 -13.282  0.00  0.00    +0.182 C 
ATOM      6  C   UNL     1      37.249 -24.957 -14.538  0.00  0.00    +0.136 C 
ATOM      7  C   UNL     1      34.390 -24.213 -14.113  0.00  0.00    +0.177 C 
ATOM      8  C   UNL     1      36.133 -25.480 -15.468  0.00  0.00    +0.160 C 
ATOM      9  C   UNL     1      34.890 -24.571 -15.524  0.00  0.00    +0.169 C 
ATOM     10  C   UNL     1      37.075 -24.799 -12.012  0.00  0.00    +0.304 C 
ATOM     11  C   UNL     1      36.085 -24.129 -11.082  0.00  0.00    +0.301 C 
ATOM     12  H   UNL     1      34.402 -22.972 -11.549  0.00  0.00    +0.151 HD
ENDROOT
BRANCH   7  13
ATOM     13  O   UNL     1      33.316 -23.282 -14.205  0.00  0.00    -0.379 OA
ATOM     14  H   UNL     1      32.884 -23.199 -13.341  0.00  0.00    +0.211 HD
ENDBRANCH   7  13
BRANCH   8  15
ATOM     15  O   UNL     1      35.737 -26.767 -14.985  0.00  0.00    -0.380 OA
ATOM     16  H   UNL     1      36.296 -27.015 -14.232  0.00  0.00    +0.211 HD
ENDBRANCH   8  15
BRANCH   9  17
ATOM     17  O   UNL     1      35.200 -23.374 -16.234  0.00  0.00    -0.379 OA
ATOM     18  H   UNL     1      34.964 -23.483 -17.169  0.00  0.00    +0.211 HD
ENDBRANCH   9  17
BRANCH   6  19
ATOM     19  C   UNL     1      38.118 -23.877 -15.182  0.00  0.00    +0.159 C 
BRANCH  19  20
ATOM     20  O   UNL     1      39.407 -24.417 -15.410  0.00  0.00    -0.380 OA
ATOM     21  H   UNL     1      39.790 -24.704 -14.566  0.00  0.00    +0.211 HD
ENDBRANCH  19  20
ENDBRANCH   6  19
TORSDOF 5
ENDMDL
MODEL 6
REMARK VINA RESULT:      -7.2      1.893      2.339
REMARK  Name = 130611
REMARK  5 active torsions:
REMARK  status: ('A' for Active; 'I' for Inactive)
REMARK    1  A    between atoms: C_6  and  C_19
REMARK    2  A    between atoms: C_7  and  O_13
REMARK    3  A    between atoms: C_8  and  O_15
REMARK    4  A    between atoms: C_9  and  O_17
REMARK    5  A    between atoms: C_19  and  O_20
REMARK                            x       y       z     vdW  Elec       q    Type
REMARK                         _______ _______ _______ _____ _____    ______ ____
ROOT
ATOM      1  O   UNL     1      34.448 -23.011 -16.504  0.00  0.00    -0.265 OA
ATOM      2  O   UNL     1      36.577 -21.671 -17.768  0.00  0.00    -0.265 OA
ATOM      3  N   UNL     1      36.152 -23.764 -15.046  0.00  0.00    -0.252 N 
ATOM      4  N   UNL     1      37.875 -22.703 -16.089  0.00  0.00    -0.281 N 
ATOM      5  C   UNL     1      37.578 -23.535 -14.951  0.00  0.00    +0.182 C 
ATOM      6  C   UNL     1      35.470 -24.681 -14.136  0.00  0.00    +0.136 C 
ATOM      7  C   UNL     1      38.330 -24.863 -14.969  0.00  0.00    +0.177 C 
ATOM      8  C   UNL     1      36.259 -26.004 -14.024  0.00  0.00    +0.160 C 
ATOM      9  C   UNL     1      37.782 -25.812 -13.887  0.00  0.00    +0.169 C 
ATOM     10  C   UNL     1      35.589 -23.083 -16.102  0.00  0.00    +0.304 C 
ATOM     11  C   UNL     1      36.736 -22.372 -16.791  0.00  0.00    +0.301 C 
ATOM     12  H   UNL     1      38.780 -22.405 -16.335  0.00  0.00    +0.151 HD
ENDROOT
BRANCH   7  13
ATOM     13  O   UNL     1      39.714 -24.620 -14.739  0.00  0.00    -0.379 OA
ATOM     14  H   UNL     1      39.828 -23.739 -14.349  0.00  0.00    +0.211 HD
ENDBRANCH   7  13
BRANCH   8  15
ATOM     15  O   UNL     1      35.999 -26.762 -15.209  0.00  0.00    -0.380 OA
ATOM     16  H   UNL     1      36.719 -27.397 -15.351  0.00  0.00    +0.211 HD
ENDBRANCH   8  15
BRANCH   9  17
ATOM     17  O   UNL     1      38.087 -25.286 -12.597  0.00  0.00    -0.379 OA
ATOM     18  H   UNL     1      38.914 -25.679 -12.277  0.00  0.00    +0.211 HD
ENDBRANCH   9  17
BRANCH   6  19
ATOM     19  C   UNL     1      35.222 -24.008 -12.786  0.00  0.00    +0.159 C 
BRANCH  19  20
ATOM     20  O   UNL     1      35.019 -25.017 -11.813  0.00  0.00    -0.380 OA
ATOM     21  H   UNL     1      34.169 -25.456 -11.977  0.00  0.00    +0.211 HD
ENDBRANCH  19  20
ENDBRANCH   6  19
TORSDOF 5
ENDMDL
MODEL 7
REMARK VINA RESULT:      -7.0      2.181      4.132
REMARK  Name = 130611
REMARK  5 active torsions:
REMARK  status: ('A' for Active; 'I' for Inactive)
REMARK    1  A    between atoms: C_6  and  C_19
REMARK    2  A    between atoms: C_7  and  O_13
REMARK    3  A    between atoms: C_8  and  O_15
REMARK    4  A    between atoms: C_9  and  O_17
REMARK    5  A    between atoms: C_19  and  O_20
REMARK                            x       y       z     vdW  Elec       q    Type
REMARK                         _______ _______ _______ _____ _____    ______ ____
ROOT
ATOM      1  O   UNL     1      37.884 -27.301 -15.060  0.00  0.00    -0.265 OA
ATOM      2  O   UNL     1      40.628 -26.684 -14.944  0.00  0.00    -0.265 OA
ATOM      3  N   UNL     1      37.658 -25.257 -13.891  0.00  0.00    -0.252 N 
ATOM      4  N   UNL     1      39.881 -24.778 -13.773  0.00  0.00    -0.281 N 
ATOM      5  C   UNL     1      38.587 -24.248 -13.426  0.00  0.00    +0.182 C 
ATOM      6  C   UNL     1      36.228 -25.157 -13.610  0.00  0.00    +0.136 C 
ATOM      7  C   UNL     1      38.416 -24.021 -11.926  0.00  0.00    +0.177 C 
ATOM      8  C   UNL     1      36.002 -24.808 -12.122  0.00  0.00    +0.160 C 
ATOM      9  C   UNL     1      36.945 -23.713 -11.588  0.00  0.00    +0.169 C 
ATOM     10  C   UNL     1      38.300 -26.291 -14.534  0.00  0.00    +0.304 C 
ATOM     11  C   UNL     1      39.778 -25.968 -14.461  0.00  0.00    +0.301 C 
ATOM     12  H   UNL     1      40.734 -24.342 -13.548  0.00  0.00    +0.151 HD
ENDROOT
BRANCH   7  13
ATOM     13  O   UNL     1      39.241 -22.934 -11.521  0.00  0.00    -0.379 OA
ATOM     14  H   UNL     1      39.677 -22.551 -12.297  0.00  0.00    +0.211 HD
ENDBRANCH   7  13
BRANCH   8  15
ATOM     15  O   UNL     1      36.212 -26.003 -11.363  0.00  0.00    -0.380 OA
ATOM     16  H   UNL     1      35.597 -26.020 -10.612  0.00  0.00    +0.211 HD
ENDBRANCH   8  15
BRANCH   9  17
ATOM     17  O   UNL     1      36.585 -22.452 -12.148  0.00  0.00    -0.379 OA
ATOM     18  H   UNL     1      36.303 -22.576 -13.067  0.00  0.00    +0.211 HD
ENDBRANCH   9  17
BRANCH   6  19
ATOM     19  C   UNL     1      35.562 -24.173 -14.570  0.00  0.00    +0.159 C 
BRANCH  19  20
ATOM     20  O   UNL     1      34.522 -23.506 -13.878  0.00  0.00    -0.380 OA
ATOM     21  H   UNL     1      34.732 -22.562 -13.812  0.00  0.00    +0.211 HD
ENDBRANCH  19  20
ENDBRANCH   6  19
TORSDOF 5
ENDMDL
MODEL 8
REMARK VINA RESULT:      -6.9      1.705      2.225
REMARK  Name = 130611
REMARK  5 active torsions:
REMARK  status: ('A' for Active; 'I' for Inactive)
REMARK    1  A    between atoms: C_6  and  C_19
REMARK    2  A    between atoms: C_7  and  O_13
REMARK    3  A    between atoms: C_8  and  O_15
REMARK    4  A    between atoms: C_9  and  O_17
REMARK    5  A    between atoms: C_19  and  O_20
REMARK                            x       y       z     vdW  Elec       q    Type
REMARK                         _______ _______ _______ _____ _____    ______ ____
ROOT
ATOM      1  O   UNL     1      34.558 -23.701 -11.663  0.00  0.00    -0.265 OA
ATOM      2  O   UNL     1      32.602 -24.180 -13.632  0.00  0.00    -0.265 OA
ATOM      3  N   UNL     1      36.027 -24.552 -13.311  0.00  0.00    -0.252 N 
ATOM      4  N   UNL     1      34.438 -24.966 -14.888  0.00  0.00    -0.281 N 
ATOM      5  C   UNL     1      35.860 -25.030 -14.666  0.00  0.00    +0.182 C 
ATOM      6  C   UNL     1      37.330 -24.584 -12.650  0.00  0.00    +0.136 C 
ATOM      7  C   UNL     1      36.424 -26.442 -14.804  0.00  0.00    +0.177 C 
ATOM      8  C   UNL     1      37.999 -25.960 -12.863  0.00  0.00    +0.160 C 
ATOM      9  C   UNL     1      37.879 -26.497 -14.301  0.00  0.00    +0.169 C 
ATOM     10  C   UNL     1      34.832 -24.156 -12.752  0.00  0.00    +0.304 C 
ATOM     11  C   UNL     1      33.777 -24.426 -13.806  0.00  0.00    +0.301 C 
ATOM     12  H   UNL     1      33.993 -25.269 -15.712  0.00  0.00    +0.151 HD
ENDROOT
BRANCH   7  13
ATOM     13  O   UNL     1      36.372 -26.835 -16.171  0.00  0.00    -0.379 OA
ATOM     14  H   UNL     1      35.579 -27.371 -16.325  0.00  0.00    +0.211 HD
ENDBRANCH   7  13
BRANCH   8  15
ATOM     15  O   UNL     1      37.369 -26.887 -11.974  0.00  0.00    -0.380 OA
ATOM     16  H   UNL     1      37.173 -26.446 -11.133  0.00  0.00    +0.211 HD
ENDBRANCH   8  15
BRANCH   9  17
ATOM     17  O   UNL     1      38.709 -25.732 -15.173  0.00  0.00    -0.379 OA
ATOM     18  H   UNL     1      38.198 -24.994 -15.539  0.00  0.00    +0.211 HD
ENDBRANCH   9  17
BRANCH   6  19
ATOM     19  C   UNL     1      38.194 -23.412 -13.116  0.00  0.00    +0.159 C 
BRANCH  19  20
ATOM     20  O   UNL     1      38.277 -22.470 -12.063  0.00  0.00    -0.380 OA
ATOM     21  H   UNL     1      39.145 -22.540 -11.635  0.00  0.00    +0.211 HD
ENDBRANCH  19  20
ENDBRANCH   6  19
TORSDOF 5
ENDMDL
MODEL 9
REMARK VINA RESULT:      -6.6      1.772      4.758
REMARK  Name = 130611
REMARK  5 active torsions:
REMARK  status: ('A' for Active; 'I' for Inactive)
REMARK    1  A    between atoms: C_6  and  C_19
REMARK    2  A    between atoms: C_7  and  O_13
REMARK    3  A    between atoms: C_8  and  O_15
REMARK    4  A    between atoms: C_9  and  O_17
REMARK    5  A    between atoms: C_19  and  O_20
REMARK                            x       y       z     vdW  Elec       q    Type
REMARK                         _______ _______ _______ _____ _____    ______ ____
ROOT
ATOM      1  O   UNL     1      39.123 -24.322 -14.172  0.00  0.00    -0.265 OA
ATOM      2  O   UNL     1      39.024 -23.599 -11.453  0.00  0.00    -0.265 OA
ATOM      3  N   UNL     1      36.843 -23.692 -14.137  0.00  0.00    -0.252 N 
ATOM      4  N   UNL     1      36.760 -23.137 -11.931  0.00  0.00    -0.281 N 
ATOM      5  C   UNL     1      35.953 -23.167 -13.124  0.00  0.00    +0.182 C 
ATOM      6  C   UNL     1      36.362 -24.002 -15.482  0.00  0.00    +0.136 C 
ATOM      7  C   UNL     1      34.720 -24.056 -12.990  0.00  0.00    +0.177 C 
ATOM      8  C   UNL     1      35.044 -24.803 -15.402  0.00  0.00    +0.160 C 
ATOM      9  C   UNL     1      34.047 -24.262 -14.360  0.00  0.00    +0.169 C 
ATOM     10  C   UNL     1      38.112 -23.906 -13.648  0.00  0.00    +0.304 C 
ATOM     11  C   UNL     1      38.057 -23.530 -12.182  0.00  0.00    +0.301 C 
ATOM     12  H   UNL     1      36.427 -22.867 -11.045  0.00  0.00    +0.151 HD
ENDROOT
BRANCH   7  13
ATOM     13  O   UNL     1      33.800 -23.448 -12.089  0.00  0.00    -0.379 OA
ATOM     14  H   UNL     1      33.454 -24.117 -11.478  0.00  0.00    +0.211 HD
ENDBRANCH   7  13
BRANCH   8  15
ATOM     15  O   UNL     1      35.379 -26.151 -15.058  0.00  0.00    -0.380 OA
ATOM     16  H   UNL     1      34.628 -26.564 -14.604  0.00  0.00    +0.211 HD
ENDBRANCH   8  15
BRANCH   9  17
ATOM     17  O   UNL     1      33.503 -23.023 -14.810  0.00  0.00    -0.379 OA
ATOM     18  H   UNL     1      33.514 -23.000 -15.780  0.00  0.00    +0.211 HD
ENDBRANCH   9  17
BRANCH   6  19
ATOM     19  C   UNL     1      36.246 -22.726 -16.315  0.00  0.00    +0.159 C 
BRANCH  19  20
ATOM     20  O   UNL     1      35.244 -22.922 -17.296  0.00  0.00    -0.380 OA
ATOM     21  H   UNL     1      34.969 -22.063 -17.652  0.00  0.00    +0.211 HD
ENDBRANCH  19  20
ENDBRANCH   6  19
TORSDOF 5
ENDMDL
