MODEL 1
REMARK VINA RESULT:      -6.5      0.000      0.000
REMARK  Name = 15907
REMARK  4 active torsions:
REMARK  status: ('A' for Active; 'I' for Inactive)
REMARK    1  A    between atoms: C_2  and  O_8
REMARK    2  A    between atoms: O_8  and  C_9
REMARK    3  A    between atoms: C_9  and  C_10
REMARK    4  A    between atoms: C_10  and  O_11
REMARK                            x       y       z     vdW  Elec       q    Type
REMARK                         _______ _______ _______ _____ _____    ______ ____
ROOT
ATOM      1 CL   UNL     1      36.257 -18.608 -21.711  0.00  0.00    -0.082 Cl
ATOM      2  C   UNL     1      33.570 -21.488 -19.513  0.00  0.00    +0.139 C 
ATOM      3  C   UNL     1      34.953 -21.661 -19.479  0.00  0.00    +0.038 C 
ATOM      4  C   UNL     1      33.017 -20.424 -20.226  0.00  0.00    +0.038 C 
ATOM      5  C   UNL     1      35.785 -20.770 -20.160  0.00  0.00    +0.015 C 
ATOM      6  C   UNL     1      33.848 -19.533 -20.906  0.00  0.00    +0.015 C 
ATOM      7  C   UNL     1      35.232 -19.707 -20.873  0.00  0.00    +0.058 C 
ENDROOT
BRANCH   2   8
ATOM      8  O   UNL     1      32.759 -22.356 -18.850  0.00  0.00    -0.473 OA
BRANCH   8   9
ATOM      9  C   UNL     1      33.314 -23.031 -17.721  0.00  0.00    +0.237 C 
BRANCH   9  10
ATOM     10  C   UNL     1      32.237 -23.204 -16.668  0.00  0.00    +0.185 C 
BRANCH  10  11
ATOM     11  O   UNL     1      31.045 -22.570 -17.114  0.00  0.00    -0.378 OA
ATOM     12  H   UNL     1      30.337 -23.228 -17.189  0.00  0.00    +0.211 HD
ENDBRANCH  10  11
ENDBRANCH   9  10
ENDBRANCH   8   9
ENDBRANCH   2   8
TORSDOF 4
ENDMDL
MODEL 2
REMARK VINA RESULT:      -6.2      3.819      5.793
REMARK  Name = 15907
REMARK  4 active torsions:
REMARK  status: ('A' for Active; 'I' for Inactive)
REMARK    1  A    between atoms: C_2  and  O_8
REMARK    2  A    between atoms: O_8  and  C_9
REMARK    3  A    between atoms: C_9  and  C_10
REMARK    4  A    between atoms: C_10  and  O_11
REMARK                            x       y       z     vdW  Elec       q    Type
REMARK                         _______ _______ _______ _____ _____    ______ ____
ROOT
ATOM      1 CL   UNL     1      33.415 -22.568 -18.429  0.00  0.00    -0.082 Cl
ATOM      2  C   UNL     1      34.981 -19.404 -21.236  0.00  0.00    +0.139 C 
ATOM      3  C   UNL     1      33.607 -19.556 -21.055  0.00  0.00    +0.038 C 
ATOM      4  C   UNL     1      35.872 -20.229 -20.550  0.00  0.00    +0.038 C 
ATOM      5  C   UNL     1      33.122 -20.535 -20.186  0.00  0.00    +0.015 C 
ATOM      6  C   UNL     1      35.387 -21.209 -19.681  0.00  0.00    +0.015 C 
ATOM      7  C   UNL     1      34.013 -21.361 -19.500  0.00  0.00    +0.058 C 
ENDROOT
BRANCH   2   8
ATOM      8  O   UNL     1      35.454 -18.449 -22.083  0.00  0.00    -0.473 OA
BRANCH   8   9
ATOM      9  C   UNL     1      35.179 -18.620 -23.473  0.00  0.00    +0.237 C 
BRANCH   9  10
ATOM     10  C   UNL     1      34.876 -17.267 -24.088  0.00  0.00    +0.185 C 
BRANCH  10  11
ATOM     11  O   UNL     1      35.722 -16.289 -23.496  0.00  0.00    -0.378 OA
ATOM     12  H   UNL     1      35.446 -15.405 -23.785  0.00  0.00    +0.211 HD
ENDBRANCH  10  11
ENDBRANCH   9  10
ENDBRANCH   8   9
ENDBRANCH   2   8
TORSDOF 4
ENDMDL
MODEL 3
REMARK VINA RESULT:      -6.2      3.811      5.602
REMARK  Name = 15907
REMARK  4 active torsions:
REMARK  status: ('A' for Active; 'I' for Inactive)
REMARK    1  A    between atoms: C_2  and  O_8
REMARK    2  A    between atoms: O_8  and  C_9
REMARK    3  A    between atoms: C_9  and  C_10
REMARK    4  A    between atoms: C_10  and  O_11
REMARK                            x       y       z     vdW  Elec       q    Type
REMARK                         _______ _______ _______ _____ _____    ______ ____
ROOT
ATOM      1 CL   UNL     1      33.724 -22.768 -18.418  0.00  0.00    -0.082 Cl
ATOM      2  C   UNL     1      34.817 -19.390 -21.201  0.00  0.00    +0.139 C 
ATOM      3  C   UNL     1      35.820 -20.144 -20.592  0.00  0.00    +0.038 C 
ATOM      4  C   UNL     1      33.476 -19.680 -20.949  0.00  0.00    +0.038 C 
ATOM      5  C   UNL     1      35.482 -21.189 -19.731  0.00  0.00    +0.015 C 
ATOM      6  C   UNL     1      33.138 -20.725 -20.088  0.00  0.00    +0.015 C 
ATOM      7  C   UNL     1      34.141 -21.479 -19.479  0.00  0.00    +0.058 C 
ENDROOT
BRANCH   2   8
ATOM      8  O   UNL     1      35.146 -18.371 -22.040  0.00  0.00    -0.473 OA
BRANCH   8   9
ATOM      9  C   UNL     1      35.006 -18.612 -23.440  0.00  0.00    +0.237 C 
BRANCH   9  10
ATOM     10  C   UNL     1      34.897 -17.284 -24.163  0.00  0.00    +0.185 C 
BRANCH  10  11
ATOM     11  O   UNL     1      35.725 -16.330 -23.509  0.00  0.00    -0.378 OA
ATOM     12  H   UNL     1      35.782 -15.526 -24.049  0.00  0.00    +0.211 HD
ENDBRANCH  10  11
ENDBRANCH   9  10
ENDBRANCH   8   9
ENDBRANCH   2   8
TORSDOF 4
ENDMDL
MODEL 4
REMARK VINA RESULT:      -6.1      6.502      8.522
REMARK  Name = 15907
REMARK  4 active torsions:
REMARK  status: ('A' for Active; 'I' for Inactive)
REMARK    1  A    between atoms: C_2  and  O_8
REMARK    2  A    between atoms: O_8  and  C_9
REMARK    3  A    between atoms: C_9  and  C_10
REMARK    4  A    between atoms: C_10  and  O_11
REMARK                            x       y       z     vdW  Elec       q    Type
REMARK                         _______ _______ _______ _____ _____    ______ ____
ROOT
ATOM      1 CL   UNL     1      35.485 -18.699 -21.166  0.00  0.00    -0.082 Cl
ATOM      2  C   UNL     1      34.470 -16.588 -25.021  0.00  0.00    +0.139 C 
ATOM      3  C   UNL     1      34.746 -15.847 -23.872  0.00  0.00    +0.038 C 
ATOM      4  C   UNL     1      34.507 -17.982 -24.978  0.00  0.00    +0.038 C 
ATOM      5  C   UNL     1      35.060 -16.500 -22.679  0.00  0.00    +0.015 C 
ATOM      6  C   UNL     1      34.821 -18.635 -23.785  0.00  0.00    +0.015 C 
ATOM      7  C   UNL     1      35.097 -17.894 -22.637  0.00  0.00    +0.058 C 
ENDROOT
BRANCH   2   8
ATOM      8  O   UNL     1      34.164 -15.952 -26.184  0.00  0.00    -0.473 OA
BRANCH   8   9
ATOM      9  C   UNL     1      32.921 -15.251 -26.233  0.00  0.00    +0.237 C 
BRANCH   9  10
ATOM     10  C   UNL     1      33.189 -13.785 -26.513  0.00  0.00    +0.185 C 
BRANCH  10  11
ATOM     11  O   UNL     1      33.817 -13.662 -27.783  0.00  0.00    -0.378 OA
ATOM     12  H   UNL     1      34.204 -12.777 -27.869  0.00  0.00    +0.211 HD
ENDBRANCH  10  11
ENDBRANCH   9  10
ENDBRANCH   8   9
ENDBRANCH   2   8
TORSDOF 4
ENDMDL
MODEL 5
REMARK VINA RESULT:      -6.0      5.816      7.254
REMARK  Name = 15907
REMARK  4 active torsions:
REMARK  status: ('A' for Active; 'I' for Inactive)
REMARK    1  A    between atoms: C_2  and  O_8
REMARK    2  A    between atoms: O_8  and  C_9
REMARK    3  A    between atoms: C_9  and  C_10
REMARK    4  A    between atoms: C_10  and  O_11
REMARK                            x       y       z     vdW  Elec       q    Type
REMARK                         _______ _______ _______ _____ _____    ______ ____
ROOT
ATOM      1 CL   UNL     1      31.907 -25.257 -13.698  0.00  0.00    -0.082 Cl
ATOM      2  C   UNL     1      29.257 -22.792 -16.390  0.00  0.00    +0.139 C 
ATOM      3  C   UNL     1      30.639 -22.607 -16.413  0.00  0.00    +0.038 C 
ATOM      4  C   UNL     1      28.693 -23.739 -15.534  0.00  0.00    +0.038 C 
ATOM      5  C   UNL     1      31.459 -23.369 -15.580  0.00  0.00    +0.015 C 
ATOM      6  C   UNL     1      29.514 -24.502 -14.701  0.00  0.00    +0.015 C 
ATOM      7  C   UNL     1      30.896 -24.317 -14.725  0.00  0.00    +0.058 C 
ENDROOT
BRANCH   2   8
ATOM      8  O   UNL     1      28.456 -22.049 -17.201  0.00  0.00    -0.473 OA
BRANCH   8   9
ATOM      9  C   UNL     1      27.061 -22.034 -16.901  0.00  0.00    +0.237 C 
BRANCH   9  10
ATOM     10  C   UNL     1      26.297 -21.553 -18.119  0.00  0.00    +0.185 C 
BRANCH  10  11
ATOM     11  O   UNL     1      25.951 -20.185 -17.939  0.00  0.00    -0.378 OA
ATOM     12  H   UNL     1      25.045 -20.123 -17.598  0.00  0.00    +0.211 HD
ENDBRANCH  10  11
ENDBRANCH   9  10
ENDBRANCH   8   9
ENDBRANCH   2   8
TORSDOF 4
ENDMDL
MODEL 6
REMARK VINA RESULT:      -6.0      1.721      1.937
REMARK  Name = 15907
REMARK  4 active torsions:
REMARK  status: ('A' for Active; 'I' for Inactive)
REMARK    1  A    between atoms: C_2  and  O_8
REMARK    2  A    between atoms: O_8  and  C_9
REMARK    3  A    between atoms: C_9  and  C_10
REMARK    4  A    between atoms: C_10  and  O_11
REMARK                            x       y       z     vdW  Elec       q    Type
REMARK                         _______ _______ _______ _____ _____    ______ ____
ROOT
ATOM      1 CL   UNL     1      34.614 -18.421 -21.670  0.00  0.00    -0.082 Cl
ATOM      2  C   UNL     1      34.313 -22.190 -19.209  0.00  0.00    +0.139 C 
ATOM      3  C   UNL     1      35.562 -21.721 -19.616  0.00  0.00    +0.038 C 
ATOM      4  C   UNL     1      33.156 -21.494 -19.563  0.00  0.00    +0.038 C 
ATOM      5  C   UNL     1      35.655 -20.555 -20.377  0.00  0.00    +0.015 C 
ATOM      6  C   UNL     1      33.250 -20.328 -20.324  0.00  0.00    +0.015 C 
ATOM      7  C   UNL     1      34.498 -19.859 -20.731  0.00  0.00    +0.058 C 
ENDROOT
BRANCH   2   8
ATOM      8  O   UNL     1      34.221 -23.327 -18.467  0.00  0.00    -0.473 OA
BRANCH   8   9
ATOM      9  C   UNL     1      33.661 -23.205 -17.160  0.00  0.00    +0.237 C 
BRANCH   9  10
ATOM     10  C   UNL     1      34.784 -23.086 -16.148  0.00  0.00    +0.185 C 
BRANCH  10  11
ATOM     11  O   UNL     1      35.299 -24.382 -15.871  0.00  0.00    -0.378 OA
ATOM     12  H   UNL     1      34.640 -24.893 -15.373  0.00  0.00    +0.211 HD
ENDBRANCH  10  11
ENDBRANCH   9  10
ENDBRANCH   8   9
ENDBRANCH   2   8
TORSDOF 4
ENDMDL
MODEL 7
REMARK VINA RESULT:      -5.9      6.775      8.754
REMARK  Name = 15907
REMARK  4 active torsions:
REMARK  status: ('A' for Active; 'I' for Inactive)
REMARK    1  A    between atoms: C_2  and  O_8
REMARK    2  A    between atoms: O_8  and  C_9
REMARK    3  A    between atoms: C_9  and  C_10
REMARK    4  A    between atoms: C_10  and  O_11
REMARK                            x       y       z     vdW  Elec       q    Type
REMARK                         _______ _______ _______ _____ _____    ______ ____
ROOT
ATOM      1 CL   UNL     1      35.748 -18.456 -21.490  0.00  0.00    -0.082 Cl
ATOM      2  C   UNL     1      34.185 -16.407 -25.192  0.00  0.00    +0.139 C 
ATOM      3  C   UNL     1      34.437 -17.779 -25.208  0.00  0.00    +0.038 C 
ATOM      4  C   UNL     1      34.416 -15.669 -24.031  0.00  0.00    +0.038 C 
ATOM      5  C   UNL     1      34.921 -18.413 -24.063  0.00  0.00    +0.015 C 
ATOM      6  C   UNL     1      34.900 -16.302 -22.886  0.00  0.00    +0.015 C 
ATOM      7  C   UNL     1      35.152 -17.674 -22.902  0.00  0.00    +0.058 C 
ENDROOT
BRANCH   2   8
ATOM      8  O   UNL     1      33.713 -15.788 -26.308  0.00  0.00    -0.473 OA
BRANCH   8   9
ATOM      9  C   UNL     1      32.953 -14.595 -26.117  0.00  0.00    +0.237 C 
BRANCH   9  10
ATOM     10  C   UNL     1      33.397 -13.557 -27.130  0.00  0.00    +0.185 C 
BRANCH  10  11
ATOM     11  O   UNL     1      32.257 -13.073 -27.828  0.00  0.00    -0.378 OA
ATOM     12  H   UNL     1      32.265 -12.103 -27.828  0.00  0.00    +0.211 HD
ENDBRANCH  10  11
ENDBRANCH   9  10
ENDBRANCH   8   9
ENDBRANCH   2   8
TORSDOF 4
ENDMDL
MODEL 8
REMARK VINA RESULT:      -5.8      1.630      2.230
REMARK  Name = 15907
REMARK  4 active torsions:
REMARK  status: ('A' for Active; 'I' for Inactive)
REMARK    1  A    between atoms: C_2  and  O_8
REMARK    2  A    between atoms: O_8  and  C_9
REMARK    3  A    between atoms: C_9  and  C_10
REMARK    4  A    between atoms: C_10  and  O_11
REMARK                            x       y       z     vdW  Elec       q    Type
REMARK                         _______ _______ _______ _____ _____    ______ ____
ROOT
ATOM      1 CL   UNL     1      35.346 -17.509 -22.104  0.00  0.00    -0.082 Cl
ATOM      2  C   UNL     1      35.052 -21.292 -19.664  0.00  0.00    +0.139 C 
ATOM      3  C   UNL     1      33.893 -20.667 -20.123  0.00  0.00    +0.038 C 
ATOM      4  C   UNL     1      36.303 -20.748 -19.959  0.00  0.00    +0.038 C 
ATOM      5  C   UNL     1      33.984 -19.496 -20.878  0.00  0.00    +0.015 C 
ATOM      6  C   UNL     1      36.393 -19.577 -20.714  0.00  0.00    +0.015 C 
ATOM      7  C   UNL     1      35.234 -18.952 -21.173  0.00  0.00    +0.058 C 
ENDROOT
BRANCH   2   8
ATOM      8  O   UNL     1      34.965 -22.433 -18.928  0.00  0.00    -0.473 OA
BRANCH   8   9
ATOM      9  C   UNL     1      33.657 -22.863 -18.550  0.00  0.00    +0.237 C 
BRANCH   9  10
ATOM     10  C   UNL     1      33.640 -23.147 -17.061  0.00  0.00    +0.185 C 
BRANCH  10  11
ATOM     11  O   UNL     1      34.923 -23.614 -16.663  0.00  0.00    -0.378 OA
ATOM     12  H   UNL     1      35.448 -22.871 -16.325  0.00  0.00    +0.211 HD
ENDBRANCH  10  11
ENDBRANCH   9  10
ENDBRANCH   8   9
ENDBRANCH   2   8
TORSDOF 4
ENDMDL
MODEL 9
REMARK VINA RESULT:      -5.8      5.374      7.351
REMARK  Name = 15907
REMARK  4 active torsions:
REMARK  status: ('A' for Active; 'I' for Inactive)
REMARK    1  A    between atoms: C_2  and  O_8
REMARK    2  A    between atoms: O_8  and  C_9
REMARK    3  A    between atoms: C_9  and  C_10
REMARK    4  A    between atoms: C_10  and  O_11
REMARK                            x       y       z     vdW  Elec       q    Type
REMARK                         _______ _______ _______ _____ _____    ______ ____
ROOT
ATOM      1 CL   UNL     1      34.953 -20.356 -20.565  0.00  0.00    -0.082 Cl
ATOM      2  C   UNL     1      34.823 -16.853 -23.404  0.00  0.00    +0.139 C 
ATOM      3  C   UNL     1      34.920 -16.634 -22.030  0.00  0.00    +0.038 C 
ATOM      4  C   UNL     1      34.765 -18.156 -23.901  0.00  0.00    +0.038 C 
ATOM      5  C   UNL     1      34.961 -17.718 -21.152  0.00  0.00    +0.015 C 
ATOM      6  C   UNL     1      34.805 -19.239 -23.022  0.00  0.00    +0.015 C 
ATOM      7  C   UNL     1      34.903 -19.020 -21.649  0.00  0.00    +0.058 C 
ENDROOT
BRANCH   2   8
ATOM      8  O   UNL     1      34.784 -15.797 -24.261  0.00  0.00    -0.473 OA
BRANCH   8   9
ATOM      9  C   UNL     1      33.638 -14.948 -24.194  0.00  0.00    +0.237 C 
BRANCH   9  10
ATOM     10  C   UNL     1      33.150 -14.662 -25.601  0.00  0.00    +0.185 C 
BRANCH  10  11
ATOM     11  O   UNL     1      33.622 -15.682 -26.472  0.00  0.00    -0.378 OA
ATOM     12  H   UNL     1      33.999 -15.279 -27.269  0.00  0.00    +0.211 HD
ENDBRANCH  10  11
ENDBRANCH   9  10
ENDBRANCH   8   9
ENDBRANCH   2   8
TORSDOF 4
ENDMDL
