MODEL 1
REMARK VINA RESULT:     -10.1      0.000      0.000
REMARK  Name = 16750074
REMARK  3 active torsions:
REMARK  status: ('A' for Active; 'I' for Inactive)
REMARK    1  A    between atoms: C_7  and  C_14
REMARK    2  A    between atoms: C_10  and  O_22
REMARK    3  A    between atoms: C_19  and  O_20
REMARK                            x       y       z     vdW  Elec       q    Type
REMARK                         _______ _______ _______ _____ _____    ______ ____
ROOT
ATOM      1  O   UNL     1      33.669 -16.984 -21.243  0.00  0.00    -0.475 OA
ATOM      2  C   UNL     1      35.202 -17.614 -23.055  0.00  0.00    +0.049 C 
ATOM      3  C   UNL     1      35.192 -16.193 -23.637  0.00  0.00    +0.032 C 
ATOM      4  C   UNL     1      34.154 -18.384 -23.883  0.00  0.00    +0.004 C 
ATOM      5  C   UNL     1      34.979 -16.463 -25.130  0.00  0.00    +0.005 C 
ATOM      6  C   UNL     1      33.963 -17.596 -25.177  0.00  0.00    +0.000 C 
ATOM      7  C   UNL     1      34.943 -17.571 -21.546  0.00  0.00    +0.188 C 
ATOM      8  C   UNL     1      34.133 -15.334 -22.987  0.00  0.00    +0.045 C 
ATOM      9  C   UNL     1      33.446 -15.772 -21.844  0.00  0.00    +0.138 C 
ATOM     10  C   UNL     1      33.840 -14.059 -23.497  0.00  0.00    +0.133 C 
ATOM     11  C   UNL     1      32.447 -14.981 -21.269  0.00  0.00    +0.037 C 
ATOM     12  C   UNL     1      32.854 -13.265 -22.910  0.00  0.00    +0.036 C 
ATOM     13  C   UNL     1      32.153 -13.728 -21.802  0.00  0.00    +0.006 C 
ENDROOT
BRANCH   7  14
ATOM     14  C   UNL     1      35.052 -18.945 -20.910  0.00  0.00    +0.017 C 
ATOM     15  C   UNL     1      36.306 -19.484 -20.624  0.00  0.00    +0.002 C 
ATOM     16  C   UNL     1      33.898 -19.670 -20.614  0.00  0.00    +0.002 C 
ATOM     17  C   UNL     1      36.406 -20.746 -20.040  0.00  0.00    +0.036 C 
ATOM     18  C   UNL     1      33.998 -20.932 -20.030  0.00  0.00    +0.036 C 
ATOM     19  C   UNL     1      35.252 -21.471 -19.743  0.00  0.00    +0.134 C 
BRANCH  19  20
ATOM     20  O   UNL     1      35.349 -22.703 -19.173  0.00  0.00    -0.506 OA
ATOM     21  H   UNL     1      36.178 -23.010 -18.858  0.00  0.00    +0.292 HD
ENDBRANCH  19  20
ENDBRANCH   7  14
BRANCH  10  22
ATOM     22  O   UNL     1      34.541 -13.527 -24.540  0.00  0.00    -0.506 OA
ATOM     23  H   UNL     1      34.566 -13.973 -25.364  0.00  0.00    +0.292 HD
ENDBRANCH  10  22
TORSDOF 3
ENDMDL
MODEL 2
REMARK VINA RESULT:      -9.3      6.506      9.539
REMARK  Name = 16750074
REMARK  3 active torsions:
REMARK  status: ('A' for Active; 'I' for Inactive)
REMARK    1  A    between atoms: C_7  and  C_14
REMARK    2  A    between atoms: C_10  and  O_22
REMARK    3  A    between atoms: C_19  and  O_20
REMARK                            x       y       z     vdW  Elec       q    Type
REMARK                         _______ _______ _______ _____ _____    ______ ____
ROOT
ATOM      1  O   UNL     1      33.281 -23.153 -17.148  0.00  0.00    -0.475 OA
ATOM      2  C   UNL     1      34.264 -23.451 -14.917  0.00  0.00    +0.049 C 
ATOM      3  C   UNL     1      35.497 -22.612 -15.285  0.00  0.00    +0.032 C 
ATOM      4  C   UNL     1      34.705 -24.911 -15.136  0.00  0.00    +0.004 C 
ATOM      5  C   UNL     1      36.642 -23.486 -14.763  0.00  0.00    +0.005 C 
ATOM      6  C   UNL     1      36.232 -24.911 -15.112  0.00  0.00    +0.000 C 
ATOM      7  C   UNL     1      33.053 -23.000 -15.740  0.00  0.00    +0.188 C 
ATOM      8  C   UNL     1      35.545 -22.314 -16.766  0.00  0.00    +0.045 C 
ATOM      9  C   UNL     1      34.451 -22.595 -17.597  0.00  0.00    +0.138 C 
ATOM     10  C   UNL     1      36.681 -21.714 -17.333  0.00  0.00    +0.133 C 
ATOM     11  C   UNL     1      34.518 -22.343 -18.970  0.00  0.00    +0.037 C 
ATOM     12  C   UNL     1      36.739 -21.448 -18.701  0.00  0.00    +0.036 C 
ATOM     13  C   UNL     1      35.661 -21.768 -19.521  0.00  0.00    +0.006 C 
ENDROOT
BRANCH   7  14
ATOM     14  C   UNL     1      31.785 -23.729 -15.331  0.00  0.00    +0.017 C 
ATOM     15  C   UNL     1      31.657 -24.235 -14.038  0.00  0.00    +0.002 C 
ATOM     16  C   UNL     1      30.749 -23.893 -16.250  0.00  0.00    +0.002 C 
ATOM     17  C   UNL     1      30.493 -24.904 -13.663  0.00  0.00    +0.036 C 
ATOM     18  C   UNL     1      29.584 -24.563 -15.875  0.00  0.00    +0.036 C 
ATOM     19  C   UNL     1      29.456 -25.069 -14.582  0.00  0.00    +0.134 C 
BRANCH  19  20
ATOM     20  O   UNL     1      28.320 -25.722 -14.216  0.00  0.00    -0.506 OA
ATOM     21  H   UNL     1      28.370 -26.477 -13.662  0.00  0.00    +0.292 HD
ENDBRANCH  19  20
ENDBRANCH   7  14
BRANCH  10  22
ATOM     22  O   UNL     1      37.740 -21.318 -16.568  0.00  0.00    -0.506 OA
ATOM     23  H   UNL     1      38.576 -21.175 -16.964  0.00  0.00    +0.292 HD
ENDBRANCH  10  22
TORSDOF 3
ENDMDL
MODEL 3
REMARK VINA RESULT:      -9.3      2.852      7.422
REMARK  Name = 16750074
REMARK  3 active torsions:
REMARK  status: ('A' for Active; 'I' for Inactive)
REMARK    1  A    between atoms: C_7  and  C_14
REMARK    2  A    between atoms: C_10  and  O_22
REMARK    3  A    between atoms: C_19  and  O_20
REMARK                            x       y       z     vdW  Elec       q    Type
REMARK                         _______ _______ _______ _____ _____    ______ ____
ROOT
ATOM      1  O   UNL     1      33.324 -14.104 -24.202  0.00  0.00    -0.475 OA
ATOM      2  C   UNL     1      33.822 -13.945 -21.802  0.00  0.00    +0.049 C 
ATOM      3  C   UNL     1      34.662 -15.231 -21.831  0.00  0.00    +0.032 C 
ATOM      4  C   UNL     1      32.428 -14.400 -21.325  0.00  0.00    +0.004 C 
ATOM      5  C   UNL     1      34.130 -15.985 -20.609  0.00  0.00    +0.005 C 
ATOM      6  C   UNL     1      32.626 -15.744 -20.629  0.00  0.00    +0.000 C 
ATOM      7  C   UNL     1      33.855 -13.259 -23.171  0.00  0.00    +0.188 C 
ATOM      8  C   UNL     1      34.514 -15.961 -23.146  0.00  0.00    +0.045 C 
ATOM      9  C   UNL     1      33.866 -15.363 -24.238  0.00  0.00    +0.138 C 
ATOM     10  C   UNL     1      35.057 -17.245 -23.310  0.00  0.00    +0.133 C 
ATOM     11  C   UNL     1      33.710 -16.060 -25.440  0.00  0.00    +0.037 C 
ATOM     12  C   UNL     1      34.914 -17.932 -24.517  0.00  0.00    +0.036 C 
ATOM     13  C   UNL     1      34.235 -17.343 -25.578  0.00  0.00    +0.006 C 
ENDROOT
BRANCH   7  14
ATOM     14  C   UNL     1      33.127 -11.927 -23.157  0.00  0.00    +0.017 C 
ATOM     15  C   UNL     1      33.586 -10.873 -23.947  0.00  0.00    +0.002 C 
ATOM     16  C   UNL     1      32.000 -11.757 -22.354  0.00  0.00    +0.002 C 
ATOM     17  C   UNL     1      32.916  -9.649 -23.934  0.00  0.00    +0.036 C 
ATOM     18  C   UNL     1      31.330 -10.534 -22.342  0.00  0.00    +0.036 C 
ATOM     19  C   UNL     1      31.789  -9.480 -23.131  0.00  0.00    +0.134 C 
BRANCH  19  20
ATOM     20  O   UNL     1      31.135  -8.286 -23.119  0.00  0.00    -0.506 OA
ATOM     21  H   UNL     1      30.279  -8.224 -22.741  0.00  0.00    +0.292 HD
ENDBRANCH  19  20
ENDBRANCH   7  14
BRANCH  10  22
ATOM     22  O   UNL     1      35.790 -17.844 -22.326  0.00  0.00    -0.506 OA
ATOM     23  H   UNL     1      35.441 -17.914 -21.460  0.00  0.00    +0.292 HD
ENDBRANCH  10  22
TORSDOF 3
ENDMDL
MODEL 4
REMARK VINA RESULT:      -9.2      1.297      2.806
REMARK  Name = 16750074
REMARK  3 active torsions:
REMARK  status: ('A' for Active; 'I' for Inactive)
REMARK    1  A    between atoms: C_7  and  C_14
REMARK    2  A    between atoms: C_10  and  O_22
REMARK    3  A    between atoms: C_19  and  O_20
REMARK                            x       y       z     vdW  Elec       q    Type
REMARK                         _______ _______ _______ _____ _____    ______ ____
ROOT
ATOM      1  O   UNL     1      34.385 -17.723 -22.982  0.00  0.00    -0.475 OA
ATOM      2  C   UNL     1      33.503 -16.705 -20.928  0.00  0.00    +0.049 C 
ATOM      3  C   UNL     1      32.884 -15.534 -21.704  0.00  0.00    +0.032 C 
ATOM      4  C   UNL     1      34.858 -16.169 -20.426  0.00  0.00    +0.004 C 
ATOM      5  C   UNL     1      33.328 -14.329 -20.870  0.00  0.00    +0.005 C 
ATOM      6  C   UNL     1      34.762 -14.646 -20.466  0.00  0.00    +0.000 C 
ATOM      7  C   UNL     1      33.578 -17.950 -21.817  0.00  0.00    +0.188 C 
ATOM      8  C   UNL     1      33.343 -15.517 -23.144  0.00  0.00    +0.045 C 
ATOM      9  C   UNL     1      34.054 -16.596 -23.691  0.00  0.00    +0.138 C 
ATOM     10  C   UNL     1      33.035 -14.428 -23.975  0.00  0.00    +0.133 C 
ATOM     11  C   UNL     1      34.500 -16.557 -25.014  0.00  0.00    +0.037 C 
ATOM     12  C   UNL     1      33.467 -14.399 -25.302  0.00  0.00    +0.036 C 
ATOM     13  C   UNL     1      34.205 -15.458 -25.819  0.00  0.00    +0.006 C 
ENDROOT
BRANCH   7  14
ATOM     14  C   UNL     1      34.084 -19.163 -21.057  0.00  0.00    +0.017 C 
ATOM     15  C   UNL     1      35.451 -19.432 -21.002  0.00  0.00    +0.002 C 
ATOM     16  C   UNL     1      33.180 -20.009 -20.414  0.00  0.00    +0.002 C 
ATOM     17  C   UNL     1      35.915 -20.546 -20.303  0.00  0.00    +0.036 C 
ATOM     18  C   UNL     1      33.644 -21.123 -19.715  0.00  0.00    +0.036 C 
ATOM     19  C   UNL     1      35.012 -21.392 -19.660  0.00  0.00    +0.134 C 
BRANCH  19  20
ATOM     20  O   UNL     1      35.464 -22.480 -18.978  0.00  0.00    -0.506 OA
ATOM     21  H   UNL     1      34.969 -23.276 -18.984  0.00  0.00    +0.292 HD
ENDBRANCH  19  20
ENDBRANCH   7  14
BRANCH  10  22
ATOM     22  O   UNL     1      32.258 -13.393 -23.541  0.00  0.00    -0.506 OA
ATOM     23  H   UNL     1      32.529 -12.882 -22.804  0.00  0.00    +0.292 HD
ENDBRANCH  10  22
TORSDOF 3
ENDMDL
MODEL 5
REMARK VINA RESULT:      -9.0      6.887     11.363
REMARK  Name = 16750074
REMARK  3 active torsions:
REMARK  status: ('A' for Active; 'I' for Inactive)
REMARK    1  A    between atoms: C_7  and  C_14
REMARK    2  A    between atoms: C_10  and  O_22
REMARK    3  A    between atoms: C_19  and  O_20
REMARK                            x       y       z     vdW  Elec       q    Type
REMARK                         _______ _______ _______ _____ _____    ______ ____
ROOT
ATOM      1  O   UNL     1      31.731  -7.967 -21.538  0.00  0.00    -0.475 OA
ATOM      2  C   UNL     1      32.234  -8.718 -23.822  0.00  0.00    +0.049 C 
ATOM      3  C   UNL     1      32.017 -10.192 -23.447  0.00  0.00    +0.032 C 
ATOM      4  C   UNL     1      33.757  -8.509 -23.722  0.00  0.00    +0.004 C 
ATOM      5  C   UNL     1      33.244 -10.862 -24.073  0.00  0.00    +0.005 C 
ATOM      6  C   UNL     1      34.391  -9.895 -23.807  0.00  0.00    +0.000 C 
ATOM      7  C   UNL     1      31.386  -7.813 -22.923  0.00  0.00    +0.188 C 
ATOM      8  C   UNL     1      31.885 -10.372 -21.952  0.00  0.00    +0.045 C 
ATOM      9  C   UNL     1      31.750  -9.266 -21.099  0.00  0.00    +0.138 C 
ATOM     10  C   UNL     1      31.860 -11.658 -21.391  0.00  0.00    +0.133 C 
ATOM     11  C   UNL     1      31.658  -9.443 -19.716  0.00  0.00    +0.037 C 
ATOM     12  C   UNL     1      31.752 -11.833 -20.011  0.00  0.00    +0.036 C 
ATOM     13  C   UNL     1      31.658 -10.726 -19.173  0.00  0.00    +0.006 C 
ENDROOT
BRANCH   7  14
ATOM     14  C   UNL     1      31.485  -6.354 -23.329  0.00  0.00    +0.017 C 
ATOM     15  C   UNL     1      31.280  -5.350 -22.383  0.00  0.00    +0.002 C 
ATOM     16  C   UNL     1      31.781  -6.017 -24.650  0.00  0.00    +0.002 C 
ATOM     17  C   UNL     1      31.371  -4.010 -22.757  0.00  0.00    +0.036 C 
ATOM     18  C   UNL     1      31.872  -4.676 -25.024  0.00  0.00    +0.036 C 
ATOM     19  C   UNL     1      31.667  -3.673 -24.077  0.00  0.00    +0.134 C 
BRANCH  19  20
ATOM     20  O   UNL     1      31.756  -2.364 -24.443  0.00  0.00    -0.506 OA
ATOM     21  H   UNL     1      32.588  -1.933 -24.440  0.00  0.00    +0.292 HD
ENDBRANCH  19  20
ENDBRANCH   7  14
BRANCH  10  22
ATOM     22  O   UNL     1      31.882 -12.780 -22.169  0.00  0.00    -0.506 OA
ATOM     23  H   UNL     1      32.114 -13.606 -21.793  0.00  0.00    +0.292 HD
ENDBRANCH  10  22
TORSDOF 3
ENDMDL
MODEL 6
REMARK VINA RESULT:      -8.9      2.166      3.549
REMARK  Name = 16750074
REMARK  3 active torsions:
REMARK  status: ('A' for Active; 'I' for Inactive)
REMARK    1  A    between atoms: C_7  and  C_14
REMARK    2  A    between atoms: C_10  and  O_22
REMARK    3  A    between atoms: C_19  and  O_20
REMARK                            x       y       z     vdW  Elec       q    Type
REMARK                         _______ _______ _______ _____ _____    ______ ____
ROOT
ATOM      1  O   UNL     1      32.825 -14.175 -21.820  0.00  0.00    -0.475 OA
ATOM      2  C   UNL     1      34.196 -14.083 -23.856  0.00  0.00    +0.049 C 
ATOM      3  C   UNL     1      34.000 -12.566 -23.990  0.00  0.00    +0.032 C 
ATOM      4  C   UNL     1      33.132 -14.698 -24.786  0.00  0.00    +0.004 C 
ATOM      5  C   UNL     1      33.646 -12.421 -25.473  0.00  0.00    +0.005 C 
ATOM      6  C   UNL     1      32.731 -13.602 -25.770  0.00  0.00    +0.000 C 
ATOM      7  C   UNL     1      34.103 -14.502 -22.386  0.00  0.00    +0.188 C 
ATOM      8  C   UNL     1      32.950 -12.054 -23.031  0.00  0.00    +0.045 C 
ATOM      9  C   UNL     1      32.434 -12.875 -22.017  0.00  0.00    +0.138 C 
ATOM     10  C   UNL     1      32.495 -10.729 -23.117  0.00  0.00    +0.133 C 
ATOM     11  C   UNL     1      31.441 -12.401 -21.154  0.00  0.00    +0.037 C 
ATOM     12  C   UNL     1      31.516 -10.252 -22.243  0.00  0.00    +0.036 C 
ATOM     13  C   UNL     1      30.984 -11.090 -21.268  0.00  0.00    +0.006 C 
ENDROOT
BRANCH   7  14
ATOM     14  C   UNL     1      34.399 -15.978 -22.195  0.00  0.00    +0.017 C 
ATOM     15  C   UNL     1      35.341 -16.612 -23.005  0.00  0.00    +0.002 C 
ATOM     16  C   UNL     1      33.728 -16.702 -21.210  0.00  0.00    +0.002 C 
ATOM     17  C   UNL     1      35.613 -17.968 -22.830  0.00  0.00    +0.036 C 
ATOM     18  C   UNL     1      33.999 -18.059 -21.034  0.00  0.00    +0.036 C 
ATOM     19  C   UNL     1      34.941 -18.692 -21.845  0.00  0.00    +0.134 C 
BRANCH  19  20
ATOM     20  O   UNL     1      35.206 -20.016 -21.673  0.00  0.00    -0.506 OA
ATOM     21  H   UNL     1      34.550 -20.655 -21.871  0.00  0.00    +0.292 HD
ENDBRANCH  19  20
ENDBRANCH   7  14
BRANCH  10  22
ATOM     22  O   UNL     1      33.027  -9.845 -24.010  0.00  0.00    -0.506 OA
ATOM     23  H   UNL     1      33.283 -10.138 -24.862  0.00  0.00    +0.292 HD
ENDBRANCH  10  22
TORSDOF 3
ENDMDL
MODEL 7
REMARK VINA RESULT:      -8.8      3.374      6.118
REMARK  Name = 16750074
REMARK  3 active torsions:
REMARK  status: ('A' for Active; 'I' for Inactive)
REMARK    1  A    between atoms: C_7  and  C_14
REMARK    2  A    between atoms: C_10  and  O_22
REMARK    3  A    between atoms: C_19  and  O_20
REMARK                            x       y       z     vdW  Elec       q    Type
REMARK                         _______ _______ _______ _____ _____    ______ ____
ROOT
ATOM      1  O   UNL     1      34.195 -12.010 -23.862  0.00  0.00    -0.475 OA
ATOM      2  C   UNL     1      32.120 -12.814 -22.822  0.00  0.00    +0.049 C 
ATOM      3  C   UNL     1      31.495 -11.412 -22.845  0.00  0.00    +0.032 C 
ATOM      4  C   UNL     1      32.704 -12.959 -21.403  0.00  0.00    +0.004 C 
ATOM      5  C   UNL     1      30.931 -11.291 -21.426  0.00  0.00    +0.005 C 
ATOM      6  C   UNL     1      31.990 -11.926 -20.534  0.00  0.00    +0.000 C 
ATOM      7  C   UNL     1      33.128 -12.965 -23.965  0.00  0.00    +0.188 C 
ATOM      8  C   UNL     1      32.511 -10.357 -23.219  0.00  0.00    +0.045 C 
ATOM      9  C   UNL     1      33.780 -10.712 -23.700  0.00  0.00    +0.138 C 
ATOM     10  C   UNL     1      32.188  -8.994 -23.125  0.00  0.00    +0.133 C 
ATOM     11  C   UNL     1      34.722  -9.729 -24.015  0.00  0.00    +0.037 C 
ATOM     12  C   UNL     1      33.125  -8.014 -23.456  0.00  0.00    +0.036 C 
ATOM     13  C   UNL     1      34.393  -8.381 -23.894  0.00  0.00    +0.006 C 
ENDROOT
BRANCH   7  14
ATOM     14  C   UNL     1      33.690 -14.372 -24.047  0.00  0.00    +0.017 C 
ATOM     15  C   UNL     1      34.475 -14.872 -23.007  0.00  0.00    +0.002 C 
ATOM     16  C   UNL     1      33.422 -15.166 -25.162  0.00  0.00    +0.002 C 
ATOM     17  C   UNL     1      34.991 -16.165 -23.083  0.00  0.00    +0.036 C 
ATOM     18  C   UNL     1      33.938 -16.460 -25.237  0.00  0.00    +0.036 C 
ATOM     19  C   UNL     1      34.723 -16.959 -24.198  0.00  0.00    +0.134 C 
BRANCH  19  20
ATOM     20  O   UNL     1      35.227 -18.222 -24.271  0.00  0.00    -0.506 OA
ATOM     21  H   UNL     1      35.696 -18.495 -25.035  0.00  0.00    +0.292 HD
ENDBRANCH  19  20
ENDBRANCH   7  14
BRANCH  10  22
ATOM     22  O   UNL     1      30.939  -8.577 -22.765  0.00  0.00    -0.506 OA
ATOM     23  H   UNL     1      30.400  -9.124 -22.228  0.00  0.00    +0.292 HD
ENDBRANCH  10  22
TORSDOF 3
ENDMDL
MODEL 8
REMARK VINA RESULT:      -8.8      3.415      7.097
REMARK  Name = 16750074
REMARK  3 active torsions:
REMARK  status: ('A' for Active; 'I' for Inactive)
REMARK    1  A    between atoms: C_7  and  C_14
REMARK    2  A    between atoms: C_10  and  O_22
REMARK    3  A    between atoms: C_19  and  O_20
REMARK                            x       y       z     vdW  Elec       q    Type
REMARK                         _______ _______ _______ _____ _____    ______ ____
ROOT
ATOM      1  O   UNL     1      33.564 -13.892 -22.075  0.00  0.00    -0.475 OA
ATOM      2  C   UNL     1      32.510 -12.743 -23.973  0.00  0.00    +0.049 C 
ATOM      3  C   UNL     1      32.677 -13.969 -24.883  0.00  0.00    +0.032 C 
ATOM      4  C   UNL     1      33.720 -11.845 -24.301  0.00  0.00    +0.004 C 
ATOM      5  C   UNL     1      33.243 -13.342 -26.161  0.00  0.00    +0.005 C 
ATOM      6  C   UNL     1      34.228 -12.288 -25.671  0.00  0.00    +0.000 C 
ATOM      7  C   UNL     1      32.396 -13.181 -22.510  0.00  0.00    +0.188 C 
ATOM      8  C   UNL     1      33.556 -15.020 -24.244  0.00  0.00    +0.045 C 
ATOM      9  C   UNL     1      33.940 -14.922 -22.898  0.00  0.00    +0.138 C 
ATOM     10  C   UNL     1      33.977 -16.137 -24.982  0.00  0.00    +0.133 C 
ATOM     11  C   UNL     1      34.777 -15.884 -22.327  0.00  0.00    +0.037 C 
ATOM     12  C   UNL     1      34.799 -17.105 -24.404  0.00  0.00    +0.036 C 
ATOM     13  C   UNL     1      35.205 -16.975 -23.080  0.00  0.00    +0.006 C 
ENDROOT
BRANCH   7  14
ATOM     14  C   UNL     1      32.121 -12.008 -21.585  0.00  0.00    +0.017 C 
ATOM     15  C   UNL     1      32.067 -10.713 -22.099  0.00  0.00    +0.002 C 
ATOM     16  C   UNL     1      31.922 -12.227 -20.222  0.00  0.00    +0.002 C 
ATOM     17  C   UNL     1      31.814  -9.636 -21.249  0.00  0.00    +0.036 C 
ATOM     18  C   UNL     1      31.670 -11.151 -19.373  0.00  0.00    +0.036 C 
ATOM     19  C   UNL     1      31.616  -9.855 -19.886  0.00  0.00    +0.134 C 
BRANCH  19  20
ATOM     20  O   UNL     1      31.369  -8.804 -19.056  0.00  0.00    -0.506 OA
ATOM     21  H   UNL     1      30.520  -8.699 -18.673  0.00  0.00    +0.292 HD
ENDBRANCH  19  20
ENDBRANCH   7  14
BRANCH  10  22
ATOM     22  O   UNL     1      33.556 -16.350 -26.263  0.00  0.00    -0.506 OA
ATOM     23  H   UNL     1      32.669 -16.166 -26.501  0.00  0.00    +0.292 HD
ENDBRANCH  10  22
TORSDOF 3
ENDMDL
MODEL 9
REMARK VINA RESULT:      -8.8      5.342     10.348
REMARK  Name = 16750074
REMARK  3 active torsions:
REMARK  status: ('A' for Active; 'I' for Inactive)
REMARK    1  A    between atoms: C_7  and  C_14
REMARK    2  A    between atoms: C_10  and  O_22
REMARK    3  A    between atoms: C_19  and  O_20
REMARK                            x       y       z     vdW  Elec       q    Type
REMARK                         _______ _______ _______ _____ _____    ______ ____
ROOT
ATOM      1  O   UNL     1      31.827  -9.661 -22.022  0.00  0.00    -0.475 OA
ATOM      2  C   UNL     1      32.817  -9.296 -24.241  0.00  0.00    +0.049 C 
ATOM      3  C   UNL     1      32.949 -10.805 -24.494  0.00  0.00    +0.032 C 
ATOM      4  C   UNL     1      34.203  -8.864 -23.722  0.00  0.00    +0.004 C 
ATOM      5  C   UNL     1      34.383 -10.914 -25.021  0.00  0.00    +0.005 C 
ATOM      6  C   UNL     1      35.186  -9.945 -24.162  0.00  0.00    +0.000 C 
ATOM      7  C   UNL     1      31.646  -9.019 -23.293  0.00  0.00    +0.188 C 
ATOM      8  C   UNL     1      32.667 -11.605 -23.243  0.00  0.00    +0.045 C 
ATOM      9  C   UNL     1      32.129 -10.996 -22.100  0.00  0.00    +0.138 C 
ATOM     10  C   UNL     1      32.906 -12.988 -23.216  0.00  0.00    +0.133 C 
ATOM     11  C   UNL     1      31.899 -11.741 -20.939  0.00  0.00    +0.037 C 
ATOM     12  C   UNL     1      32.661 -13.733 -22.062  0.00  0.00    +0.036 C 
ATOM     13  C   UNL     1      32.165 -13.108 -20.922  0.00  0.00    +0.006 C 
ENDROOT
BRANCH   7  14
ATOM     14  C   UNL     1      31.410  -7.531 -23.100  0.00  0.00    +0.017 C 
ATOM     15  C   UNL     1      31.406  -6.986 -21.816  0.00  0.00    +0.002 C 
ATOM     16  C   UNL     1      31.197  -6.711 -24.207  0.00  0.00    +0.002 C 
ATOM     17  C   UNL     1      31.190  -5.619 -21.640  0.00  0.00    +0.036 C 
ATOM     18  C   UNL     1      30.980  -5.344 -24.031  0.00  0.00    +0.036 C 
ATOM     19  C   UNL     1      30.976  -4.799 -22.747  0.00  0.00    +0.134 C 
BRANCH  19  20
ATOM     20  O   UNL     1      30.765  -3.465 -22.575  0.00  0.00    -0.506 OA
ATOM     21  H   UNL     1      31.494  -2.883 -22.480  0.00  0.00    +0.292 HD
ENDBRANCH  19  20
ENDBRANCH   7  14
BRANCH  10  22
ATOM     22  O   UNL     1      33.330 -13.664 -24.324  0.00  0.00    -0.506 OA
ATOM     23  H   UNL     1      32.747 -14.248 -24.767  0.00  0.00    +0.292 HD
ENDBRANCH  10  22
TORSDOF 3
ENDMDL
