MODEL 1
REMARK VINA RESULT:      -6.8      0.000      0.000
REMARK  Name = 3581192
REMARK  6 active torsions:
REMARK  status: ('A' for Active; 'I' for Inactive)
REMARK    1  A    between atoms: N_1  and  C_3
REMARK    2  A    between atoms: N_1  and  C_12
REMARK    3  A    between atoms: C_4  and  N_11
REMARK    4  A    between atoms: C_12  and  C_13
REMARK    5  A    between atoms: C_13  and  C_14
REMARK    6  A    between atoms: C_14  and  N_15
REMARK                            x       y       z     vdW  Elec       q    Type
REMARK                         _______ _______ _______ _____ _____    ______ ____
ROOT
ATOM      1  N   UNL     1      36.275 -21.773 -19.278  0.00  0.00    -0.331 N 
ATOM      2  H   UNL     1      36.590 -22.577 -19.751  0.00  0.00    +0.147 HD
ENDROOT
BRANCH   1   3
ATOM      3  C   UNL     1      35.334 -20.972 -19.905  0.00  0.00    +0.067 C 
ATOM      4  C   UNL     1      33.958 -21.274 -19.878  0.00  0.00    +0.156 C 
ATOM      5  C   UNL     1      35.745 -19.816 -20.597  0.00  0.00    +0.016 C 
ATOM      6  C   UNL     1      33.030 -20.452 -20.516  0.00  0.00    +0.025 C 
ATOM      7  C   UNL     1      34.817 -18.994 -21.236  0.00  0.00    +0.001 C 
ATOM      8  C   UNL     1      33.460 -19.312 -21.196  0.00  0.00    +0.002 C 
BRANCH   4  11
ATOM      9  O   UNL     1      32.582 -22.303 -18.339  0.00  0.00    -0.126 OA
ATOM     10  O   UNL     1      34.004 -23.542 -19.461  0.00  0.00    -0.126 OA
ATOM     11  N   UNL     1      33.492 -22.431 -19.191  0.00  0.00    +0.059 N 
ENDBRANCH   4  11
ENDBRANCH   1   3
BRANCH   1  12
ATOM     12  C   UNL     1      36.819 -21.496 -17.970  0.00  0.00    +0.085 C 
BRANCH  12  13
ATOM     13  C   UNL     1      36.202 -22.411 -16.915  0.00  0.00    -0.003 C 
BRANCH  13  14
ATOM     14  C   UNL     1      37.042 -22.483 -15.639  0.00  0.00    -0.084 C 
BRANCH  14  15
ATOM     15  N   UNL     1      38.044 -23.537 -15.754  0.00  0.00    +0.380 N 
ATOM     16  H   UNL     1      38.884 -23.161 -16.195  0.00  0.00    -0.089 HD
ATOM     17  H   UNL     1      37.673 -24.299 -16.322  0.00  0.00    -0.089 HD
ATOM     18  H   UNL     1      38.276 -23.889 -14.825  0.00  0.00    -0.089 HD
ENDBRANCH  14  15
ENDBRANCH  13  14
ENDBRANCH  12  13
ENDBRANCH   1  12
TORSDOF 6
ENDMDL
MODEL 2
REMARK VINA RESULT:      -6.7      6.157      7.808
REMARK  Name = 3581192
REMARK  6 active torsions:
REMARK  status: ('A' for Active; 'I' for Inactive)
REMARK    1  A    between atoms: N_1  and  C_3
REMARK    2  A    between atoms: N_1  and  C_12
REMARK    3  A    between atoms: C_4  and  N_11
REMARK    4  A    between atoms: C_12  and  C_13
REMARK    5  A    between atoms: C_13  and  C_14
REMARK    6  A    between atoms: C_14  and  N_15
REMARK                            x       y       z     vdW  Elec       q    Type
REMARK                         _______ _______ _______ _____ _____    ______ ____
ROOT
ATOM      1  N   UNL     1      34.865 -15.370 -22.072  0.00  0.00    -0.331 N 
ATOM      2  H   UNL     1      35.270 -14.786 -22.753  0.00  0.00    +0.147 HD
ENDROOT
BRANCH   1   3
ATOM      3  C   UNL     1      34.884 -16.739 -22.288  0.00  0.00    +0.067 C 
ATOM      4  C   UNL     1      34.636 -17.299 -23.557  0.00  0.00    +0.156 C 
ATOM      5  C   UNL     1      35.159 -17.614 -21.219  0.00  0.00    +0.016 C 
ATOM      6  C   UNL     1      34.661 -18.680 -23.749  0.00  0.00    +0.025 C 
ATOM      7  C   UNL     1      35.185 -18.995 -21.411  0.00  0.00    +0.001 C 
ATOM      8  C   UNL     1      34.936 -19.528 -22.676  0.00  0.00    +0.002 C 
BRANCH   4  11
ATOM      9  O   UNL     1      33.531 -15.522 -24.525  0.00  0.00    -0.126 OA
ATOM     10  O   UNL     1      34.934 -16.675 -25.757  0.00  0.00    -0.126 OA
ATOM     11  N   UNL     1      34.353 -16.457 -24.669  0.00  0.00    +0.059 N 
ENDBRANCH   4  11
ENDBRANCH   1   3
BRANCH   1  12
ATOM     12  C   UNL     1      34.282 -14.752 -20.905  0.00  0.00    +0.085 C 
BRANCH  12  13
ATOM     13  C   UNL     1      32.763 -14.658 -21.036  0.00  0.00    -0.003 C 
BRANCH  13  14
ATOM     14  C   UNL     1      32.302 -13.287 -21.532  0.00  0.00    -0.084 C 
BRANCH  14  15
ATOM     15  N   UNL     1      32.043 -13.330 -22.967  0.00  0.00    +0.380 N 
ATOM     16  H   UNL     1      32.551 -14.113 -23.380  0.00  0.00    -0.089 HD
ATOM     17  H   UNL     1      32.357 -12.458 -23.395  0.00  0.00    -0.089 HD
ATOM     18  H   UNL     1      31.044 -13.448 -23.130  0.00  0.00    -0.089 HD
ENDBRANCH  14  15
ENDBRANCH  13  14
ENDBRANCH  12  13
ENDBRANCH   1  12
TORSDOF 6
ENDMDL
MODEL 3
REMARK VINA RESULT:      -6.6      3.919      5.257
REMARK  Name = 3581192
REMARK  6 active torsions:
REMARK  status: ('A' for Active; 'I' for Inactive)
REMARK    1  A    between atoms: N_1  and  C_3
REMARK    2  A    between atoms: N_1  and  C_12
REMARK    3  A    between atoms: C_4  and  N_11
REMARK    4  A    between atoms: C_12  and  C_13
REMARK    5  A    between atoms: C_13  and  C_14
REMARK    6  A    between atoms: C_14  and  N_15
REMARK                            x       y       z     vdW  Elec       q    Type
REMARK                         _______ _______ _______ _____ _____    ______ ____
ROOT
ATOM      1  N   UNL     1      34.560 -18.991 -21.121  0.00  0.00    -0.331 N 
ATOM      2  H   UNL     1      33.815 -18.791 -20.509  0.00  0.00    +0.147 HD
ENDROOT
BRANCH   1   3
ATOM      3  C   UNL     1      34.615 -18.314 -22.329  0.00  0.00    +0.067 C 
ATOM      4  C   UNL     1      34.580 -16.908 -22.399  0.00  0.00    +0.156 C 
ATOM      5  C   UNL     1      34.708 -19.036 -23.534  0.00  0.00    +0.016 C 
ATOM      6  C   UNL     1      34.637 -16.249 -23.627  0.00  0.00    +0.025 C 
ATOM      7  C   UNL     1      34.765 -18.378 -24.762  0.00  0.00    +0.001 C 
ATOM      8  C   UNL     1      34.729 -16.985 -24.809  0.00  0.00    +0.002 C 
BRANCH   4  11
ATOM      9  O   UNL     1      35.233 -16.416 -20.243  0.00  0.00    -0.126 OA
ATOM     10  O   UNL     1      33.660 -15.192 -21.163  0.00  0.00    -0.126 OA
ATOM     11  N   UNL     1      34.486 -16.133 -21.209  0.00  0.00    +0.059 N 
ENDBRANCH   4  11
ENDBRANCH   1   3
BRANCH   1  12
ATOM     12  C   UNL     1      35.533 -19.975 -20.708  0.00  0.00    +0.085 C 
BRANCH  12  13
ATOM     13  C   UNL     1      34.881 -21.074 -19.872  0.00  0.00    -0.003 C 
BRANCH  13  14
ATOM     14  C   UNL     1      33.357 -20.957 -19.837  0.00  0.00    -0.084 C 
BRANCH  14  15
ATOM     15  N   UNL     1      32.790 -21.996 -18.986  0.00  0.00    +0.380 N 
ATOM     16  H   UNL     1      32.276 -22.664 -19.561  0.00  0.00    -0.089 HD
ATOM     17  H   UNL     1      32.156 -21.573 -18.308  0.00  0.00    -0.089 HD
ATOM     18  H   UNL     1      33.540 -22.479 -18.493  0.00  0.00    -0.089 HD
ENDBRANCH  14  15
ENDBRANCH  13  14
ENDBRANCH  12  13
ENDBRANCH   1  12
TORSDOF 6
ENDMDL
MODEL 4
REMARK VINA RESULT:      -6.6      4.660      6.041
REMARK  Name = 3581192
REMARK  6 active torsions:
REMARK  status: ('A' for Active; 'I' for Inactive)
REMARK    1  A    between atoms: N_1  and  C_3
REMARK    2  A    between atoms: N_1  and  C_12
REMARK    3  A    between atoms: C_4  and  N_11
REMARK    4  A    between atoms: C_12  and  C_13
REMARK    5  A    between atoms: C_13  and  C_14
REMARK    6  A    between atoms: C_14  and  N_15
REMARK                            x       y       z     vdW  Elec       q    Type
REMARK                         _______ _______ _______ _____ _____    ______ ____
ROOT
ATOM      1  N   UNL     1      35.343 -18.439 -22.257  0.00  0.00    -0.331 N 
ATOM      2  H   UNL     1      35.300 -18.991 -23.070  0.00  0.00    +0.147 HD
ENDROOT
BRANCH   1   3
ATOM      3  C   UNL     1      34.926 -17.119 -22.339  0.00  0.00    +0.067 C 
ATOM      4  C   UNL     1      34.554 -16.528 -23.562  0.00  0.00    +0.156 C 
ATOM      5  C   UNL     1      34.867 -16.329 -21.174  0.00  0.00    +0.016 C 
ATOM      6  C   UNL     1      34.137 -15.198 -23.618  0.00  0.00    +0.025 C 
ATOM      7  C   UNL     1      34.450 -14.999 -21.231  0.00  0.00    +0.001 C 
ATOM      8  C   UNL     1      34.086 -14.434 -22.453  0.00  0.00    +0.002 C 
BRANCH   4  11
ATOM      9  O   UNL     1      35.010 -16.734 -25.812  0.00  0.00    -0.126 OA
ATOM     10  O   UNL     1      34.222 -18.480 -24.743  0.00  0.00    -0.126 OA
ATOM     11  N   UNL     1      34.597 -17.285 -24.766  0.00  0.00    +0.059 N 
ENDBRANCH   4  11
ENDBRANCH   1   3
BRANCH   1  12
ATOM     12  C   UNL     1      35.838 -19.049 -21.045  0.00  0.00    +0.085 C 
BRANCH  12  13
ATOM     13  C   UNL     1      34.967 -20.234 -20.634  0.00  0.00    -0.003 C 
BRANCH  13  14
ATOM     14  C   UNL     1      33.472 -19.925 -20.734  0.00  0.00    -0.084 C 
BRANCH  14  15
ATOM     15  N   UNL     1      32.731 -20.688 -19.737  0.00  0.00    +0.380 N 
ATOM     16  H   UNL     1      33.339 -21.401 -19.333  0.00  0.00    -0.089 HD
ATOM     17  H   UNL     1      31.929 -21.138 -20.180  0.00  0.00    -0.089 HD
ATOM     18  H   UNL     1      32.405 -20.062 -19.002  0.00  0.00    -0.089 HD
ENDBRANCH  14  15
ENDBRANCH  13  14
ENDBRANCH  12  13
ENDBRANCH   1  12
TORSDOF 6
ENDMDL
MODEL 5
REMARK VINA RESULT:      -6.5      6.240      8.344
REMARK  Name = 3581192
REMARK  6 active torsions:
REMARK  status: ('A' for Active; 'I' for Inactive)
REMARK    1  A    between atoms: N_1  and  C_3
REMARK    2  A    between atoms: N_1  and  C_12
REMARK    3  A    between atoms: C_4  and  N_11
REMARK    4  A    between atoms: C_12  and  C_13
REMARK    5  A    between atoms: C_13  and  C_14
REMARK    6  A    between atoms: C_14  and  N_15
REMARK                            x       y       z     vdW  Elec       q    Type
REMARK                         _______ _______ _______ _____ _____    ______ ____
ROOT
ATOM      1  N   UNL     1      34.914 -15.328 -23.262  0.00  0.00    -0.331 N 
ATOM      2  H   UNL     1      35.601 -15.008 -23.890  0.00  0.00    +0.147 HD
ENDROOT
BRANCH   1   3
ATOM      3  C   UNL     1      34.916 -16.670 -22.918  0.00  0.00    +0.067 C 
ATOM      4  C   UNL     1      34.672 -17.685 -23.864  0.00  0.00    +0.156 C 
ATOM      5  C   UNL     1      35.167 -17.052 -21.585  0.00  0.00    +0.016 C 
ATOM      6  C   UNL     1      34.679 -19.029 -23.492  0.00  0.00    +0.025 C 
ATOM      7  C   UNL     1      35.173 -18.396 -21.214  0.00  0.00    +0.001 C 
ATOM      8  C   UNL     1      34.930 -19.385 -22.167  0.00  0.00    +0.002 C 
BRANCH   4  11
ATOM      9  O   UNL     1      35.205 -16.583 -25.818  0.00  0.00    -0.126 OA
ATOM     10  O   UNL     1      33.401 -17.833 -25.783  0.00  0.00    -0.126 OA
ATOM     11  N   UNL     1      34.413 -17.350 -25.223  0.00  0.00    +0.059 N 
ENDBRANCH   4  11
ENDBRANCH   1   3
BRANCH   1  12
ATOM     12  C   UNL     1      33.961 -14.371 -22.753  0.00  0.00    +0.085 C 
BRANCH  12  13
ATOM     13  C   UNL     1      32.773 -14.222 -23.702  0.00  0.00    -0.003 C 
BRANCH  13  14
ATOM     14  C   UNL     1      33.200 -13.826 -25.116  0.00  0.00    -0.084 C 
BRANCH  14  15
ATOM     15  N   UNL     1      32.583 -14.712 -26.097  0.00  0.00    +0.380 N 
ATOM     16  H   UNL     1      31.959 -14.172 -26.697  0.00  0.00    -0.089 HD
ATOM     17  H   UNL     1      32.048 -15.435 -25.614  0.00  0.00    -0.089 HD
ATOM     18  H   UNL     1      33.308 -15.149 -26.665  0.00  0.00    -0.089 HD
ENDBRANCH  14  15
ENDBRANCH  13  14
ENDBRANCH  12  13
ENDBRANCH   1  12
TORSDOF 6
ENDMDL
MODEL 6
REMARK VINA RESULT:      -6.5      4.870      6.962
REMARK  Name = 3581192
REMARK  6 active torsions:
REMARK  status: ('A' for Active; 'I' for Inactive)
REMARK    1  A    between atoms: N_1  and  C_3
REMARK    2  A    between atoms: N_1  and  C_12
REMARK    3  A    between atoms: C_4  and  N_11
REMARK    4  A    between atoms: C_12  and  C_13
REMARK    5  A    between atoms: C_13  and  C_14
REMARK    6  A    between atoms: C_14  and  N_15
REMARK                            x       y       z     vdW  Elec       q    Type
REMARK                         _______ _______ _______ _____ _____    ______ ____
ROOT
ATOM      1  N   UNL     1      34.842 -16.196 -21.323  0.00  0.00    -0.331 N 
ATOM      2  H   UNL     1      35.185 -16.643 -20.517  0.00  0.00    +0.147 HD
ENDROOT
BRANCH   1   3
ATOM      3  C   UNL     1      34.781 -16.924 -22.501  0.00  0.00    +0.067 C 
ATOM      4  C   UNL     1      34.793 -18.333 -22.510  0.00  0.00    +0.156 C 
ATOM      5  C   UNL     1      34.703 -16.254 -23.737  0.00  0.00    +0.016 C 
ATOM      6  C   UNL     1      34.730 -19.043 -23.707  0.00  0.00    +0.025 C 
ATOM      7  C   UNL     1      34.641 -16.964 -24.935  0.00  0.00    +0.001 C 
ATOM      8  C   UNL     1      34.654 -18.359 -24.921  0.00  0.00    +0.002 C 
BRANCH   4  11
ATOM      9  O   UNL     1      35.864 -18.882 -20.543  0.00  0.00    -0.126 OA
ATOM     10  O   UNL     1      33.942 -19.843 -20.988  0.00  0.00    -0.126 OA
ATOM     11  N   UNL     1      34.870 -19.056 -21.286  0.00  0.00    +0.059 N 
ENDBRANCH   4  11
ENDBRANCH   1   3
BRANCH   1  12
ATOM     12  C   UNL     1      34.432 -14.816 -21.212  0.00  0.00    +0.085 C 
BRANCH  12  13
ATOM     13  C   UNL     1      32.968 -14.713 -20.788  0.00  0.00    -0.003 C 
BRANCH  13  14
ATOM     14  C   UNL     1      32.330 -13.386 -21.202  0.00  0.00    -0.084 C 
BRANCH  14  15
ATOM     15  N   UNL     1      32.047 -13.387 -22.633  0.00  0.00    +0.380 N 
ATOM     16  H   UNL     1      32.222 -12.456 -23.014  0.00  0.00    -0.089 HD
ATOM     17  H   UNL     1      31.071 -13.640 -22.787  0.00  0.00    -0.089 HD
ATOM     18  H   UNL     1      32.651 -14.064 -23.099  0.00  0.00    -0.089 HD
ENDBRANCH  14  15
ENDBRANCH  13  14
ENDBRANCH  12  13
ENDBRANCH   1  12
TORSDOF 6
ENDMDL
MODEL 7
REMARK VINA RESULT:      -6.4      5.747      8.100
REMARK  Name = 3581192
REMARK  6 active torsions:
REMARK  status: ('A' for Active; 'I' for Inactive)
REMARK    1  A    between atoms: N_1  and  C_3
REMARK    2  A    between atoms: N_1  and  C_12
REMARK    3  A    between atoms: C_4  and  N_11
REMARK    4  A    between atoms: C_12  and  C_13
REMARK    5  A    between atoms: C_13  and  C_14
REMARK    6  A    between atoms: C_14  and  N_15
REMARK                            x       y       z     vdW  Elec       q    Type
REMARK                         _______ _______ _______ _____ _____    ______ ____
ROOT
ATOM      1  N   UNL     1      34.537 -15.360 -23.672  0.00  0.00    -0.331 N 
ATOM      2  H   UNL     1      35.267 -14.738 -23.451  0.00  0.00    +0.147 HD
ENDROOT
BRANCH   1   3
ATOM      3  C   UNL     1      34.613 -16.657 -23.189  0.00  0.00    +0.067 C 
ATOM      4  C   UNL     1      34.367 -16.967 -21.837  0.00  0.00    +0.156 C 
ATOM      5  C   UNL     1      34.944 -17.712 -24.062  0.00  0.00    +0.016 C 
ATOM      6  C   UNL     1      34.449 -18.280 -21.376  0.00  0.00    +0.025 C 
ATOM      7  C   UNL     1      35.026 -19.025 -23.600  0.00  0.00    +0.001 C 
ATOM      8  C   UNL     1      34.779 -19.309 -22.258  0.00  0.00    +0.002 C 
BRANCH   4  11
ATOM      9  O   UNL     1      34.944 -15.387 -20.260  0.00  0.00    -0.126 OA
ATOM     10  O   UNL     1      32.826 -15.608 -20.790  0.00  0.00    -0.126 OA
ATOM     11  N   UNL     1      34.028 -15.936 -20.916  0.00  0.00    +0.059 N 
ENDBRANCH   4  11
ENDBRANCH   1   3
BRANCH   1  12
ATOM     12  C   UNL     1      33.446 -14.868 -24.480  0.00  0.00    +0.085 C 
BRANCH  12  13
ATOM     13  C   UNL     1      33.444 -13.342 -24.527  0.00  0.00    -0.003 C 
BRANCH  13  14
ATOM     14  C   UNL     1      33.132 -12.715 -23.168  0.00  0.00    -0.084 C 
BRANCH  14  15
ATOM     15  N   UNL     1      31.944 -13.331 -22.588  0.00  0.00    +0.380 N 
ATOM     16  H   UNL     1      32.144 -13.618 -21.630  0.00  0.00    -0.089 HD
ATOM     17  H   UNL     1      31.680 -14.147 -23.140  0.00  0.00    -0.089 HD
ATOM     18  H   UNL     1      31.177 -12.658 -22.589  0.00  0.00    -0.089 HD
ENDBRANCH  14  15
ENDBRANCH  13  14
ENDBRANCH  12  13
ENDBRANCH   1  12
TORSDOF 6
ENDMDL
MODEL 8
REMARK VINA RESULT:      -6.3      5.666      7.783
REMARK  Name = 3581192
REMARK  6 active torsions:
REMARK  status: ('A' for Active; 'I' for Inactive)
REMARK    1  A    between atoms: N_1  and  C_3
REMARK    2  A    between atoms: N_1  and  C_12
REMARK    3  A    between atoms: C_4  and  N_11
REMARK    4  A    between atoms: C_12  and  C_13
REMARK    5  A    between atoms: C_13  and  C_14
REMARK    6  A    between atoms: C_14  and  N_15
REMARK                            x       y       z     vdW  Elec       q    Type
REMARK                         _______ _______ _______ _____ _____    ______ ____
ROOT
ATOM      1  N   UNL     1      35.569 -23.146 -13.893  0.00  0.00    -0.331 N 
ATOM      2  H   UNL     1      35.158 -22.758 -13.087  0.00  0.00    +0.147 HD
ENDROOT
BRANCH   1   3
ATOM      3  C   UNL     1      36.684 -23.954 -13.735  0.00  0.00    +0.067 C 
ATOM      4  C   UNL     1      36.956 -24.627 -12.528  0.00  0.00    +0.156 C 
ATOM      5  C   UNL     1      37.587 -24.119 -14.804  0.00  0.00    +0.016 C 
ATOM      6  C   UNL     1      38.085 -25.433 -12.394  0.00  0.00    +0.025 C 
ATOM      7  C   UNL     1      38.716 -24.926 -14.670  0.00  0.00    +0.001 C 
ATOM      8  C   UNL     1      38.965 -25.583 -13.466  0.00  0.00    +0.002 C 
BRANCH   4  11
ATOM      9  O   UNL     1      34.887 -24.877 -11.539  0.00  0.00    -0.126 OA
ATOM     10  O   UNL     1      36.510 -23.992 -10.356  0.00  0.00    -0.126 OA
ATOM     11  N   UNL     1      36.073 -24.491 -11.419  0.00  0.00    +0.059 N 
ENDBRANCH   4  11
ENDBRANCH   1   3
BRANCH   1  12
ATOM     12  C   UNL     1      34.974 -22.843 -15.173  0.00  0.00    +0.085 C 
BRANCH  12  13
ATOM     13  C   UNL     1      33.687 -23.639 -15.381  0.00  0.00    -0.003 C 
BRANCH  13  14
ATOM     14  C   UNL     1      32.844 -23.733 -14.108  0.00  0.00    -0.084 C 
BRANCH  14  15
ATOM     15  N   UNL     1      32.698 -25.127 -13.702  0.00  0.00    +0.380 N 
ATOM     16  H   UNL     1      33.189 -25.277 -12.820  0.00  0.00    -0.089 HD
ATOM     17  H   UNL     1      33.094 -25.734 -14.420  0.00  0.00    -0.089 HD
ATOM     18  H   UNL     1      31.709 -25.344 -13.581  0.00  0.00    -0.089 HD
ENDBRANCH  14  15
ENDBRANCH  13  14
ENDBRANCH  12  13
ENDBRANCH   1  12
TORSDOF 6
ENDMDL
MODEL 9
REMARK VINA RESULT:      -6.3      8.509     10.220
REMARK  Name = 3581192
REMARK  6 active torsions:
REMARK  status: ('A' for Active; 'I' for Inactive)
REMARK    1  A    between atoms: N_1  and  C_3
REMARK    2  A    between atoms: N_1  and  C_12
REMARK    3  A    between atoms: C_4  and  N_11
REMARK    4  A    between atoms: C_12  and  C_13
REMARK    5  A    between atoms: C_13  and  C_14
REMARK    6  A    between atoms: C_14  and  N_15
REMARK                            x       y       z     vdW  Elec       q    Type
REMARK                         _______ _______ _______ _____ _____    ______ ____
ROOT
ATOM      1  N   UNL     1      31.655 -12.598 -22.249  0.00  0.00    -0.331 N 
ATOM      2  H   UNL     1      30.876 -12.827 -22.807  0.00  0.00    +0.147 HD
ENDROOT
BRANCH   1   3
ATOM      3  C   UNL     1      32.624 -13.568 -22.048  0.00  0.00    +0.067 C 
ATOM      4  C   UNL     1      33.506 -13.968 -23.071  0.00  0.00    +0.156 C 
ATOM      5  C   UNL     1      32.747 -14.185 -20.788  0.00  0.00    +0.016 C 
ATOM      6  C   UNL     1      34.473 -14.946 -22.844  0.00  0.00    +0.025 C 
ATOM      7  C   UNL     1      33.714 -15.164 -20.560  0.00  0.00    +0.001 C 
ATOM      8  C   UNL     1      34.577 -15.544 -21.588  0.00  0.00    +0.002 C 
BRANCH   4  11
ATOM      9  O   UNL     1      33.861 -12.212 -24.523  0.00  0.00    -0.126 OA
ATOM     10  O   UNL     1      32.910 -14.031 -25.298  0.00  0.00    -0.126 OA
ATOM     11  N   UNL     1      33.421 -13.374 -24.362  0.00  0.00    +0.059 N 
ENDBRANCH   4  11
ENDBRANCH   1   3
BRANCH   1  12
ATOM     12  C   UNL     1      31.722 -11.270 -21.688  0.00  0.00    +0.085 C 
BRANCH  12  13
ATOM     13  C   UNL     1      30.750 -11.119 -20.520  0.00  0.00    -0.003 C 
BRANCH  13  14
ATOM     14  C   UNL     1      31.466 -10.913 -19.185  0.00  0.00    -0.084 C 
BRANCH  14  15
ATOM     15  N   UNL     1      32.207  -9.656 -19.198  0.00  0.00    +0.380 N 
ATOM     16  H   UNL     1      31.857  -9.063 -19.950  0.00  0.00    -0.089 HD
ATOM     17  H   UNL     1      33.198  -9.848 -19.349  0.00  0.00    -0.089 HD
ATOM     18  H   UNL     1      32.086  -9.181 -18.304  0.00  0.00    -0.089 HD
ENDBRANCH  14  15
ENDBRANCH  13  14
ENDBRANCH  12  13
ENDBRANCH   1  12
TORSDOF 6
ENDMDL
