MODEL 1
REMARK VINA RESULT:      -9.3      0.000      0.000
REMARK  Name = 4369435
REMARK  7 active torsions:
REMARK  status: ('A' for Active; 'I' for Inactive)
REMARK    1  A    between atoms: N_2  and  C_25
REMARK    2  A    between atoms: C_5  and  C_13
REMARK    3  A    between atoms: C_7  and  C_19
REMARK    4  A    between atoms: C_25  and  C_26
REMARK    5  A    between atoms: C_26  and  O_27
REMARK    6  A    between atoms: C_26  and  C_29
REMARK    7  A    between atoms: C_29  and  O_30
REMARK                            x       y       z     vdW  Elec       q    Type
REMARK                         _______ _______ _______ _____ _____    ______ ____
ROOT
ATOM      1  N   UNL     1      31.959 -10.619 -21.874  0.00  0.00    -0.301 N 
ATOM      2  N   UNL     1      34.213 -14.279 -23.700  0.00  0.00    -0.319 N 
ATOM      3  N   UNL     1      31.780 -12.678 -20.633  0.00  0.00    -0.233 NA
ATOM      4  N   UNL     1      32.990 -14.520 -21.669  0.00  0.00    -0.233 NA
ATOM      5  C   UNL     1      33.239 -11.279 -23.571  0.00  0.00    +0.005 C 
ATOM      6  C   UNL     1      33.024 -12.390 -22.716  0.00  0.00    +0.131 C 
ATOM      7  C   UNL     1      32.571 -10.202 -23.027  0.00  0.00    +0.046 C 
ATOM      8  C   UNL     1      32.223 -11.947 -21.670  0.00  0.00    +0.117 C 
ATOM      9  C   UNL     1      33.417 -13.739 -22.703  0.00  0.00    +0.113 C 
ATOM     10  C   UNL     1      32.213 -13.953 -20.718  0.00  0.00    +0.252 C 
ATOM     11  H   UNL     1      31.413 -10.051 -21.283  0.00  0.00    +0.153 HD
ATOM     12  H   UNL     1      34.504 -13.689 -24.433  0.00  0.00    +0.148 HD
ENDROOT
BRANCH   5  13
ATOM     13  C   UNL     1      33.994 -11.196 -24.792  0.00  0.00    -0.002 C 
ATOM     14  C   UNL     1      33.638 -11.988 -25.884  0.00  0.00    -0.000 C 
ATOM     15  C   UNL     1      35.077 -10.325 -24.884  0.00  0.00    -0.000 C 
ATOM     16  C   UNL     1      34.370 -11.909 -27.069  0.00  0.00    -0.000 C 
ATOM     17  C   UNL     1      35.809 -10.245 -26.069  0.00  0.00    -0.000 C 
ATOM     18  C   UNL     1      35.455 -11.036 -27.161  0.00  0.00    -0.000 C 
ENDBRANCH   5  13
BRANCH   7  19
ATOM     19  C   UNL     1      32.452  -8.833 -23.480  0.00  0.00    +0.013 C 
ATOM     20  C   UNL     1      33.562  -7.993 -23.451  0.00  0.00    +0.001 C 
ATOM     21  C   UNL     1      31.226  -8.361 -23.942  0.00  0.00    +0.001 C 
ATOM     22  C   UNL     1      33.445  -6.673 -23.887  0.00  0.00    +0.000 C 
ATOM     23  C   UNL     1      31.109  -7.041 -24.378  0.00  0.00    +0.000 C 
ATOM     24  C   UNL     1      32.219  -6.197 -24.351  0.00  0.00    +0.000 C 
ENDBRANCH   7  19
BRANCH   2  25
ATOM     25  C   UNL     1      34.640 -15.659 -23.725  0.00  0.00    +0.120 C 
BRANCH  25  26
ATOM     26  C   UNL     1      33.958 -16.431 -24.854  0.00  0.00    +0.159 C 
BRANCH  26  27
ATOM     27  O   UNL     1      34.104 -15.716 -26.081  0.00  0.00    -0.380 OA
ATOM     28  H   UNL     1      35.005 -15.363 -26.145  0.00  0.00    +0.211 HD
ENDBRANCH  26  27
BRANCH  26  29
ATOM     29  C   UNL     1      34.517 -17.839 -25.044  0.00  0.00    +0.168 C 
BRANCH  29  30
ATOM     30  O   UNL     1      35.552 -18.055 -24.089  0.00  0.00    -0.379 OA
ATOM     31  H   UNL     1      35.261 -17.734 -23.220  0.00  0.00    +0.211 HD
ENDBRANCH  29  30
ENDBRANCH  26  29
ENDBRANCH  25  26
ENDBRANCH   2  25
TORSDOF 7
ENDMDL
MODEL 2
REMARK VINA RESULT:      -9.3      0.025      1.315
REMARK  Name = 4369435
REMARK  7 active torsions:
REMARK  status: ('A' for Active; 'I' for Inactive)
REMARK    1  A    between atoms: N_2  and  C_25
REMARK    2  A    between atoms: C_5  and  C_13
REMARK    3  A    between atoms: C_7  and  C_19
REMARK    4  A    between atoms: C_25  and  C_26
REMARK    5  A    between atoms: C_26  and  O_27
REMARK    6  A    between atoms: C_26  and  C_29
REMARK    7  A    between atoms: C_29  and  O_30
REMARK                            x       y       z     vdW  Elec       q    Type
REMARK                         _______ _______ _______ _____ _____    ______ ____
ROOT
ATOM      1  N   UNL     1      31.955 -10.632 -21.856  0.00  0.00    -0.301 N 
ATOM      2  N   UNL     1      34.193 -14.292 -23.700  0.00  0.00    -0.319 N 
ATOM      3  N   UNL     1      31.780 -12.693 -20.617  0.00  0.00    -0.233 NA
ATOM      4  N   UNL     1      32.982 -14.535 -21.663  0.00  0.00    -0.233 NA
ATOM      5  C   UNL     1      33.224 -11.291 -23.562  0.00  0.00    +0.005 C 
ATOM      6  C   UNL     1      33.013 -12.403 -22.707  0.00  0.00    +0.131 C 
ATOM      7  C   UNL     1      32.561 -10.214 -23.012  0.00  0.00    +0.046 C 
ATOM      8  C   UNL     1      32.219 -11.960 -21.656  0.00  0.00    +0.117 C 
ATOM      9  C   UNL     1      33.405 -13.753 -22.698  0.00  0.00    +0.113 C 
ATOM     10  C   UNL     1      32.212 -13.968 -20.707  0.00  0.00    +0.252 C 
ATOM     11  H   UNL     1      31.413 -10.064 -21.261  0.00  0.00    +0.153 HD
ATOM     12  H   UNL     1      34.481 -13.701 -24.434  0.00  0.00    +0.148 HD
ENDROOT
BRANCH   5  13
ATOM     13  C   UNL     1      33.972 -11.208 -24.787  0.00  0.00    -0.002 C 
ATOM     14  C   UNL     1      35.055 -10.335 -24.882  0.00  0.00    -0.000 C 
ATOM     15  C   UNL     1      33.614 -12.000 -25.877  0.00  0.00    -0.000 C 
ATOM     16  C   UNL     1      35.781 -10.253 -26.071  0.00  0.00    -0.000 C 
ATOM     17  C   UNL     1      34.339 -11.918 -27.066  0.00  0.00    -0.000 C 
ATOM     18  C   UNL     1      35.423 -11.045 -27.162  0.00  0.00    -0.000 C 
ENDBRANCH   5  13
BRANCH   7  19
ATOM     19  C   UNL     1      32.441  -8.845 -23.463  0.00  0.00    +0.013 C 
ATOM     20  C   UNL     1      31.216  -8.370 -23.923  0.00  0.00    +0.001 C 
ATOM     21  C   UNL     1      33.553  -8.006 -23.436  0.00  0.00    +0.001 C 
ATOM     22  C   UNL     1      31.102  -7.049 -24.358  0.00  0.00    +0.000 C 
ATOM     23  C   UNL     1      33.439  -6.686 -23.871  0.00  0.00    +0.000 C 
ATOM     24  C   UNL     1      32.213  -6.207 -24.332  0.00  0.00    +0.000 C 
ENDBRANCH   7  19
BRANCH   2  25
ATOM     25  C   UNL     1      34.619 -15.673 -23.731  0.00  0.00    +0.120 C 
BRANCH  25  26
ATOM     26  C   UNL     1      33.947 -16.437 -24.872  0.00  0.00    +0.159 C 
BRANCH  26  27
ATOM     27  O   UNL     1      34.086 -15.702 -26.088  0.00  0.00    -0.380 OA
ATOM     28  H   UNL     1      33.279 -15.797 -26.617  0.00  0.00    +0.211 HD
ENDBRANCH  26  27
BRANCH  26  29
ATOM     29  C   UNL     1      34.522 -17.835 -25.081  0.00  0.00    +0.168 C 
BRANCH  29  30
ATOM     30  O   UNL     1      35.550 -18.057 -24.119  0.00  0.00    -0.379 OA
ATOM     31  H   UNL     1      35.939 -18.935 -24.260  0.00  0.00    +0.211 HD
ENDBRANCH  29  30
ENDBRANCH  26  29
ENDBRANCH  25  26
ENDBRANCH   2  25
TORSDOF 7
ENDMDL
MODEL 3
REMARK VINA RESULT:      -9.1      2.855      6.409
REMARK  Name = 4369435
REMARK  7 active torsions:
REMARK  status: ('A' for Active; 'I' for Inactive)
REMARK    1  A    between atoms: N_2  and  C_25
REMARK    2  A    between atoms: C_5  and  C_13
REMARK    3  A    between atoms: C_7  and  C_19
REMARK    4  A    between atoms: C_25  and  C_26
REMARK    5  A    between atoms: C_26  and  O_27
REMARK    6  A    between atoms: C_26  and  C_29
REMARK    7  A    between atoms: C_29  and  O_30
REMARK                            x       y       z     vdW  Elec       q    Type
REMARK                         _______ _______ _______ _____ _____    ______ ____
ROOT
ATOM      1  N   UNL     1      32.411 -13.696 -21.944  0.00  0.00    -0.301 N 
ATOM      2  N   UNL     1      32.389  -9.288 -23.484  0.00  0.00    -0.319 N 
ATOM      3  N   UNL     1      31.162 -12.130 -20.603  0.00  0.00    -0.233 NA
ATOM      4  N   UNL     1      31.214  -9.863 -21.492  0.00  0.00    -0.233 NA
ATOM      5  C   UNL     1      33.152 -12.349 -23.553  0.00  0.00    +0.005 C 
ATOM      6  C   UNL     1      32.377 -11.579 -22.649  0.00  0.00    +0.131 C 
ATOM      7  C   UNL     1      33.155 -13.649 -23.094  0.00  0.00    +0.046 C 
ATOM      8  C   UNL     1      31.931 -12.446 -21.659  0.00  0.00    +0.117 C 
ATOM      9  C   UNL     1      31.994 -10.230 -22.549  0.00  0.00    +0.113 C 
ATOM     10  C   UNL     1      30.854 -10.817 -20.603  0.00  0.00    +0.252 C 
ATOM     11  H   UNL     1      32.247 -14.504 -21.405  0.00  0.00    +0.153 HD
ATOM     12  H   UNL     1      32.953  -9.584 -24.234  0.00  0.00    +0.148 HD
ENDROOT
BRANCH   5  13
ATOM     13  C   UNL     1      33.841 -11.940 -24.748  0.00  0.00    -0.002 C 
ATOM     14  C   UNL     1      34.816 -10.945 -24.681  0.00  0.00    -0.000 C 
ATOM     15  C   UNL     1      33.535 -12.539 -25.968  0.00  0.00    -0.000 C 
ATOM     16  C   UNL     1      35.485 -10.547 -25.839  0.00  0.00    -0.000 C 
ATOM     17  C   UNL     1      34.204 -12.141 -27.126  0.00  0.00    -0.000 C 
ATOM     18  C   UNL     1      35.178 -11.146 -27.061  0.00  0.00    -0.000 C 
ENDBRANCH   5  13
BRANCH   7  19
ATOM     19  C   UNL     1      33.783 -14.840 -23.623  0.00  0.00    +0.013 C 
ATOM     20  C   UNL     1      33.439 -15.304 -24.890  0.00  0.00    +0.001 C 
ATOM     21  C   UNL     1      34.729 -15.522 -22.860  0.00  0.00    +0.001 C 
ATOM     22  C   UNL     1      34.044 -16.453 -25.398  0.00  0.00    +0.000 C 
ATOM     23  C   UNL     1      35.335 -16.671 -23.368  0.00  0.00    +0.000 C 
ATOM     24  C   UNL     1      34.993 -17.136 -24.637  0.00  0.00    +0.000 C 
ENDBRANCH   7  19
BRANCH   2  25
ATOM     25  C   UNL     1      32.019  -7.892 -23.419  0.00  0.00    +0.120 C 
BRANCH  25  26
ATOM     26  C   UNL     1      33.094  -7.063 -22.717  0.00  0.00    +0.159 C 
BRANCH  26  27
ATOM     27  O   UNL     1      32.987  -7.237 -21.304  0.00  0.00    -0.380 OA
ATOM     28  H   UNL     1      33.783  -7.682 -20.972  0.00  0.00    +0.211 HD
ENDBRANCH  26  27
BRANCH  26  29
ATOM     29  C   UNL     1      34.512  -7.431 -23.145  0.00  0.00    +0.168 C 
BRANCH  29  30
ATOM     30  O   UNL     1      34.604  -7.331 -24.563  0.00  0.00    -0.379 OA
ATOM     31  H   UNL     1      34.571  -8.220 -24.952  0.00  0.00    +0.211 HD
ENDBRANCH  29  30
ENDBRANCH  26  29
ENDBRANCH  25  26
ENDBRANCH   2  25
TORSDOF 7
ENDMDL
MODEL 4
REMARK VINA RESULT:      -9.1      0.653      1.485
REMARK  Name = 4369435
REMARK  7 active torsions:
REMARK  status: ('A' for Active; 'I' for Inactive)
REMARK    1  A    between atoms: N_2  and  C_25
REMARK    2  A    between atoms: C_5  and  C_13
REMARK    3  A    between atoms: C_7  and  C_19
REMARK    4  A    between atoms: C_25  and  C_26
REMARK    5  A    between atoms: C_26  and  O_27
REMARK    6  A    between atoms: C_26  and  C_29
REMARK    7  A    between atoms: C_29  and  O_30
REMARK                            x       y       z     vdW  Elec       q    Type
REMARK                         _______ _______ _______ _____ _____    ______ ____
ROOT
ATOM      1  N   UNL     1      31.782 -10.851 -21.611  0.00  0.00    -0.301 N 
ATOM      2  N   UNL     1      34.238 -14.288 -23.603  0.00  0.00    -0.319 N 
ATOM      3  N   UNL     1      31.652 -12.995 -20.517  0.00  0.00    -0.233 NA
ATOM      4  N   UNL     1      32.967 -14.714 -21.633  0.00  0.00    -0.233 NA
ATOM      5  C   UNL     1      33.138 -11.344 -23.307  0.00  0.00    +0.005 C 
ATOM      6  C   UNL     1      32.944 -12.518 -22.535  0.00  0.00    +0.131 C 
ATOM      7  C   UNL     1      32.411 -10.334 -22.715  0.00  0.00    +0.046 C 
ATOM      8  C   UNL     1      32.096 -12.178 -21.488  0.00  0.00    +0.117 C 
ATOM      9  C   UNL     1      33.392 -13.849 -22.598  0.00  0.00    +0.113 C 
ATOM     10  C   UNL     1      32.140 -14.243 -20.672  0.00  0.00    +0.252 C 
ATOM     11  H   UNL     1      31.196 -10.346 -21.002  0.00  0.00    +0.153 HD
ATOM     12  H   UNL     1      34.526 -13.639 -24.286  0.00  0.00    +0.148 HD
ENDROOT
BRANCH   5  13
ATOM     13  C   UNL     1      33.924 -11.150 -24.495  0.00  0.00    -0.002 C 
ATOM     14  C   UNL     1      33.637 -11.883 -25.646  0.00  0.00    -0.000 C 
ATOM     15  C   UNL     1      34.969 -10.228 -24.496  0.00  0.00    -0.000 C 
ATOM     16  C   UNL     1      34.399 -11.695 -26.799  0.00  0.00    -0.000 C 
ATOM     17  C   UNL     1      35.732 -10.040 -25.649  0.00  0.00    -0.000 C 
ATOM     18  C   UNL     1      35.446 -10.773 -26.800  0.00  0.00    -0.000 C 
ENDBRANCH   5  13
BRANCH   7  19
ATOM     19  C   UNL     1      32.248  -8.943 -23.079  0.00  0.00    +0.013 C 
ATOM     20  C   UNL     1      31.198  -8.561 -23.910  0.00  0.00    +0.001 C 
ATOM     21  C   UNL     1      33.146  -7.992 -22.600  0.00  0.00    +0.001 C 
ATOM     22  C   UNL     1      31.044  -7.220 -24.262  0.00  0.00    +0.000 C 
ATOM     23  C   UNL     1      32.991  -6.651 -22.952  0.00  0.00    +0.000 C 
ATOM     24  C   UNL     1      31.940  -6.265 -23.783  0.00  0.00    +0.000 C 
ENDBRANCH   7  19
BRANCH   2  25
ATOM     25  C   UNL     1      34.722 -15.646 -23.707  0.00  0.00    +0.120 C 
BRANCH  25  26
ATOM     26  C   UNL     1      34.476 -16.219 -25.102  0.00  0.00    +0.159 C 
BRANCH  26  27
ATOM     27  O   UNL     1      34.323 -17.636 -25.018  0.00  0.00    -0.380 OA
ATOM     28  H   UNL     1      33.552 -17.909 -25.540  0.00  0.00    +0.211 HD
ENDBRANCH  26  27
BRANCH  26  29
ATOM     29  C   UNL     1      33.240 -15.637 -25.782  0.00  0.00    +0.168 C 
BRANCH  29  30
ATOM     30  O   UNL     1      33.626 -15.080 -27.036  0.00  0.00    -0.379 OA
ATOM     31  H   UNL     1      34.249 -14.350 -26.887  0.00  0.00    +0.211 HD
ENDBRANCH  29  30
ENDBRANCH  26  29
ENDBRANCH  25  26
ENDBRANCH   2  25
TORSDOF 7
ENDMDL
MODEL 5
REMARK VINA RESULT:      -9.0     13.115     15.594
REMARK  Name = 4369435
REMARK  7 active torsions:
REMARK  status: ('A' for Active; 'I' for Inactive)
REMARK    1  A    between atoms: N_2  and  C_25
REMARK    2  A    between atoms: C_5  and  C_13
REMARK    3  A    between atoms: C_7  and  C_19
REMARK    4  A    between atoms: C_25  and  C_26
REMARK    5  A    between atoms: C_26  and  O_27
REMARK    6  A    between atoms: C_26  and  C_29
REMARK    7  A    between atoms: C_29  and  O_30
REMARK                            x       y       z     vdW  Elec       q    Type
REMARK                         _______ _______ _______ _____ _____    ______ ____
ROOT
ATOM      1  N   UNL     1      33.346 -24.447 -13.098  0.00  0.00    -0.301 N 
ATOM      2  N   UNL     1      37.490 -23.914 -15.183  0.00  0.00    -0.319 N 
ATOM      3  N   UNL     1      35.265 -25.061 -11.775  0.00  0.00    -0.233 NA
ATOM      4  N   UNL     1      37.373 -24.745 -12.953  0.00  0.00    -0.233 NA
ATOM      5  C   UNL     1      34.343 -23.798 -14.980  0.00  0.00    +0.005 C 
ATOM      6  C   UNL     1      35.344 -24.205 -14.061  0.00  0.00    +0.131 C 
ATOM      7  C   UNL     1      33.122 -23.958 -14.359  0.00  0.00    +0.046 C 
ATOM      8  C   UNL     1      34.692 -24.603 -12.901  0.00  0.00    +0.117 C 
ATOM      9  C   UNL     1      36.748 -24.284 -14.075  0.00  0.00    +0.113 C 
ATOM     10  C   UNL     1      36.608 -25.098 -11.894  0.00  0.00    +0.252 C 
ATOM     11  H   UNL     1      32.647 -24.654 -12.436  0.00  0.00    +0.153 HD
ATOM     12  H   UNL     1      37.009 -23.586 -15.977  0.00  0.00    +0.148 HD
ENDROOT
BRANCH   5  13
ATOM     13  C   UNL     1      34.479 -23.301 -16.322  0.00  0.00    -0.002 C 
ATOM     14  C   UNL     1      35.566 -22.495 -16.658  0.00  0.00    -0.000 C 
ATOM     15  C   UNL     1      33.526 -23.627 -17.286  0.00  0.00    -0.000 C 
ATOM     16  C   UNL     1      35.699 -22.012 -17.960  0.00  0.00    -0.000 C 
ATOM     17  C   UNL     1      33.658 -23.145 -18.588  0.00  0.00    -0.000 C 
ATOM     18  C   UNL     1      34.745 -22.338 -18.925  0.00  0.00    -0.000 C 
ENDBRANCH   5  13
BRANCH   7  19
ATOM     19  C   UNL     1      31.778 -23.700 -14.829  0.00  0.00    +0.013 C 
ATOM     20  C   UNL     1      31.256 -22.411 -14.768  0.00  0.00    +0.001 C 
ATOM     21  C   UNL     1      31.011 -24.745 -15.339  0.00  0.00    +0.001 C 
ATOM     22  C   UNL     1      29.960 -22.164 -15.220  0.00  0.00    +0.000 C 
ATOM     23  C   UNL     1      29.715 -24.498 -15.792  0.00  0.00    +0.000 C 
ATOM     24  C   UNL     1      29.189 -23.208 -15.733  0.00  0.00    +0.000 C 
ENDBRANCH   7  19
BRANCH   2  25
ATOM     25  C   UNL     1      38.933 -23.980 -15.240  0.00  0.00    +0.120 C 
BRANCH  25  26
ATOM     26  C   UNL     1      39.429 -25.420 -15.117  0.00  0.00    +0.159 C 
BRANCH  26  27
ATOM     27  O   UNL     1      40.248 -25.743 -16.241  0.00  0.00    -0.380 OA
ATOM     28  H   UNL     1      40.224 -26.700 -16.395  0.00  0.00    +0.211 HD
ENDBRANCH  26  27
BRANCH  26  29
ATOM     29  C   UNL     1      40.230 -25.675 -13.844  0.00  0.00    +0.168 C 
BRANCH  29  30
ATOM     30  O   UNL     1      41.240 -26.641 -14.122  0.00  0.00    -0.379 OA
ATOM     31  H   UNL     1      41.653 -26.925 -13.290  0.00  0.00    +0.211 HD
ENDBRANCH  29  30
ENDBRANCH  26  29
ENDBRANCH  25  26
ENDBRANCH   2  25
TORSDOF 7
ENDMDL
MODEL 6
REMARK VINA RESULT:      -8.8      3.045      6.536
REMARK  Name = 4369435
REMARK  7 active torsions:
REMARK  status: ('A' for Active; 'I' for Inactive)
REMARK    1  A    between atoms: N_2  and  C_25
REMARK    2  A    between atoms: C_5  and  C_13
REMARK    3  A    between atoms: C_7  and  C_19
REMARK    4  A    between atoms: C_25  and  C_26
REMARK    5  A    between atoms: C_26  and  O_27
REMARK    6  A    between atoms: C_26  and  C_29
REMARK    7  A    between atoms: C_29  and  O_30
REMARK                            x       y       z     vdW  Elec       q    Type
REMARK                         _______ _______ _______ _____ _____    ______ ____
ROOT
ATOM      1  N   UNL     1      32.259 -13.358 -22.135  0.00  0.00    -0.301 N 
ATOM      2  N   UNL     1      32.880  -8.823 -23.058  0.00  0.00    -0.319 N 
ATOM      3  N   UNL     1      31.146 -11.829 -20.641  0.00  0.00    -0.233 NA
ATOM      4  N   UNL     1      31.533  -9.493 -21.210  0.00  0.00    -0.233 NA
ATOM      5  C   UNL     1      33.253 -11.923 -23.516  0.00  0.00    +0.005 C 
ATOM      6  C   UNL     1      32.532 -11.182 -22.545  0.00  0.00    +0.131 C 
ATOM      7  C   UNL     1      33.066 -13.261 -23.239  0.00  0.00    +0.046 C 
ATOM      8  C   UNL     1      31.926 -12.104 -21.701  0.00  0.00    +0.117 C 
ATOM      9  C   UNL     1      32.318  -9.819 -22.277  0.00  0.00    +0.113 C 
ATOM     10  C   UNL     1      31.006 -10.498 -20.473  0.00  0.00    +0.252 C 
ATOM     11  H   UNL     1      31.965 -14.201 -21.719  0.00  0.00    +0.153 HD
ATOM     12  H   UNL     1      33.443  -9.091 -23.820  0.00  0.00    +0.148 HD
ENDROOT
BRANCH   5  13
ATOM     13  C   UNL     1      34.054 -11.457 -24.616  0.00  0.00    -0.002 C 
ATOM     14  C   UNL     1      33.857 -11.985 -25.892  0.00  0.00    -0.000 C 
ATOM     15  C   UNL     1      35.022 -10.476 -24.406  0.00  0.00    -0.000 C 
ATOM     16  C   UNL     1      34.633 -11.533 -26.959  0.00  0.00    -0.000 C 
ATOM     17  C   UNL     1      35.798 -10.024 -25.474  0.00  0.00    -0.000 C 
ATOM     18  C   UNL     1      35.603 -10.552 -26.749  0.00  0.00    -0.000 C 
ENDBRANCH   5  13
BRANCH   7  19
ATOM     19  C   UNL     1      33.568 -14.446 -23.901  0.00  0.00    +0.013 C 
ATOM     20  C   UNL     1      34.564 -15.209 -23.298  0.00  0.00    +0.001 C 
ATOM     21  C   UNL     1      33.053 -14.816 -25.141  0.00  0.00    +0.001 C 
ATOM     22  C   UNL     1      35.047 -16.351 -23.938  0.00  0.00    +0.000 C 
ATOM     23  C   UNL     1      33.536 -15.957 -25.781  0.00  0.00    +0.000 C 
ATOM     24  C   UNL     1      34.533 -16.725 -25.180  0.00  0.00    +0.000 C 
ENDBRANCH   7  19
BRANCH   2  25
ATOM     25  C   UNL     1      32.686  -7.411 -22.817  0.00  0.00    +0.120 C 
BRANCH  25  26
ATOM     26  C   UNL     1      31.620  -6.830 -23.746  0.00  0.00    +0.159 C 
BRANCH  26  27
ATOM     27  O   UNL     1      30.483  -7.692 -23.770  0.00  0.00    -0.380 OA
ATOM     28  H   UNL     1      30.529  -8.266 -24.551  0.00  0.00    +0.211 HD
ENDBRANCH  26  27
BRANCH  26  29
ATOM     29  C   UNL     1      31.161  -5.433 -23.336  0.00  0.00    +0.168 C 
BRANCH  29  30
ATOM     30  O   UNL     1      31.668  -5.147 -22.035  0.00  0.00    -0.379 OA
ATOM     31  H   UNL     1      31.284  -4.314 -21.715  0.00  0.00    +0.211 HD
ENDBRANCH  29  30
ENDBRANCH  26  29
ENDBRANCH  25  26
ENDBRANCH   2  25
TORSDOF 7
ENDMDL
MODEL 7
REMARK VINA RESULT:      -8.4     12.549     15.552
REMARK  Name = 4369435
REMARK  7 active torsions:
REMARK  status: ('A' for Active; 'I' for Inactive)
REMARK    1  A    between atoms: N_2  and  C_25
REMARK    2  A    between atoms: C_5  and  C_13
REMARK    3  A    between atoms: C_7  and  C_19
REMARK    4  A    between atoms: C_25  and  C_26
REMARK    5  A    between atoms: C_26  and  O_27
REMARK    6  A    between atoms: C_26  and  C_29
REMARK    7  A    between atoms: C_29  and  O_30
REMARK                            x       y       z     vdW  Elec       q    Type
REMARK                         _______ _______ _______ _____ _____    ______ ____
ROOT
ATOM      1  N   UNL     1      33.817 -24.979 -13.375  0.00  0.00    -0.301 N 
ATOM      2  N   UNL     1      31.186 -22.702 -16.490  0.00  0.00    -0.319 N 
ATOM      3  N   UNL     1      31.454 -24.921 -12.900  0.00  0.00    -0.233 NA
ATOM      4  N   UNL     1      30.175 -23.712 -14.583  0.00  0.00    -0.233 NA
ATOM      5  C   UNL     1      33.874 -23.830 -15.281  0.00  0.00    +0.005 C 
ATOM      6  C   UNL     1      32.527 -23.900 -14.842  0.00  0.00    +0.131 C 
ATOM      7  C   UNL     1      34.646 -24.504 -14.358  0.00  0.00    +0.046 C 
ATOM      8  C   UNL     1      32.525 -24.620 -13.654  0.00  0.00    +0.117 C 
ATOM      9  C   UNL     1      31.290 -23.430 -15.317  0.00  0.00    +0.113 C 
ATOM     10  C   UNL     1      30.323 -24.425 -13.443  0.00  0.00    +0.252 C 
ATOM     11  H   UNL     1      34.105 -25.497 -12.590  0.00  0.00    +0.153 HD
ATOM     12  H   UNL     1      32.009 -22.514 -16.996  0.00  0.00    +0.148 HD
ENDROOT
BRANCH   5  13
ATOM     13  C   UNL     1      34.425 -23.201 -16.451  0.00  0.00    -0.002 C 
ATOM     14  C   UNL     1      35.644 -22.528 -16.370  0.00  0.00    -0.000 C 
ATOM     15  C   UNL     1      33.741 -23.266 -17.664  0.00  0.00    -0.000 C 
ATOM     16  C   UNL     1      36.178 -21.917 -17.504  0.00  0.00    -0.000 C 
ATOM     17  C   UNL     1      34.276 -22.655 -18.798  0.00  0.00    -0.000 C 
ATOM     18  C   UNL     1      35.494 -21.981 -18.718  0.00  0.00    -0.000 C 
ENDBRANCH   5  13
BRANCH   7  19
ATOM     19  C   UNL     1      36.072 -24.742 -14.308  0.00  0.00    +0.013 C 
ATOM     20  C   UNL     1      36.628 -25.788 -15.041  0.00  0.00    +0.001 C 
ATOM     21  C   UNL     1      36.884 -23.926 -13.524  0.00  0.00    +0.001 C 
ATOM     22  C   UNL     1      38.002 -26.017 -14.991  0.00  0.00    +0.000 C 
ATOM     23  C   UNL     1      38.258 -24.156 -13.474  0.00  0.00    +0.000 C 
ATOM     24  C   UNL     1      38.818 -25.201 -14.208  0.00  0.00    +0.000 C 
ENDBRANCH   7  19
BRANCH   2  25
ATOM     25  C   UNL     1      29.935 -22.200 -17.013  0.00  0.00    +0.120 C 
BRANCH  25  26
ATOM     26  C   UNL     1      28.740 -22.875 -16.340  0.00  0.00    +0.159 C 
BRANCH  26  27
ATOM     27  O   UNL     1      27.906 -21.885 -15.739  0.00  0.00    -0.380 OA
ATOM     28  H   UNL     1      28.154 -21.008 -16.070  0.00  0.00    +0.211 HD
ENDBRANCH  26  27
BRANCH  26  29
ATOM     29  C   UNL     1      27.894 -23.702 -17.305  0.00  0.00    +0.168 C 
BRANCH  29  30
ATOM     30  O   UNL     1      27.067 -22.822 -18.060  0.00  0.00    -0.379 OA
ATOM     31  H   UNL     1      27.417 -21.918 -17.998  0.00  0.00    +0.211 HD
ENDBRANCH  29  30
ENDBRANCH  26  29
ENDBRANCH  25  26
ENDBRANCH   2  25
TORSDOF 7
ENDMDL
MODEL 8
REMARK VINA RESULT:      -8.4      2.581      4.691
REMARK  Name = 4369435
REMARK  7 active torsions:
REMARK  status: ('A' for Active; 'I' for Inactive)
REMARK    1  A    between atoms: N_2  and  C_25
REMARK    2  A    between atoms: C_5  and  C_13
REMARK    3  A    between atoms: C_7  and  C_19
REMARK    4  A    between atoms: C_25  and  C_26
REMARK    5  A    between atoms: C_26  and  O_27
REMARK    6  A    between atoms: C_26  and  C_29
REMARK    7  A    between atoms: C_29  and  O_30
REMARK                            x       y       z     vdW  Elec       q    Type
REMARK                         _______ _______ _______ _____ _____    ______ ____
ROOT
ATOM      1  N   UNL     1      32.707 -11.784 -24.742  0.00  0.00    -0.301 N 
ATOM      2  N   UNL     1      34.035 -16.261 -24.716  0.00  0.00    -0.319 N 
ATOM      3  N   UNL     1      33.135 -12.757 -26.906  0.00  0.00    -0.233 NA
ATOM      4  N   UNL     1      33.820 -15.091 -26.780  0.00  0.00    -0.233 NA
ATOM      5  C   UNL     1      33.139 -13.525 -23.423  0.00  0.00    +0.005 C 
ATOM      6  C   UNL     1      33.343 -13.923 -24.769  0.00  0.00    +0.131 C 
ATOM      7  C   UNL     1      32.747 -12.203 -23.437  0.00  0.00    +0.046 C 
ATOM      8  C   UNL     1      33.067 -12.818 -25.565  0.00  0.00    +0.117 C 
ATOM      9  C   UNL     1      33.736 -15.106 -25.418  0.00  0.00    +0.113 C 
ATOM     10  C   UNL     1      33.520 -13.941 -27.426  0.00  0.00    +0.252 C 
ATOM     11  H   UNL     1      32.458 -10.880 -25.041  0.00  0.00    +0.153 HD
ATOM     12  H   UNL     1      33.967 -16.239 -23.734  0.00  0.00    +0.148 HD
ENDROOT
BRANCH   5  13
ATOM     13  C   UNL     1      33.286 -14.284 -22.211  0.00  0.00    -0.002 C 
ATOM     14  C   UNL     1      32.176 -14.907 -21.642  0.00  0.00    -0.000 C 
ATOM     15  C   UNL     1      34.538 -14.398 -21.608  0.00  0.00    -0.000 C 
ATOM     16  C   UNL     1      32.319 -15.644 -20.466  0.00  0.00    -0.000 C 
ATOM     17  C   UNL     1      34.681 -15.135 -20.432  0.00  0.00    -0.000 C 
ATOM     18  C   UNL     1      33.571 -15.758 -19.862  0.00  0.00    -0.000 C 
ENDBRANCH   5  13
BRANCH   7  19
ATOM     19  C   UNL     1      32.411 -11.302 -22.356  0.00  0.00    +0.013 C 
ATOM     20  C   UNL     1      31.829 -11.799 -21.193  0.00  0.00    +0.001 C 
ATOM     21  C   UNL     1      32.668  -9.939 -22.485  0.00  0.00    +0.001 C 
ATOM     22  C   UNL     1      31.505 -10.930 -20.152  0.00  0.00    +0.000 C 
ATOM     23  C   UNL     1      32.344  -9.069 -21.444  0.00  0.00    +0.000 C 
ATOM     24  C   UNL     1      31.762  -9.564 -20.277  0.00  0.00    +0.000 C 
ENDBRANCH   7  19
BRANCH   2  25
ATOM     25  C   UNL     1      34.443 -17.498 -25.343  0.00  0.00    +0.120 C 
BRANCH  25  26
ATOM     26  C   UNL     1      34.317 -18.678 -24.380  0.00  0.00    +0.159 C 
BRANCH  26  27
ATOM     27  O   UNL     1      34.959 -19.824 -24.938  0.00  0.00    -0.380 OA
ATOM     28  H   UNL     1      35.348 -20.356 -24.226  0.00  0.00    +0.211 HD
ENDBRANCH  26  27
BRANCH  26  29
ATOM     29  C   UNL     1      34.925 -18.402 -23.007  0.00  0.00    +0.168 C 
BRANCH  29  30
ATOM     30  O   UNL     1      36.082 -17.588 -23.173  0.00  0.00    -0.379 OA
ATOM     31  H   UNL     1      36.721 -17.788 -22.470  0.00  0.00    +0.211 HD
ENDBRANCH  29  30
ENDBRANCH  26  29
ENDBRANCH  25  26
ENDBRANCH   2  25
TORSDOF 7
ENDMDL
MODEL 9
REMARK VINA RESULT:      -8.3     10.950     14.425
REMARK  Name = 4369435
REMARK  7 active torsions:
REMARK  status: ('A' for Active; 'I' for Inactive)
REMARK    1  A    between atoms: N_2  and  C_25
REMARK    2  A    between atoms: C_5  and  C_13
REMARK    3  A    between atoms: C_7  and  C_19
REMARK    4  A    between atoms: C_25  and  C_26
REMARK    5  A    between atoms: C_26  and  O_27
REMARK    6  A    between atoms: C_26  and  C_29
REMARK    7  A    between atoms: C_29  and  O_30
REMARK                            x       y       z     vdW  Elec       q    Type
REMARK                         _______ _______ _______ _____ _____    ______ ____
ROOT
ATOM      1  N   UNL     1      32.059 -22.838 -17.570  0.00  0.00    -0.301 N 
ATOM      2  N   UNL     1      34.182 -24.324 -13.685  0.00  0.00    -0.319 N 
ATOM      3  N   UNL     1      30.627 -23.874 -15.931  0.00  0.00    -0.233 NA
ATOM      4  N   UNL     1      31.831 -24.611 -13.947  0.00  0.00    -0.233 NA
ATOM      5  C   UNL     1      34.026 -22.985 -16.539  0.00  0.00    +0.005 C 
ATOM      6  C   UNL     1      33.038 -23.560 -15.699  0.00  0.00    +0.131 C 
ATOM      7  C   UNL     1      33.394 -22.548 -17.683  0.00  0.00    +0.046 C 
ATOM      8  C   UNL     1      31.826 -23.453 -16.369  0.00  0.00    +0.117 C 
ATOM      9  C   UNL     1      33.026 -24.168 -14.432  0.00  0.00    +0.113 C 
ATOM     10  C   UNL     1      30.728 -24.440 -14.711  0.00  0.00    +0.252 C 
ATOM     11  H   UNL     1      31.374 -22.635 -18.247  0.00  0.00    +0.153 HD
ATOM     12  H   UNL     1      35.029 -23.995 -14.064  0.00  0.00    +0.148 HD
ENDROOT
BRANCH   5  13
ATOM     13  C   UNL     1      35.441 -22.840 -16.322  0.00  0.00    -0.002 C 
ATOM     14  C   UNL     1      36.075 -21.642 -16.652  0.00  0.00    -0.000 C 
ATOM     15  C   UNL     1      36.174 -23.894 -15.781  0.00  0.00    -0.000 C 
ATOM     16  C   UNL     1      37.447 -21.501 -16.442  0.00  0.00    -0.000 C 
ATOM     17  C   UNL     1      37.546 -23.753 -15.571  0.00  0.00    -0.000 C 
ATOM     18  C   UNL     1      38.182 -22.557 -15.901  0.00  0.00    -0.000 C 
ENDBRANCH   5  13
BRANCH   7  19
ATOM     19  C   UNL     1      33.916 -21.893 -18.863  0.00  0.00    +0.013 C 
ATOM     20  C   UNL     1      35.189 -22.210 -19.329  0.00  0.00    +0.001 C 
ATOM     21  C   UNL     1      33.141 -20.944 -19.528  0.00  0.00    +0.001 C 
ATOM     22  C   UNL     1      35.691 -21.576 -20.465  0.00  0.00    +0.000 C 
ATOM     23  C   UNL     1      33.643 -20.311 -20.665  0.00  0.00    +0.000 C 
ATOM     24  C   UNL     1      34.918 -20.627 -21.134  0.00  0.00    +0.000 C 
ENDBRANCH   7  19
BRANCH   2  25
ATOM     25  C   UNL     1      34.214 -24.943 -12.379  0.00  0.00    +0.120 C 
BRANCH  25  26
ATOM     26  C   UNL     1      35.449 -24.510 -11.589  0.00  0.00    +0.159 C 
BRANCH  26  27
ATOM     27  O   UNL     1      35.339 -24.965 -10.240  0.00  0.00    -0.380 OA
ATOM     28  H   UNL     1      35.256 -24.201  -9.647  0.00  0.00    +0.211 HD
ENDBRANCH  26  27
BRANCH  26  29
ATOM     29  C   UNL     1      36.755 -25.040 -12.175  0.00  0.00    +0.168 C 
BRANCH  29  30
ATOM     30  O   UNL     1      36.476 -26.218 -12.926  0.00  0.00    -0.379 OA
ATOM     31  H   UNL     1      35.713 -26.058 -13.505  0.00  0.00    +0.211 HD
ENDBRANCH  29  30
ENDBRANCH  26  29
ENDBRANCH  25  26
ENDBRANCH   2  25
TORSDOF 7
ENDMDL
