MODEL 1
REMARK VINA RESULT:      -7.8      0.000      0.000
REMARK  Name = 3465283
REMARK  3 active torsions:
REMARK  status: ('A' for Active; 'I' for Inactive)
REMARK    1  A    between atoms: C_7  and  C_16
REMARK    2  A    between atoms: C_16  and  C_17
REMARK    3  A    between atoms: C_17  and  C_18
REMARK                            x       y       z     vdW  Elec       q    Type
REMARK                         _______ _______ _______ _____ _____    ______ ____
ROOT
ATOM      1  O   UNL     1      33.301 -14.332 -21.510  0.00  0.00    -0.264 OA
ATOM      2  O   UNL     1      34.807 -17.076 -25.898  0.00  0.00    -0.264 OA
ATOM      3  N   UNL     1      34.958 -16.838 -21.402  0.00  0.00    -0.314 N 
ATOM      4  N   UNL     1      35.574 -17.962 -23.229  0.00  0.00    -0.314 N 
ATOM      5  N   UNL     1      33.308 -14.580 -23.799  0.00  0.00    -0.262 N 
ATOM      6  N   UNL     1      33.699 -15.292 -24.939  0.00  0.00    -0.262 N 
ATOM      7  C   UNL     1      35.634 -17.916 -21.914  0.00  0.00    +0.144 C 
ATOM      8  C   UNL     1      34.437 -16.156 -22.464  0.00  0.00    +0.122 A 
ATOM      9  C   UNL     1      34.829 -16.867 -23.570  0.00  0.00    +0.122 A 
ATOM     10  C   UNL     1      33.648 -14.962 -22.505  0.00  0.00    +0.286 A 
ATOM     11  C   UNL     1      34.465 -16.452 -24.899  0.00  0.00    +0.286 A 
ATOM     12  H   UNL     1      34.867 -16.601 -20.452  0.00  0.00    +0.148 HD
ATOM     13  H   UNL     1      35.974 -18.633 -23.830  0.00  0.00    +0.148 HD
ATOM     14  H   UNL     1      32.765 -13.766 -23.919  0.00  0.00    +0.190 HD
ATOM     15  H   UNL     1      33.415 -14.952 -25.818  0.00  0.00    +0.190 HD
ENDROOT
BRANCH   7  16
ATOM     16  C   UNL     1      36.325 -18.874 -21.030  0.00  0.00    +0.040 C 
BRANCH  16  17
ATOM     17  C   UNL     1      35.512 -20.166 -20.803  0.00  0.00    +0.003 C 
BRANCH  17  18
ATOM     18  C   UNL     1      34.009 -19.901 -20.711  0.00  0.00    +0.000 C 
ATOM     19  C   UNL     1      33.312 -20.942 -19.849  0.00  0.00    +0.000 C 
ENDBRANCH  17  18
ENDBRANCH  16  17
ENDBRANCH   7  16
TORSDOF 3
ENDMDL
MODEL 2
REMARK VINA RESULT:      -7.8      2.492      5.187
REMARK  Name = 3465283
REMARK  3 active torsions:
REMARK  status: ('A' for Active; 'I' for Inactive)
REMARK    1  A    between atoms: C_7  and  C_16
REMARK    2  A    between atoms: C_16  and  C_17
REMARK    3  A    between atoms: C_17  and  C_18
REMARK                            x       y       z     vdW  Elec       q    Type
REMARK                         _______ _______ _______ _____ _____    ______ ____
ROOT
ATOM      1  O   UNL     1      35.337 -16.870 -20.570  0.00  0.00    -0.264 OA
ATOM      2  O   UNL     1      34.490 -16.469 -25.878  0.00  0.00    -0.264 OA
ATOM      3  N   UNL     1      33.643 -14.720 -21.814  0.00  0.00    -0.314 N 
ATOM      4  N   UNL     1      33.302 -14.569 -24.014  0.00  0.00    -0.314 N 
ATOM      5  N   UNL     1      35.683 -17.655 -22.707  0.00  0.00    -0.262 N 
ATOM      6  N   UNL     1      35.464 -17.551 -24.086  0.00  0.00    -0.262 N 
ATOM      7  C   UNL     1      33.038 -14.037 -22.838  0.00  0.00    +0.144 C 
ATOM      8  C   UNL     1      34.335 -15.753 -22.380  0.00  0.00    +0.122 A 
ATOM      9  C   UNL     1      34.109 -15.635 -23.728  0.00  0.00    +0.122 A 
ATOM     10  C   UNL     1      35.139 -16.773 -21.778  0.00  0.00    +0.286 A 
ATOM     11  C   UNL     1      34.683 -16.560 -24.670  0.00  0.00    +0.286 A 
ATOM     12  H   UNL     1      33.588 -14.508 -20.855  0.00  0.00    +0.148 HD
ATOM     13  H   UNL     1      32.990 -14.266 -24.899  0.00  0.00    +0.148 HD
ATOM     14  H   UNL     1      36.251 -18.389 -22.377  0.00  0.00    +0.190 HD
ATOM     15  H   UNL     1      35.887 -18.217 -24.674  0.00  0.00    +0.190 HD
ENDROOT
BRANCH   7  16
ATOM     16  C   UNL     1      32.202 -12.851 -22.576  0.00  0.00    +0.040 C 
BRANCH  16  17
ATOM     17  C   UNL     1      31.884 -12.667 -21.077  0.00  0.00    +0.003 C 
BRANCH  17  18
ATOM     18  C   UNL     1      31.113 -11.376 -20.799  0.00  0.00    +0.000 C 
ATOM     19  C   UNL     1      31.372 -10.865 -19.391  0.00  0.00    +0.000 C 
ENDBRANCH  17  18
ENDBRANCH  16  17
ENDBRANCH   7  16
TORSDOF 3
ENDMDL
MODEL 3
REMARK VINA RESULT:      -7.8      2.566      5.619
REMARK  Name = 3465283
REMARK  3 active torsions:
REMARK  status: ('A' for Active; 'I' for Inactive)
REMARK    1  A    between atoms: C_7  and  C_16
REMARK    2  A    between atoms: C_16  and  C_17
REMARK    3  A    between atoms: C_17  and  C_18
REMARK                            x       y       z     vdW  Elec       q    Type
REMARK                         _______ _______ _______ _____ _____    ______ ____
ROOT
ATOM      1  O   UNL     1      34.347 -16.408 -25.887  0.00  0.00    -0.264 OA
ATOM      2  O   UNL     1      35.351 -16.835 -20.608  0.00  0.00    -0.264 OA
ATOM      3  N   UNL     1      33.236 -14.511 -23.836  0.00  0.00    -0.314 N 
ATOM      4  N   UNL     1      33.662 -14.701 -21.654  0.00  0.00    -0.314 N 
ATOM      5  N   UNL     1      35.371 -17.498 -24.136  0.00  0.00    -0.262 N 
ATOM      6  N   UNL     1      35.632 -17.609 -22.765  0.00  0.00    -0.262 N 
ATOM      7  C   UNL     1      33.033 -14.005 -22.578  0.00  0.00    +0.144 C 
ATOM      8  C   UNL     1      34.048 -15.601 -23.699  0.00  0.00    +0.122 A 
ATOM      9  C   UNL     1      34.292 -15.694 -22.353  0.00  0.00    +0.122 A 
ATOM     10  C   UNL     1      34.572 -16.499 -24.683  0.00  0.00    +0.286 A 
ATOM     11  C   UNL     1      35.122 -16.737 -21.810  0.00  0.00    +0.286 A 
ATOM     12  H   UNL     1      32.868 -14.157 -24.677  0.00  0.00    +0.148 HD
ATOM     13  H   UNL     1      33.674 -14.544 -20.682  0.00  0.00    +0.148 HD
ATOM     14  H   UNL     1      35.775 -18.159 -24.745  0.00  0.00    +0.190 HD
ATOM     15  H   UNL     1      36.209 -18.346 -22.461  0.00  0.00    +0.190 HD
ENDROOT
BRANCH   7  16
ATOM     16  C   UNL     1      32.193 -12.812 -22.362  0.00  0.00    +0.040 C 
BRANCH  16  17
ATOM     17  C   UNL     1      31.861 -12.581 -20.873  0.00  0.00    +0.003 C 
BRANCH  17  18
ATOM     18  C   UNL     1      31.115 -11.266 -20.639  0.00  0.00    +0.000 C 
ATOM     19  C   UNL     1      31.278 -10.781 -19.207  0.00  0.00    +0.000 C 
ENDBRANCH  17  18
ENDBRANCH  16  17
ENDBRANCH   7  16
TORSDOF 3
ENDMDL
MODEL 4
REMARK VINA RESULT:      -7.7     10.765     12.543
REMARK  Name = 3465283
REMARK  3 active torsions:
REMARK  status: ('A' for Active; 'I' for Inactive)
REMARK    1  A    between atoms: C_7  and  C_16
REMARK    2  A    between atoms: C_16  and  C_17
REMARK    3  A    between atoms: C_17  and  C_18
REMARK                            x       y       z     vdW  Elec       q    Type
REMARK                         _______ _______ _______ _____ _____    ______ ____
ROOT
ATOM      1  O   UNL     1      36.865 -27.222 -16.079  0.00  0.00    -0.264 OA
ATOM      2  O   UNL     1      37.747 -24.606 -11.449  0.00  0.00    -0.264 OA
ATOM      3  N   UNL     1      34.967 -25.183 -14.946  0.00  0.00    -0.314 N 
ATOM      4  N   UNL     1      35.348 -24.108 -13.028  0.00  0.00    -0.314 N 
ATOM      5  N   UNL     1      38.188 -26.825 -14.237  0.00  0.00    -0.262 N 
ATOM      6  N   UNL     1      38.418 -26.146 -13.035  0.00  0.00    -0.262 N 
ATOM      7  C   UNL     1      34.518 -24.258 -14.040  0.00  0.00    +0.144 C 
ATOM      8  C   UNL     1      36.162 -25.650 -14.478  0.00  0.00    +0.122 A 
ATOM      9  C   UNL     1      36.370 -24.975 -13.302  0.00  0.00    +0.122 A 
ATOM     10  C   UNL     1      37.059 -26.622 -15.025  0.00  0.00    +0.286 A 
ATOM     11  C   UNL     1      37.546 -25.202 -12.503  0.00  0.00    +0.286 A 
ATOM     12  H   UNL     1      34.516 -25.458 -15.776  0.00  0.00    +0.148 HD
ATOM     13  H   UNL     1      35.254 -23.510 -12.251  0.00  0.00    +0.148 HD
ATOM     14  H   UNL     1      38.860 -27.478 -14.542  0.00  0.00    +0.190 HD
ATOM     15  H   UNL     1      39.243 -26.348 -12.538  0.00  0.00    +0.190 HD
ENDROOT
BRANCH   7  16
ATOM     16  C   UNL     1      33.239 -23.550 -14.241  0.00  0.00    +0.040 C 
BRANCH  16  17
ATOM     17  C   UNL     1      32.863 -23.414 -15.731  0.00  0.00    +0.003 C 
BRANCH  17  18
ATOM     18  C   UNL     1      31.368 -23.166 -15.934  0.00  0.00    +0.000 C 
ATOM     19  C   UNL     1      30.639 -23.039 -14.606  0.00  0.00    +0.000 C 
ENDBRANCH  17  18
ENDBRANCH  16  17
ENDBRANCH   7  16
TORSDOF 3
ENDMDL
MODEL 5
REMARK VINA RESULT:      -7.7     10.703     12.285
REMARK  Name = 3465283
REMARK  3 active torsions:
REMARK  status: ('A' for Active; 'I' for Inactive)
REMARK    1  A    between atoms: C_7  and  C_16
REMARK    2  A    between atoms: C_16  and  C_17
REMARK    3  A    between atoms: C_17  and  C_18
REMARK                            x       y       z     vdW  Elec       q    Type
REMARK                         _______ _______ _______ _____ _____    ______ ____
ROOT
ATOM      1  O   UNL     1      37.760 -24.592 -11.455  0.00  0.00    -0.264 OA
ATOM      2  O   UNL     1      36.861 -27.211 -16.080  0.00  0.00    -0.264 OA
ATOM      3  N   UNL     1      35.325 -24.143 -13.161  0.00  0.00    -0.314 N 
ATOM      4  N   UNL     1      34.967 -25.236 -15.073  0.00  0.00    -0.314 N 
ATOM      5  N   UNL     1      38.420 -26.136 -13.030  0.00  0.00    -0.262 N 
ATOM      6  N   UNL     1      38.187 -26.816 -14.232  0.00  0.00    -0.262 N 
ATOM      7  C   UNL     1      34.496 -24.335 -14.236  0.00  0.00    +0.144 C 
ATOM      8  C   UNL     1      36.392 -24.979 -13.328  0.00  0.00    +0.122 A 
ATOM      9  C   UNL     1      36.147 -25.635 -14.507  0.00  0.00    +0.122 A 
ATOM     10  C   UNL     1      37.548 -25.186 -12.509  0.00  0.00    +0.286 A 
ATOM     11  C   UNL     1      37.065 -26.615 -15.027  0.00  0.00    +0.286 A 
ATOM     12  H   UNL     1      35.179 -23.523 -12.411  0.00  0.00    +0.148 HD
ATOM     13  H   UNL     1      34.563 -25.550 -15.915  0.00  0.00    +0.148 HD
ATOM     14  H   UNL     1      39.243 -26.341 -12.528  0.00  0.00    +0.190 HD
ATOM     15  H   UNL     1      38.856 -27.474 -14.530  0.00  0.00    +0.190 HD
ENDROOT
BRANCH   7  16
ATOM     16  C   UNL     1      33.235 -23.582 -14.372  0.00  0.00    +0.040 C 
BRANCH  16  17
ATOM     17  C   UNL     1      32.833 -23.356 -15.845  0.00  0.00    +0.003 C 
BRANCH  17  18
ATOM     18  C   UNL     1      31.321 -23.216 -16.022  0.00  0.00    +0.000 C 
ATOM     19  C   UNL     1      30.636 -22.873 -14.709  0.00  0.00    +0.000 C 
ENDBRANCH  17  18
ENDBRANCH  16  17
ENDBRANCH   7  16
TORSDOF 3
ENDMDL
MODEL 6
REMARK VINA RESULT:      -7.7      0.768      2.667
REMARK  Name = 3465283
REMARK  3 active torsions:
REMARK  status: ('A' for Active; 'I' for Inactive)
REMARK    1  A    between atoms: C_7  and  C_16
REMARK    2  A    between atoms: C_16  and  C_17
REMARK    3  A    between atoms: C_17  and  C_18
REMARK                            x       y       z     vdW  Elec       q    Type
REMARK                         _______ _______ _______ _____ _____    ______ ____
ROOT
ATOM      1  O   UNL     1      34.812 -17.028 -25.927  0.00  0.00    -0.264 OA
ATOM      2  O   UNL     1      33.352 -14.549 -21.369  0.00  0.00    -0.264 OA
ATOM      3  N   UNL     1      35.645 -17.969 -23.196  0.00  0.00    -0.314 N 
ATOM      4  N   UNL     1      35.032 -16.931 -21.318  0.00  0.00    -0.314 N 
ATOM      5  N   UNL     1      33.683 -15.330 -24.857  0.00  0.00    -0.262 N 
ATOM      6  N   UNL     1      33.304 -14.686 -23.673  0.00  0.00    -0.262 N 
ATOM      7  C   UNL     1      35.710 -17.939 -21.827  0.00  0.00    +0.144 C 
ATOM      8  C   UNL     1      34.875 -16.908 -23.580  0.00  0.00    +0.122 A 
ATOM      9  C   UNL     1      34.513 -16.291 -22.410  0.00  0.00    +0.122 A 
ATOM     10  C   UNL     1      34.483 -16.468 -24.885  0.00  0.00    +0.286 A 
ATOM     11  C   UNL     1      33.685 -15.114 -22.406  0.00  0.00    +0.286 A 
ATOM     12  H   UNL     1      36.072 -18.627 -23.789  0.00  0.00    +0.148 HD
ATOM     13  H   UNL     1      34.924 -16.692 -20.368  0.00  0.00    +0.148 HD
ATOM     14  H   UNL     1      33.367 -14.960 -25.713  0.00  0.00    +0.190 HD
ATOM     15  H   UNL     1      32.736 -13.885 -23.742  0.00  0.00    +0.190 HD
ENDROOT
BRANCH   7  16
ATOM     16  C   UNL     1      36.472 -18.955 -21.076  0.00  0.00    +0.040 C 
BRANCH  16  17
ATOM     17  C   UNL     1      35.615 -20.180 -20.695  0.00  0.00    +0.003 C 
BRANCH  17  18
ATOM     18  C   UNL     1      36.306 -21.080 -19.671  0.00  0.00    +0.000 C 
ATOM     19  C   UNL     1      35.305 -21.953 -18.931  0.00  0.00    +0.000 C 
ENDBRANCH  17  18
ENDBRANCH  16  17
ENDBRANCH   7  16
TORSDOF 3
ENDMDL
MODEL 7
REMARK VINA RESULT:      -7.6      2.712      5.802
REMARK  Name = 3465283
REMARK  3 active torsions:
REMARK  status: ('A' for Active; 'I' for Inactive)
REMARK    1  A    between atoms: C_7  and  C_16
REMARK    2  A    between atoms: C_16  and  C_17
REMARK    3  A    between atoms: C_17  and  C_18
REMARK                            x       y       z     vdW  Elec       q    Type
REMARK                         _______ _______ _______ _____ _____    ______ ____
ROOT
ATOM      1  O   UNL     1      35.122 -16.433 -20.441  0.00  0.00    -0.264 OA
ATOM      2  O   UNL     1      34.811 -17.043 -25.788  0.00  0.00    -0.264 OA
ATOM      3  N   UNL     1      34.201 -14.257 -22.301  0.00  0.00    -0.314 N 
ATOM      4  N   UNL     1      34.078 -14.526 -24.512  0.00  0.00    -0.314 N 
ATOM      5  N   UNL     1      35.386 -17.745 -22.315  0.00  0.00    -0.262 N 
ATOM      6  N   UNL     1      35.306 -17.904 -23.704  0.00  0.00    -0.262 N 
ATOM      7  C   UNL     1      33.891 -13.691 -23.511  0.00  0.00    +0.144 C 
ATOM      8  C   UNL     1      34.612 -15.535 -22.554  0.00  0.00    +0.122 A 
ATOM      9  C   UNL     1      34.526 -15.672 -23.916  0.00  0.00    +0.122 A 
ATOM     10  C   UNL     1      35.048 -16.565 -21.660  0.00  0.00    +0.286 A 
ATOM     11  C   UNL     1      34.881 -16.904 -24.571  0.00  0.00    +0.286 A 
ATOM     12  H   UNL     1      34.140 -13.826 -21.419  0.00  0.00    +0.148 HD
ATOM     13  H   UNL     1      33.930 -14.362 -25.473  0.00  0.00    +0.148 HD
ATOM     14  H   UNL     1      35.696 -18.508 -21.774  0.00  0.00    +0.190 HD
ATOM     15  H   UNL     1      35.564 -18.773 -24.087  0.00  0.00    +0.190 HD
ENDROOT
BRANCH   7  16
ATOM     16  C   UNL     1      33.409 -12.300 -23.602  0.00  0.00    +0.040 C 
BRANCH  16  17
ATOM     17  C   UNL     1      33.781 -11.630 -24.942  0.00  0.00    +0.003 C 
BRANCH  17  18
ATOM     18  C   UNL     1      34.779 -10.485 -24.763  0.00  0.00    +0.000 C 
ATOM     19  C   UNL     1      35.635 -10.295 -26.005  0.00  0.00    +0.000 C 
ENDBRANCH  17  18
ENDBRANCH  16  17
ENDBRANCH   7  16
TORSDOF 3
ENDMDL
MODEL 8
REMARK VINA RESULT:      -7.6      9.484     11.980
REMARK  Name = 3465283
REMARK  3 active torsions:
REMARK  status: ('A' for Active; 'I' for Inactive)
REMARK    1  A    between atoms: C_7  and  C_16
REMARK    2  A    between atoms: C_16  and  C_17
REMARK    3  A    between atoms: C_17  and  C_18
REMARK                            x       y       z     vdW  Elec       q    Type
REMARK                         _______ _______ _______ _____ _____    ______ ____
ROOT
ATOM      1  O   UNL     1      37.166 -22.366 -11.452  0.00  0.00    -0.264 OA
ATOM      2  O   UNL     1      37.330 -27.170 -13.891  0.00  0.00    -0.264 OA
ATOM      3  N   UNL     1      35.319 -23.144 -13.693  0.00  0.00    -0.314 N 
ATOM      4  N   UNL     1      35.400 -25.137 -14.692  0.00  0.00    -0.314 N 
ATOM      5  N   UNL     1      38.099 -24.460 -11.665  0.00  0.00    -0.262 N 
ATOM      6  N   UNL     1      38.142 -25.708 -12.299  0.00  0.00    -0.262 N 
ATOM      7  C   UNL     1      34.795 -23.968 -14.656  0.00  0.00    +0.144 C 
ATOM      8  C   UNL     1      36.323 -23.838 -13.080  0.00  0.00    +0.122 A 
ATOM      9  C   UNL     1      36.350 -25.055 -13.712  0.00  0.00    +0.122 A 
ATOM     10  C   UNL     1      37.197 -23.459 -12.012  0.00  0.00    +0.286 A 
ATOM     11  C   UNL     1      37.292 -26.076 -13.336  0.00  0.00    +0.286 A 
ATOM     12  H   UNL     1      35.029 -22.228 -13.484  0.00  0.00    +0.148 HD
ATOM     13  H   UNL     1      35.211 -25.898 -15.290  0.00  0.00    +0.148 HD
ATOM     14  H   UNL     1      38.738 -24.283 -10.937  0.00  0.00    +0.190 HD
ATOM     15  H   UNL     1      38.811 -26.362 -11.992  0.00  0.00    +0.190 HD
ENDROOT
BRANCH   7  16
ATOM     16  C   UNL     1      33.681 -23.526 -15.515  0.00  0.00    +0.040 C 
BRANCH  16  17
ATOM     17  C   UNL     1      34.145 -23.123 -16.930  0.00  0.00    +0.003 C 
BRANCH  17  18
ATOM     18  C   UNL     1      32.976 -22.753 -17.844  0.00  0.00    +0.000 C 
ATOM     19  C   UNL     1      33.448 -21.986 -19.069  0.00  0.00    +0.000 C 
ENDBRANCH  17  18
ENDBRANCH  16  17
ENDBRANCH   7  16
TORSDOF 3
ENDMDL
MODEL 9
REMARK VINA RESULT:      -7.6      7.255      9.719
REMARK  Name = 3465283
REMARK  3 active torsions:
REMARK  status: ('A' for Active; 'I' for Inactive)
REMARK    1  A    between atoms: C_7  and  C_16
REMARK    2  A    between atoms: C_16  and  C_17
REMARK    3  A    between atoms: C_17  and  C_18
REMARK                            x       y       z     vdW  Elec       q    Type
REMARK                         _______ _______ _______ _____ _____    ______ ____
ROOT
ATOM      1  O   UNL     1      32.308 -24.517 -13.394  0.00  0.00    -0.264 OA
ATOM      2  O   UNL     1      29.060 -22.487 -17.187  0.00  0.00    -0.264 OA
ATOM      3  N   UNL     1      33.301 -23.470 -16.032  0.00  0.00    -0.314 N 
ATOM      4  N   UNL     1      31.943 -22.632 -17.592  0.00  0.00    -0.314 N 
ATOM      5  N   UNL     1      30.193 -23.962 -14.117  0.00  0.00    -0.262 N 
ATOM      6  N   UNL     1      29.349 -23.435 -15.102  0.00  0.00    -0.262 N 
ATOM      7  C   UNL     1      33.192 -22.910 -17.279  0.00  0.00    +0.144 C 
ATOM      8  C   UNL     1      32.037 -23.552 -15.522  0.00  0.00    +0.122 A 
ATOM      9  C   UNL     1      31.226 -23.033 -16.498  0.00  0.00    +0.122 A 
ATOM     10  C   UNL     1      31.574 -24.052 -14.263  0.00  0.00    +0.286 A 
ATOM     11  C   UNL     1      29.800 -22.949 -16.324  0.00  0.00    +0.286 A 
ATOM     12  H   UNL     1      34.131 -23.758 -15.589  0.00  0.00    +0.148 HD
ATOM     13  H   UNL     1      31.603 -22.229 -18.424  0.00  0.00    +0.148 HD
ATOM     14  H   UNL     1      29.790 -24.283 -13.278  0.00  0.00    +0.190 HD
ATOM     15  H   UNL     1      28.383 -23.406 -14.918  0.00  0.00    +0.190 HD
ENDROOT
BRANCH   7  16
ATOM     16  C   UNL     1      34.383 -22.675 -18.118  0.00  0.00    +0.040 C 
BRANCH  16  17
ATOM     17  C   UNL     1      34.023 -22.360 -19.585  0.00  0.00    +0.003 C 
BRANCH  17  18
ATOM     18  C   UNL     1      34.233 -20.886 -19.933  0.00  0.00    +0.000 C 
ATOM     19  C   UNL     1      32.944 -20.239 -20.416  0.00  0.00    +0.000 C 
ENDBRANCH  17  18
ENDBRANCH  16  17
ENDBRANCH   7  16
TORSDOF 3
ENDMDL
