MODEL 1
REMARK VINA RESULT:     -10.7      0.000      0.000
REMARK  Name = 11957394
REMARK  9 active torsions:
REMARK  status: ('A' for Active; 'I' for Inactive)
REMARK    1  A    between atoms: C_1  and  C_7
REMARK    2  A    between atoms: C_3  and  O_21
REMARK    3  A    between atoms: C_5  and  O_25
REMARK    4  A    between atoms: C_8  and  C_11
REMARK    5  A    between atoms: N_10  and  C_13
REMARK    6  A    between atoms: C_13  and  C_14
REMARK    7  A    between atoms: C_14  and  C_15
REMARK    8  A    between atoms: O_21  and  C_23
REMARK    9  A    between atoms: O_25  and  C_27
REMARK                            x       y       z     vdW  Elec       q    Type
REMARK                         _______ _______ _______ _____ _____    ______ ____
ROOT
ATOM      1  C   UNL     1      33.139 -13.405 -22.945  0.00  0.00    +0.003 C 
ATOM      2  C   UNL     1      33.470 -12.339 -23.782  0.00  0.00    +0.041 C 
ATOM      3  C   UNL     1      32.929 -11.074 -23.547  0.00  0.00    +0.183 C 
ATOM      4  C   UNL     1      32.267 -13.208 -21.875  0.00  0.00    +0.003 C 
ATOM      5  C   UNL     1      32.056 -10.877 -22.477  0.00  0.00    +0.183 C 
ATOM      6  C   UNL     1      31.726 -11.944 -21.641  0.00  0.00    +0.041 C 
ENDROOT
BRANCH   1   7
ATOM      7  C   UNL     1      33.712 -14.741 -23.194  0.00  0.00    +0.005 C 
ATOM      8  C   UNL     1      33.892 -15.278 -24.410  0.00  0.00    +0.058 C 
BRANCH   8  11
ATOM      9  O   UNL     1      34.636 -17.191 -25.625  0.00  0.00    -0.270 OA
ATOM     10  N   UNL     1      34.844 -17.163 -23.310  0.00  0.00    -0.301 N 
ATOM     11  C   UNL     1      34.491 -16.637 -24.541  0.00  0.00    +0.246 C 
ATOM     12  H   UNL     1      34.678 -16.623 -22.504  0.00  0.00    +0.150 HD
BRANCH  10  13
ATOM     13  C   UNL     1      35.445 -18.469 -23.154  0.00  0.00    +0.094 C 
BRANCH  13  14
ATOM     14  C   UNL     1      35.972 -18.706 -21.740  0.00  0.00    +0.048 C 
BRANCH  14  15
ATOM     15  C   UNL     1      35.125 -19.673 -20.951  0.00  0.00    -0.020 C 
ATOM     16  C   UNL     1      35.732 -20.694 -20.218  0.00  0.00    -0.004 C 
ATOM     17  C   UNL     1      33.736 -19.548 -20.954  0.00  0.00    -0.004 C 
ATOM     18  C   UNL     1      34.948 -21.588 -19.488  0.00  0.00    -0.000 C 
ATOM     19  C   UNL     1      32.953 -20.443 -20.224  0.00  0.00    -0.000 C 
ATOM     20  C   UNL     1      33.561 -21.463 -19.491  0.00  0.00    -0.000 C 
ENDBRANCH  14  15
ENDBRANCH  13  14
ENDBRANCH  10  13
ENDBRANCH   8  11
ENDBRANCH   1   7
BRANCH   3  21
ATOM     21  O   UNL     1      33.259 -10.040 -24.369  0.00  0.00    -0.421 OA
BRANCH  21  23
ATOM     22  O   UNL     1      35.252  -9.097 -23.581  0.00  0.00    -0.250 OA
ATOM     23  C   UNL     1      34.634  -9.756 -24.407  0.00  0.00    +0.322 C 
ATOM     24  C   UNL     1      35.254 -10.379 -25.622  0.00  0.00    +0.122 C 
ENDBRANCH  21  23
ENDBRANCH   3  21
BRANCH   5  25
ATOM     25  O   UNL     1      31.519  -9.648 -22.239  0.00  0.00    -0.421 OA
BRANCH  25  27
ATOM     26  O   UNL     1      32.214  -9.271 -20.035  0.00  0.00    -0.250 OA
ATOM     27  C   UNL     1      32.156  -8.935 -21.210  0.00  0.00    +0.322 C 
ATOM     28  C   UNL     1      32.765  -7.679 -21.759  0.00  0.00    +0.122 C 
ENDBRANCH  25  27
ENDBRANCH   5  25
TORSDOF 9
ENDMDL
MODEL 2
REMARK VINA RESULT:     -10.4      7.723     13.328
REMARK  Name = 11957394
REMARK  9 active torsions:
REMARK  status: ('A' for Active; 'I' for Inactive)
REMARK    1  A    between atoms: C_1  and  C_7
REMARK    2  A    between atoms: C_3  and  O_21
REMARK    3  A    between atoms: C_5  and  O_25
REMARK    4  A    between atoms: C_8  and  C_11
REMARK    5  A    between atoms: N_10  and  C_13
REMARK    6  A    between atoms: C_13  and  C_14
REMARK    7  A    between atoms: C_14  and  C_15
REMARK    8  A    between atoms: O_21  and  C_23
REMARK    9  A    between atoms: O_25  and  C_27
REMARK                            x       y       z     vdW  Elec       q    Type
REMARK                         _______ _______ _______ _____ _____    ______ ____
ROOT
ATOM      1  C   UNL     1      35.448 -23.435 -15.632  0.00  0.00    +0.003 C 
ATOM      2  C   UNL     1      36.733 -23.846 -15.274  0.00  0.00    +0.041 C 
ATOM      3  C   UNL     1      36.951 -24.456 -14.038  0.00  0.00    +0.183 C 
ATOM      4  C   UNL     1      34.383 -23.634 -14.754  0.00  0.00    +0.003 C 
ATOM      5  C   UNL     1      35.885 -24.654 -13.161  0.00  0.00    +0.183 C 
ATOM      6  C   UNL     1      34.602 -24.243 -13.519  0.00  0.00    +0.041 C 
ENDROOT
BRANCH   1   7
ATOM      7  C   UNL     1      35.219 -22.791 -16.938  0.00  0.00    +0.005 C 
ATOM      8  C   UNL     1      34.109 -22.943 -17.677  0.00  0.00    +0.058 C 
BRANCH   8  11
ATOM      9  O   UNL     1      32.975 -22.306 -19.677  0.00  0.00    -0.270 OA
ATOM     10  N   UNL     1      35.123 -21.510 -19.286  0.00  0.00    -0.301 N 
ATOM     11  C   UNL     1      33.983 -22.233 -18.982  0.00  0.00    +0.246 C 
ATOM     12  H   UNL     1      35.874 -21.527 -18.648  0.00  0.00    +0.150 HD
BRANCH  10  13
ATOM     13  C   UNL     1      35.264 -20.731 -20.495  0.00  0.00    +0.094 C 
BRANCH  13  14
ATOM     14  C   UNL     1      34.158 -19.688 -20.653  0.00  0.00    +0.048 C 
BRANCH  14  15
ATOM     15  C   UNL     1      34.474 -18.649 -21.700  0.00  0.00    -0.020 C 
ATOM     16  C   UNL     1      34.698 -19.036 -23.021  0.00  0.00    -0.004 C 
ATOM     17  C   UNL     1      34.544 -17.302 -21.347  0.00  0.00    -0.004 C 
ATOM     18  C   UNL     1      34.989 -18.074 -23.989  0.00  0.00    -0.000 C 
ATOM     19  C   UNL     1      34.836 -16.340 -22.315  0.00  0.00    -0.000 C 
ATOM     20  C   UNL     1      35.058 -16.728 -23.636  0.00  0.00    -0.000 C 
ENDBRANCH  14  15
ENDBRANCH  13  14
ENDBRANCH  10  13
ENDBRANCH   8  11
ENDBRANCH   1   7
BRANCH   3  21
ATOM     21  O   UNL     1      38.209 -24.854 -13.700  0.00  0.00    -0.421 OA
BRANCH  21  23
ATOM     22  O   UNL     1      38.178 -26.952 -14.739  0.00  0.00    -0.250 OA
ATOM     23  C   UNL     1      38.722 -25.879 -14.510  0.00  0.00    +0.322 C 
ATOM     24  C   UNL     1      40.056 -25.476 -15.066  0.00  0.00    +0.122 C 
ENDBRANCH  21  23
ENDBRANCH   3  21
BRANCH   5  25
ATOM     25  O   UNL     1      36.086 -25.246 -11.950  0.00  0.00    -0.421 OA
BRANCH  25  27
ATOM     26  O   UNL     1      35.256 -24.583  -9.865  0.00  0.00    -0.250 OA
ATOM     27  C   UNL     1      35.940 -24.377 -10.858  0.00  0.00    +0.322 C 
ATOM     28  C   UNL     1      36.753 -23.136 -11.079  0.00  0.00    +0.122 C 
ENDBRANCH  25  27
ENDBRANCH   5  25
TORSDOF 9
ENDMDL
MODEL 3
REMARK VINA RESULT:     -10.3      1.448      2.974
REMARK  Name = 11957394
REMARK  9 active torsions:
REMARK  status: ('A' for Active; 'I' for Inactive)
REMARK    1  A    between atoms: C_1  and  C_7
REMARK    2  A    between atoms: C_3  and  O_21
REMARK    3  A    between atoms: C_5  and  O_25
REMARK    4  A    between atoms: C_8  and  C_11
REMARK    5  A    between atoms: N_10  and  C_13
REMARK    6  A    between atoms: C_13  and  C_14
REMARK    7  A    between atoms: C_14  and  C_15
REMARK    8  A    between atoms: O_21  and  C_23
REMARK    9  A    between atoms: O_25  and  C_27
REMARK                            x       y       z     vdW  Elec       q    Type
REMARK                         _______ _______ _______ _____ _____    ______ ____
ROOT
ATOM      1  C   UNL     1      33.635 -11.335 -23.828  0.00  0.00    +0.003 C 
ATOM      2  C   UNL     1      32.632 -10.935 -22.944  0.00  0.00    +0.041 C 
ATOM      3  C   UNL     1      32.525  -9.595 -22.572  0.00  0.00    +0.183 C 
ATOM      4  C   UNL     1      34.530 -10.395 -24.339  0.00  0.00    +0.003 C 
ATOM      5  C   UNL     1      33.420  -8.655 -23.084  0.00  0.00    +0.183 C 
ATOM      6  C   UNL     1      34.422  -9.056 -23.967  0.00  0.00    +0.041 C 
ENDROOT
BRANCH   1   7
ATOM      7  C   UNL     1      33.748 -12.751 -24.221  0.00  0.00    +0.005 C 
ATOM      8  C   UNL     1      33.825 -13.776 -23.360  0.00  0.00    +0.058 C 
BRANCH   8  11
ATOM      9  O   UNL     1      33.475 -15.509 -24.962  0.00  0.00    -0.270 OA
ATOM     10  N   UNL     1      34.581 -16.002 -22.978  0.00  0.00    -0.301 N 
ATOM     11  C   UNL     1      33.928 -15.173 -23.873  0.00  0.00    +0.246 C 
ATOM     12  H   UNL     1      34.901 -15.618 -22.130  0.00  0.00    +0.150 HD
BRANCH  10  13
ATOM     13  C   UNL     1      34.812 -17.407 -23.230  0.00  0.00    +0.094 C 
BRANCH  13  14
ATOM     14  C   UNL     1      35.702 -18.053 -22.170  0.00  0.00    +0.048 C 
BRANCH  14  15
ATOM     15  C   UNL     1      34.979 -19.091 -21.347  0.00  0.00    -0.020 C 
ATOM     16  C   UNL     1      35.703 -20.053 -20.644  0.00  0.00    -0.004 C 
ATOM     17  C   UNL     1      33.585 -19.088 -21.290  0.00  0.00    -0.004 C 
ATOM     18  C   UNL     1      35.034 -21.013 -19.884  0.00  0.00    -0.000 C 
ATOM     19  C   UNL     1      32.916 -20.048 -20.530  0.00  0.00    -0.000 C 
ATOM     20  C   UNL     1      33.641 -21.009 -19.827  0.00  0.00    -0.000 C 
ENDBRANCH  14  15
ENDBRANCH  13  14
ENDBRANCH  10  13
ENDBRANCH   8  11
ENDBRANCH   1   7
BRANCH   3  21
ATOM     21  O   UNL     1      31.542  -9.215 -21.710  0.00  0.00    -0.421 OA
BRANCH  21  23
ATOM     22  O   UNL     1      32.612  -8.584 -19.725  0.00  0.00    -0.250 OA
ATOM     23  C   UNL     1      31.887  -9.343 -20.355  0.00  0.00    +0.322 C 
ATOM     24  C   UNL     1      31.236 -10.562 -19.772  0.00  0.00    +0.122 C 
ENDBRANCH  21  23
ENDBRANCH   3  21
BRANCH   5  25
ATOM     25  O   UNL     1      33.326  -7.344 -22.726  0.00  0.00    -0.421 OA
BRANCH  25  27
ATOM     26  O   UNL     1      31.910  -6.752 -24.494  0.00  0.00    -0.250 OA
ATOM     27  C   UNL     1      32.253  -6.664 -23.323  0.00  0.00    +0.322 C 
ATOM     28  C   UNL     1      31.571  -5.793 -22.308  0.00  0.00    +0.122 C 
ENDBRANCH  25  27
ENDBRANCH   5  25
TORSDOF 9
ENDMDL
MODEL 4
REMARK VINA RESULT:     -10.3      7.323     13.020
REMARK  Name = 11957394
REMARK  9 active torsions:
REMARK  status: ('A' for Active; 'I' for Inactive)
REMARK    1  A    between atoms: C_1  and  C_7
REMARK    2  A    between atoms: C_3  and  O_21
REMARK    3  A    between atoms: C_5  and  O_25
REMARK    4  A    between atoms: C_8  and  C_11
REMARK    5  A    between atoms: N_10  and  C_13
REMARK    6  A    between atoms: C_13  and  C_14
REMARK    7  A    between atoms: C_14  and  C_15
REMARK    8  A    between atoms: O_21  and  C_23
REMARK    9  A    between atoms: O_25  and  C_27
REMARK                            x       y       z     vdW  Elec       q    Type
REMARK                         _______ _______ _______ _____ _____    ______ ____
ROOT
ATOM      1  C   UNL     1      36.387 -22.644 -16.155  0.00  0.00    +0.003 C 
ATOM      2  C   UNL     1      37.611 -23.177 -15.747  0.00  0.00    +0.041 C 
ATOM      3  C   UNL     1      37.703 -23.866 -14.537  0.00  0.00    +0.183 C 
ATOM      4  C   UNL     1      35.257 -22.798 -15.352  0.00  0.00    +0.003 C 
ATOM      5  C   UNL     1      36.572 -24.020 -13.735  0.00  0.00    +0.183 C 
ATOM      6  C   UNL     1      35.350 -23.485 -14.142  0.00  0.00    +0.041 C 
ENDROOT
BRANCH   1   7
ATOM      7  C   UNL     1      36.291 -21.917 -17.433  0.00  0.00    +0.005 C 
ATOM      8  C   UNL     1      35.357 -22.145 -18.370  0.00  0.00    +0.058 C 
BRANCH   8  11
ATOM      9  O   UNL     1      36.349 -21.206 -20.327  0.00  0.00    -0.270 OA
ATOM     10  N   UNL     1      34.109 -20.784 -19.872  0.00  0.00    -0.301 N 
ATOM     11  C   UNL     1      35.352 -21.339 -19.624  0.00  0.00    +0.246 C 
ATOM     12  H   UNL     1      33.380 -20.960 -19.234  0.00  0.00    +0.150 HD
BRANCH  10  13
ATOM     13  C   UNL     1      33.831 -19.955 -21.024  0.00  0.00    +0.094 C 
BRANCH  13  14
ATOM     14  C   UNL     1      34.767 -18.752 -21.120  0.00  0.00    +0.048 C 
BRANCH  14  15
ATOM     15  C   UNL     1      34.769 -18.115 -22.488  0.00  0.00    -0.020 C 
ATOM     16  C   UNL     1      34.900 -16.732 -22.614  0.00  0.00    -0.004 C 
ATOM     17  C   UNL     1      34.638 -18.909 -23.627  0.00  0.00    -0.004 C 
ATOM     18  C   UNL     1      34.902 -16.143 -23.878  0.00  0.00    -0.000 C 
ATOM     19  C   UNL     1      34.640 -18.320 -24.892  0.00  0.00    -0.000 C 
ATOM     20  C   UNL     1      34.772 -16.937 -25.016  0.00  0.00    -0.000 C 
ENDBRANCH  14  15
ENDBRANCH  13  14
ENDBRANCH  10  13
ENDBRANCH   8  11
ENDBRANCH   1   7
BRANCH   3  21
ATOM     21  O   UNL     1      38.901 -24.384 -14.150  0.00  0.00    -0.421 OA
BRANCH  21  23
ATOM     22  O   UNL     1      38.293 -26.461 -15.042  0.00  0.00    -0.250 OA
ATOM     23  C   UNL     1      39.139 -25.686 -14.616  0.00  0.00    +0.322 C 
ATOM     24  C   UNL     1      40.601 -26.007 -14.517  0.00  0.00    +0.122 C 
ENDBRANCH  21  23
ENDBRANCH   3  21
BRANCH   5  25
ATOM     25  O   UNL     1      36.649 -24.688 -12.550  0.00  0.00    -0.421 OA
BRANCH  25  27
ATOM     26  O   UNL     1      37.427 -22.910 -11.240  0.00  0.00    -0.250 OA
ATOM     27  C   UNL     1      36.667 -23.852 -11.422  0.00  0.00    +0.322 C 
ATOM     28  C   UNL     1      35.608 -24.281 -10.450  0.00  0.00    +0.122 C 
ENDBRANCH  25  27
ENDBRANCH   5  25
TORSDOF 9
ENDMDL
MODEL 5
REMARK VINA RESULT:     -10.2      6.988     13.051
REMARK  Name = 11957394
REMARK  9 active torsions:
REMARK  status: ('A' for Active; 'I' for Inactive)
REMARK    1  A    between atoms: C_1  and  C_7
REMARK    2  A    between atoms: C_3  and  O_21
REMARK    3  A    between atoms: C_5  and  O_25
REMARK    4  A    between atoms: C_8  and  C_11
REMARK    5  A    between atoms: N_10  and  C_13
REMARK    6  A    between atoms: C_13  and  C_14
REMARK    7  A    between atoms: C_14  and  C_15
REMARK    8  A    between atoms: O_21  and  C_23
REMARK    9  A    between atoms: O_25  and  C_27
REMARK                            x       y       z     vdW  Elec       q    Type
REMARK                         _______ _______ _______ _____ _____    ______ ____
ROOT
ATOM      1  C   UNL     1      36.182 -22.656 -16.716  0.00  0.00    +0.003 C 
ATOM      2  C   UNL     1      35.448 -23.461 -15.843  0.00  0.00    +0.041 C 
ATOM      3  C   UNL     1      36.100 -24.167 -14.831  0.00  0.00    +0.183 C 
ATOM      4  C   UNL     1      37.566 -22.557 -16.576  0.00  0.00    +0.003 C 
ATOM      5  C   UNL     1      37.484 -24.067 -14.692  0.00  0.00    +0.183 C 
ATOM      6  C   UNL     1      38.217 -23.263 -15.564  0.00  0.00    +0.041 C 
ENDROOT
BRANCH   1   7
ATOM      7  C   UNL     1      35.493 -21.911 -17.785  0.00  0.00    +0.005 C 
ATOM      8  C   UNL     1      34.470 -22.390 -18.509  0.00  0.00    +0.058 C 
BRANCH   8  11
ATOM      9  O   UNL     1      32.733 -21.777 -20.024  0.00  0.00    -0.270 OA
ATOM     10  N   UNL     1      34.663 -20.486 -19.927  0.00  0.00    -0.301 N 
ATOM     11  C   UNL     1      33.843 -21.540 -19.561  0.00  0.00    +0.246 C 
ATOM     12  H   UNL     1      35.538 -20.397 -19.484  0.00  0.00    +0.150 HD
BRANCH  10  13
ATOM     13  C   UNL     1      34.295 -19.512 -20.929  0.00  0.00    +0.094 C 
BRANCH  13  14
ATOM     14  C   UNL     1      35.511 -18.867 -21.594  0.00  0.00    +0.048 C 
BRANCH  14  15
ATOM     15  C   UNL     1      35.157 -18.082 -22.832  0.00  0.00    -0.020 C 
ATOM     16  C   UNL     1      34.804 -18.750 -24.005  0.00  0.00    -0.004 C 
ATOM     17  C   UNL     1      35.182 -16.687 -22.805  0.00  0.00    -0.004 C 
ATOM     18  C   UNL     1      34.477 -18.023 -25.150  0.00  0.00    -0.000 C 
ATOM     19  C   UNL     1      34.855 -15.961 -23.950  0.00  0.00    -0.000 C 
ATOM     20  C   UNL     1      34.502 -16.630 -25.122  0.00  0.00    -0.000 C 
ENDBRANCH  14  15
ENDBRANCH  13  14
ENDBRANCH  10  13
ENDBRANCH   8  11
ENDBRANCH   1   7
BRANCH   3  21
ATOM     21  O   UNL     1      35.374 -24.948 -13.984  0.00  0.00    -0.421 OA
BRANCH  21  23
ATOM     22  O   UNL     1      33.431 -23.921 -13.177  0.00  0.00    -0.250 OA
ATOM     23  C   UNL     1      34.610 -24.227 -13.053  0.00  0.00    +0.322 C 
ATOM     24  C   UNL     1      35.450 -23.874 -11.862  0.00  0.00    +0.122 C 
ENDBRANCH  21  23
ENDBRANCH   3  21
BRANCH   5  25
ATOM     25  O   UNL     1      38.132 -24.753 -13.708  0.00  0.00    -0.421 OA
BRANCH  25  27
ATOM     26  O   UNL     1      38.306 -26.908 -14.604  0.00  0.00    -0.250 OA
ATOM     27  C   UNL     1      38.819 -25.890 -14.162  0.00  0.00    +0.322 C 
ATOM     28  C   UNL     1      40.299 -25.682 -14.024  0.00  0.00    +0.122 C 
ENDBRANCH  25  27
ENDBRANCH   5  25
TORSDOF 9
ENDMDL
MODEL 6
REMARK VINA RESULT:     -10.1      3.981      7.233
REMARK  Name = 11957394
REMARK  9 active torsions:
REMARK  status: ('A' for Active; 'I' for Inactive)
REMARK    1  A    between atoms: C_1  and  C_7
REMARK    2  A    between atoms: C_3  and  O_21
REMARK    3  A    between atoms: C_5  and  O_25
REMARK    4  A    between atoms: C_8  and  C_11
REMARK    5  A    between atoms: N_10  and  C_13
REMARK    6  A    between atoms: C_13  and  C_14
REMARK    7  A    between atoms: C_14  and  C_15
REMARK    8  A    between atoms: O_21  and  C_23
REMARK    9  A    between atoms: O_25  and  C_27
REMARK                            x       y       z     vdW  Elec       q    Type
REMARK                         _______ _______ _______ _____ _____    ______ ____
ROOT
ATOM      1  C   UNL     1      35.044 -19.107 -22.151  0.00  0.00    +0.003 C 
ATOM      2  C   UNL     1      35.096 -17.767 -21.767  0.00  0.00    +0.041 C 
ATOM      3  C   UNL     1      35.046 -16.762 -22.734  0.00  0.00    +0.183 C 
ATOM      4  C   UNL     1      34.944 -19.443 -23.501  0.00  0.00    +0.003 C 
ATOM      5  C   UNL     1      34.944 -17.098 -24.085  0.00  0.00    +0.183 C 
ATOM      6  C   UNL     1      34.894 -18.438 -24.467  0.00  0.00    +0.041 C 
ENDROOT
BRANCH   1   7
ATOM      7  C   UNL     1      35.097 -20.168 -21.129  0.00  0.00    +0.005 C 
ATOM      8  C   UNL     1      34.096 -20.463 -20.286  0.00  0.00    +0.058 C 
BRANCH   8  11
ATOM      9  O   UNL     1      35.357 -21.923 -18.882  0.00  0.00    -0.270 OA
ATOM     10  N   UNL     1      33.041 -22.111 -18.929  0.00  0.00    -0.301 N 
ATOM     11  C   UNL     1      34.259 -21.566 -19.297  0.00  0.00    +0.246 C 
ATOM     12  H   UNL     1      32.221 -21.741 -19.331  0.00  0.00    +0.150 HD
BRANCH  10  13
ATOM     13  C   UNL     1      32.915 -23.197 -17.983  0.00  0.00    +0.094 C 
BRANCH  13  14
ATOM     14  C   UNL     1      32.646 -22.708 -16.562  0.00  0.00    +0.048 C 
BRANCH  14  15
ATOM     15  C   UNL     1      31.491 -23.421 -15.903  0.00  0.00    -0.020 C 
ATOM     16  C   UNL     1      30.197 -23.258 -16.398  0.00  0.00    -0.004 C 
ATOM     17  C   UNL     1      31.716 -24.242 -14.798  0.00  0.00    -0.004 C 
ATOM     18  C   UNL     1      29.129 -23.917 -15.789  0.00  0.00    -0.000 C 
ATOM     19  C   UNL     1      30.649 -24.901 -14.189  0.00  0.00    -0.000 C 
ATOM     20  C   UNL     1      29.355 -24.738 -14.686  0.00  0.00    -0.000 C 
ENDBRANCH  14  15
ENDBRANCH  13  14
ENDBRANCH  10  13
ENDBRANCH   8  11
ENDBRANCH   1   7
BRANCH   3  21
ATOM     21  O   UNL     1      35.095 -15.457 -22.349  0.00  0.00    -0.421 OA
BRANCH  21  23
ATOM     22  O   UNL     1      34.925 -15.163 -20.032  0.00  0.00    -0.250 OA
ATOM     23  C   UNL     1      34.420 -15.189 -21.147  0.00  0.00    +0.322 C 
ATOM     24  C   UNL     1      32.967 -14.935 -21.420  0.00  0.00    +0.122 C 
ENDBRANCH  21  23
ENDBRANCH   3  21
BRANCH   5  25
ATOM     25  O   UNL     1      34.897 -16.126 -25.038  0.00  0.00    -0.421 OA
BRANCH  25  27
ATOM     26  O   UNL     1      32.981 -16.634 -26.284  0.00  0.00    -0.250 OA
ATOM     27  C   UNL     1      33.611 -15.887 -25.547  0.00  0.00    +0.322 C 
ATOM     28  C   UNL     1      33.105 -14.562 -25.058  0.00  0.00    +0.122 C 
ENDBRANCH  25  27
ENDBRANCH   5  25
TORSDOF 9
ENDMDL
MODEL 7
REMARK VINA RESULT:     -10.1      2.729      9.722
REMARK  Name = 11957394
REMARK  9 active torsions:
REMARK  status: ('A' for Active; 'I' for Inactive)
REMARK    1  A    between atoms: C_1  and  C_7
REMARK    2  A    between atoms: C_3  and  O_21
REMARK    3  A    between atoms: C_5  and  O_25
REMARK    4  A    between atoms: C_8  and  C_11
REMARK    5  A    between atoms: N_10  and  C_13
REMARK    6  A    between atoms: C_13  and  C_14
REMARK    7  A    between atoms: C_14  and  C_15
REMARK    8  A    between atoms: O_21  and  C_23
REMARK    9  A    between atoms: O_25  and  C_27
REMARK                            x       y       z     vdW  Elec       q    Type
REMARK                         _______ _______ _______ _____ _____    ______ ____
ROOT
ATOM      1  C   UNL     1      33.607 -14.438 -22.009  0.00  0.00    +0.003 C 
ATOM      2  C   UNL     1      34.127 -14.991 -23.179  0.00  0.00    +0.041 C 
ATOM      3  C   UNL     1      34.867 -16.172 -23.123  0.00  0.00    +0.183 C 
ATOM      4  C   UNL     1      33.827 -15.065 -20.783  0.00  0.00    +0.003 C 
ATOM      5  C   UNL     1      35.087 -16.800 -21.897  0.00  0.00    +0.183 C 
ATOM      6  C   UNL     1      34.567 -16.246 -20.727  0.00  0.00    +0.041 C 
ENDROOT
BRANCH   1   7
ATOM      7  C   UNL     1      32.825 -13.190 -22.069  0.00  0.00    +0.005 C 
ATOM      8  C   UNL     1      32.086 -12.705 -21.059  0.00  0.00    +0.058 C 
BRANCH   8  11
ATOM      9  O   UNL     1      30.146 -11.319 -20.981  0.00  0.00    -0.270 OA
ATOM     10  N   UNL     1      32.163 -10.412 -21.697  0.00  0.00    -0.301 N 
ATOM     11  C   UNL     1      31.342 -11.424 -21.231  0.00  0.00    +0.246 C 
ATOM     12  H   UNL     1      33.112 -10.616 -21.863  0.00  0.00    +0.150 HD
BRANCH  10  13
ATOM     13  C   UNL     1      31.692  -9.069 -21.951  0.00  0.00    +0.094 C 
BRANCH  13  14
ATOM     14  C   UNL     1      32.785  -8.019 -21.763  0.00  0.00    +0.048 C 
BRANCH  14  15
ATOM     15  C   UNL     1      33.124  -7.287 -23.038  0.00  0.00    -0.020 C 
ATOM     16  C   UNL     1      34.385  -7.438 -23.616  0.00  0.00    -0.004 C 
ATOM     17  C   UNL     1      32.176  -6.458 -23.639  0.00  0.00    -0.004 C 
ATOM     18  C   UNL     1      34.697  -6.761 -24.795  0.00  0.00    -0.000 C 
ATOM     19  C   UNL     1      32.489  -5.781 -24.819  0.00  0.00    -0.000 C 
ATOM     20  C   UNL     1      33.750  -5.934 -25.396  0.00  0.00    -0.000 C 
ENDBRANCH  14  15
ENDBRANCH  13  14
ENDBRANCH  10  13
ENDBRANCH   8  11
ENDBRANCH   1   7
BRANCH   3  21
ATOM     21  O   UNL     1      35.369 -16.704 -24.272  0.00  0.00    -0.421 OA
BRANCH  21  23
ATOM     22  O   UNL     1      33.699 -16.622 -25.911  0.00  0.00    -0.250 OA
ATOM     23  C   UNL     1      34.396 -17.249 -25.124  0.00  0.00    +0.322 C 
ATOM     24  C   UNL     1      34.321 -18.735 -24.933  0.00  0.00    +0.122 C 
ENDBRANCH  21  23
ENDBRANCH   3  21
BRANCH   5  25
ATOM     25  O   UNL     1      35.810 -17.952 -21.829  0.00  0.00    -0.421 OA
BRANCH  25  27
ATOM     26  O   UNL     1      33.893 -19.262 -21.530  0.00  0.00    -0.250 OA
ATOM     27  C   UNL     1      35.085 -19.055 -21.349  0.00  0.00    +0.322 C 
ATOM     28  C   UNL     1      35.989 -19.961 -20.567  0.00  0.00    +0.122 C 
ENDBRANCH  25  27
ENDBRANCH   5  25
TORSDOF 9
ENDMDL
MODEL 8
REMARK VINA RESULT:     -10.0      6.965     13.014
REMARK  Name = 11957394
REMARK  9 active torsions:
REMARK  status: ('A' for Active; 'I' for Inactive)
REMARK    1  A    between atoms: C_1  and  C_7
REMARK    2  A    between atoms: C_3  and  O_21
REMARK    3  A    between atoms: C_5  and  O_25
REMARK    4  A    between atoms: C_8  and  C_11
REMARK    5  A    between atoms: N_10  and  C_13
REMARK    6  A    between atoms: C_13  and  C_14
REMARK    7  A    between atoms: C_14  and  C_15
REMARK    8  A    between atoms: O_21  and  C_23
REMARK    9  A    between atoms: O_25  and  C_27
REMARK                            x       y       z     vdW  Elec       q    Type
REMARK                         _______ _______ _______ _____ _____    ______ ____
ROOT
ATOM      1  C   UNL     1      36.165 -22.604 -16.758  0.00  0.00    +0.003 C 
ATOM      2  C   UNL     1      35.400 -23.418 -15.922  0.00  0.00    +0.041 C 
ATOM      3  C   UNL     1      36.018 -24.162 -14.916  0.00  0.00    +0.183 C 
ATOM      4  C   UNL     1      37.548 -22.534 -16.588  0.00  0.00    +0.003 C 
ATOM      5  C   UNL     1      37.401 -24.091 -14.746  0.00  0.00    +0.183 C 
ATOM      6  C   UNL     1      38.165 -23.278 -15.583  0.00  0.00    +0.041 C 
ENDROOT
BRANCH   1   7
ATOM      7  C   UNL     1      35.512 -21.818 -17.820  0.00  0.00    +0.005 C 
ATOM      8  C   UNL     1      34.540 -22.281 -18.620  0.00  0.00    +0.058 C 
BRANCH   8  11
ATOM      9  O   UNL     1      32.803 -21.543 -20.080  0.00  0.00    -0.270 OA
ATOM     10  N   UNL     1      34.831 -20.407 -20.060  0.00  0.00    -0.301 N 
ATOM     11  C   UNL     1      33.944 -21.390 -19.657  0.00  0.00    +0.246 C 
ATOM     12  H   UNL     1      35.725 -20.384 -19.648  0.00  0.00    +0.150 HD
BRANCH  10  13
ATOM     13  C   UNL     1      34.505 -19.412 -21.057  0.00  0.00    +0.094 C 
BRANCH  13  14
ATOM     14  C   UNL     1      35.630 -18.398 -21.263  0.00  0.00    +0.048 C 
BRANCH  14  15
ATOM     15  C   UNL     1      35.126 -17.036 -21.671  0.00  0.00    -0.020 C 
ATOM     16  C   UNL     1      34.755 -16.108 -20.698  0.00  0.00    -0.004 C 
ATOM     17  C   UNL     1      35.032 -16.703 -23.023  0.00  0.00    -0.004 C 
ATOM     18  C   UNL     1      34.290 -14.849 -21.076  0.00  0.00    -0.000 C 
ATOM     19  C   UNL     1      34.567 -15.443 -23.401  0.00  0.00    -0.000 C 
ATOM     20  C   UNL     1      34.196 -14.517 -22.426  0.00  0.00    -0.000 C 
ENDBRANCH  14  15
ENDBRANCH  13  14
ENDBRANCH  10  13
ENDBRANCH   8  11
ENDBRANCH   1   7
BRANCH   3  21
ATOM     21  O   UNL     1      35.261 -24.951 -14.105  0.00  0.00    -0.421 OA
BRANCH  21  23
ATOM     22  O   UNL     1      33.299 -23.979 -13.274  0.00  0.00    -0.250 OA
ATOM     23  C   UNL     1      34.491 -24.241 -13.170  0.00  0.00    +0.322 C 
ATOM     24  C   UNL     1      35.342 -23.838 -12.003  0.00  0.00    +0.122 C 
ENDBRANCH  21  23
ENDBRANCH   3  21
BRANCH   5  25
ATOM     25  O   UNL     1      38.016 -24.814 -13.769  0.00  0.00    -0.421 OA
BRANCH  25  27
ATOM     26  O   UNL     1      38.270 -26.937 -14.722  0.00  0.00    -0.250 OA
ATOM     27  C   UNL     1      38.745 -25.915 -14.246  0.00  0.00    +0.322 C 
ATOM     28  C   UNL     1      40.215 -25.664 -14.085  0.00  0.00    +0.122 C 
ENDBRANCH  25  27
ENDBRANCH   5  25
TORSDOF 9
ENDMDL
MODEL 9
REMARK VINA RESULT:      -9.9      7.108     12.818
REMARK  Name = 11957394
REMARK  9 active torsions:
REMARK  status: ('A' for Active; 'I' for Inactive)
REMARK    1  A    between atoms: C_1  and  C_7
REMARK    2  A    between atoms: C_3  and  O_21
REMARK    3  A    between atoms: C_5  and  O_25
REMARK    4  A    between atoms: C_8  and  C_11
REMARK    5  A    between atoms: N_10  and  C_13
REMARK    6  A    between atoms: C_13  and  C_14
REMARK    7  A    between atoms: C_14  and  C_15
REMARK    8  A    between atoms: O_21  and  C_23
REMARK    9  A    between atoms: O_25  and  C_27
REMARK                            x       y       z     vdW  Elec       q    Type
REMARK                         _______ _______ _______ _____ _____    ______ ____
ROOT
ATOM      1  C   UNL     1      35.428 -22.884 -16.254  0.00  0.00    +0.003 C 
ATOM      2  C   UNL     1      34.338 -23.616 -15.782  0.00  0.00    +0.041 C 
ATOM      3  C   UNL     1      34.354 -24.133 -14.486  0.00  0.00    +0.183 C 
ATOM      4  C   UNL     1      36.533 -22.669 -15.430  0.00  0.00    +0.003 C 
ATOM      5  C   UNL     1      35.458 -23.916 -13.662  0.00  0.00    +0.183 C 
ATOM      6  C   UNL     1      36.548 -23.185 -14.135  0.00  0.00    +0.041 C 
ENDROOT
BRANCH   1   7
ATOM      7  C   UNL     1      35.412 -22.339 -17.623  0.00  0.00    +0.005 C 
ATOM      8  C   UNL     1      36.407 -21.626 -18.171  0.00  0.00    +0.058 C 
BRANCH   8  11
ATOM      9  O   UNL     1      35.800 -21.813 -20.471  0.00  0.00    -0.270 OA
ATOM     10  N   UNL     1      36.775 -19.845 -19.709  0.00  0.00    -0.301 N 
ATOM     11  C   UNL     1      36.284 -21.132 -19.573  0.00  0.00    +0.246 C 
ATOM     12  H   UNL     1      37.142 -19.397 -18.913  0.00  0.00    +0.150 HD
BRANCH  10  13
ATOM     13  C   UNL     1      36.777 -19.131 -20.965  0.00  0.00    +0.094 C 
BRANCH  13  14
ATOM     14  C   UNL     1      35.557 -18.224 -21.125  0.00  0.00    +0.048 C 
BRANCH  14  15
ATOM     15  C   UNL     1      35.165 -18.014 -22.567  0.00  0.00    -0.020 C 
ATOM     16  C   UNL     1      35.123 -16.725 -23.098  0.00  0.00    -0.004 C 
ATOM     17  C   UNL     1      34.844 -19.109 -23.369  0.00  0.00    -0.004 C 
ATOM     18  C   UNL     1      34.760 -16.531 -24.431  0.00  0.00    -0.000 C 
ATOM     19  C   UNL     1      34.481 -18.915 -24.702  0.00  0.00    -0.000 C 
ATOM     20  C   UNL     1      34.440 -17.625 -25.232  0.00  0.00    -0.000 C 
ENDBRANCH  14  15
ENDBRANCH  13  14
ENDBRANCH  10  13
ENDBRANCH   8  11
ENDBRANCH   1   7
BRANCH   3  21
ATOM     21  O   UNL     1      33.284 -24.845 -14.035  0.00  0.00    -0.421 OA
BRANCH  21  23
ATOM     22  O   UNL     1      32.030 -23.198 -12.940  0.00  0.00    -0.250 OA
ATOM     23  C   UNL     1      32.139 -24.068 -13.795  0.00  0.00    +0.322 C 
ATOM     24  C   UNL     1      31.046 -24.458 -14.744  0.00  0.00    +0.122 C 
ENDBRANCH  21  23
ENDBRANCH   3  21
BRANCH   5  25
ATOM     25  O   UNL     1      35.486 -24.417 -12.395  0.00  0.00    -0.421 OA
BRANCH  25  27
ATOM     26  O   UNL     1      37.460 -24.285 -11.144  0.00  0.00    -0.250 OA
ATOM     27  C   UNL     1      36.756 -24.842 -11.976  0.00  0.00    +0.322 C 
ATOM     28  C   UNL     1      37.143 -26.096 -12.704  0.00  0.00    +0.122 C 
ENDBRANCH  25  27
ENDBRANCH   5  25
TORSDOF 9
ENDMDL
