MODEL 1
REMARK VINA RESULT:      -9.5      0.000      0.000
REMARK  Name = 1121782
REMARK  8 active torsions:
REMARK  status: ('A' for Active; 'I' for Inactive)
REMARK    1  A    between atoms: C_2  and  S_22
REMARK    2  A    between atoms: C_5  and  C_10
REMARK    3  A    between atoms: N_9  and  C_12
REMARK    4  A    between atoms: C_13  and  C_19
REMARK    5  A    between atoms: C_19  and  O_20
REMARK    6  A    between atoms: S_22  and  N_25
REMARK    7  A    between atoms: N_25  and  C_26
REMARK    8  A    between atoms: N_25  and  C_28
REMARK                            x       y       z     vdW  Elec       q    Type
REMARK                         _______ _______ _______ _____ _____    ______ ____
ROOT
ATOM      1 BR   UNL     1      34.087  -7.434 -23.876  0.00  0.00    -0.048 Br
ATOM      2  C   UNL     1      32.847  -9.999 -23.366  0.00  0.00    +0.128 C 
ATOM      3  C   UNL     1      32.730 -11.377 -23.464  0.00  0.00    +0.025 C 
ATOM      4  C   UNL     1      33.885  -9.318 -23.982  0.00  0.00    +0.053 C 
ATOM      5  C   UNL     1      33.676 -12.093 -24.197  0.00  0.00    +0.055 C 
ATOM      6  C   UNL     1      34.830 -10.034 -24.716  0.00  0.00    +0.008 C 
ATOM      7  C   UNL     1      34.727 -11.421 -24.824  0.00  0.00    +0.005 C 
ENDROOT
BRANCH   5  10
ATOM      8  O   UNL     1      32.755 -14.021 -25.114  0.00  0.00    -0.270 OA
ATOM      9  N   UNL     1      34.433 -14.281 -23.494  0.00  0.00    -0.280 N 
ATOM     10  C   UNL     1      33.568 -13.538 -24.309  0.00  0.00    +0.250 C 
ATOM     11  H   UNL     1      35.023 -13.756 -22.906  0.00  0.00    +0.155 HD
BRANCH   9  12
ATOM     12  C   UNL     1      34.571 -15.689 -23.406  0.00  0.00    +0.057 C 
ATOM     13  C   UNL     1      34.459 -16.327 -22.182  0.00  0.00    +0.089 C 
ATOM     14  C   UNL     1      34.818 -16.399 -24.570  0.00  0.00    +0.015 C 
ATOM     15  C   UNL     1      34.599 -17.714 -22.119  0.00  0.00    +0.008 C 
ATOM     16  C   UNL     1      34.958 -17.786 -24.508  0.00  0.00    +0.001 C 
ATOM     17  C   UNL     1      34.849 -18.443 -23.283  0.00  0.00    +0.000 C 
BRANCH  13  19
ATOM     18  O   UNL     1      34.969 -15.532 -19.984  0.00  0.00    -0.245 OA
ATOM     19  C   UNL     1      34.202 -15.596 -20.948  0.00  0.00    +0.339 C 
BRANCH  19  20
ATOM     20  O   UNL     1      32.995 -14.969 -20.960  0.00  0.00    -0.477 OA
ATOM     21  H   UNL     1      32.939 -14.058 -20.750  0.00  0.00    +0.295 HD
ENDBRANCH  19  20
ENDBRANCH  13  19
ENDBRANCH   9  12
ENDBRANCH   5  10
BRANCH   2  22
ATOM     22  S   UNL     1      31.612  -9.153 -22.420  0.00  0.00    +0.064 S 
ATOM     23  O   UNL     1      31.437  -7.841 -23.016  0.00  0.00    -0.153 OA
ATOM     24  O   UNL     1      30.471 -10.042 -22.308  0.00  0.00    -0.153 OA
BRANCH  22  25
ATOM     25  N   UNL     1      32.366  -8.987 -20.878  0.00  0.00    -0.156 NA
BRANCH  25  26
ATOM     26  C   UNL     1      33.095  -7.724 -20.596  0.00  0.00    +0.096 C 
ATOM     27  C   UNL     1      32.150  -6.717 -19.971  0.00  0.00    +0.021 C 
ENDBRANCH  25  26
BRANCH  25  28
ATOM     28  C   UNL     1      31.626  -9.478 -19.688  0.00  0.00    +0.096 C 
ATOM     29  C   UNL     1      31.838 -10.971 -19.534  0.00  0.00    +0.021 C 
ENDBRANCH  25  28
ENDBRANCH  22  25
ENDBRANCH   2  22
TORSDOF 8
ENDMDL
MODEL 2
REMARK VINA RESULT:      -9.2      3.638      5.763
REMARK  Name = 1121782
REMARK  8 active torsions:
REMARK  status: ('A' for Active; 'I' for Inactive)
REMARK    1  A    between atoms: C_2  and  S_22
REMARK    2  A    between atoms: C_5  and  C_10
REMARK    3  A    between atoms: N_9  and  C_12
REMARK    4  A    between atoms: C_13  and  C_19
REMARK    5  A    between atoms: C_19  and  O_20
REMARK    6  A    between atoms: S_22  and  N_25
REMARK    7  A    between atoms: N_25  and  C_26
REMARK    8  A    between atoms: N_25  and  C_28
REMARK                            x       y       z     vdW  Elec       q    Type
REMARK                         _______ _______ _______ _____ _____    ______ ____
ROOT
ATOM      1 BR   UNL     1      33.061 -13.830 -26.042  0.00  0.00    -0.048 Br
ATOM      2  C   UNL     1      34.079 -15.306 -23.771  0.00  0.00    +0.128 C 
ATOM      3  C   UNL     1      34.510 -16.444 -23.106  0.00  0.00    +0.025 C 
ATOM      4  C   UNL     1      33.658 -15.359 -25.090  0.00  0.00    +0.053 C 
ATOM      5  C   UNL     1      34.520 -17.666 -23.778  0.00  0.00    +0.055 C 
ATOM      6  C   UNL     1      33.667 -16.581 -25.762  0.00  0.00    +0.008 C 
ATOM      7  C   UNL     1      34.098 -17.735 -25.107  0.00  0.00    +0.005 C 
ENDROOT
BRANCH   5  10
ATOM      8  O   UNL     1      35.282 -19.863 -23.769  0.00  0.00    -0.270 OA
ATOM      9  N   UNL     1      35.033 -18.789 -21.697  0.00  0.00    -0.280 N 
ATOM     10  C   UNL     1      34.969 -18.868 -23.095  0.00  0.00    +0.250 C 
ATOM     11  H   UNL     1      34.751 -17.931 -21.304  0.00  0.00    +0.155 HD
BRANCH   9  12
ATOM     12  C   UNL     1      35.452 -19.781 -20.775  0.00  0.00    +0.057 C 
ATOM     13  C   UNL     1      34.521 -20.593 -20.151  0.00  0.00    +0.089 C 
ATOM     14  C   UNL     1      36.808 -19.910 -20.521  0.00  0.00    +0.015 C 
ATOM     15  C   UNL     1      34.956 -21.562 -19.246  0.00  0.00    +0.008 C 
ATOM     16  C   UNL     1      37.245 -20.879 -19.617  0.00  0.00    +0.001 C 
ATOM     17  C   UNL     1      36.318 -21.704 -18.980  0.00  0.00    +0.000 C 
BRANCH  13  19
ATOM     18  O   UNL     1      32.498 -19.413 -20.638  0.00  0.00    -0.245 OA
ATOM     19  C   UNL     1      33.091 -20.469 -20.404  0.00  0.00    +0.339 C 
BRANCH  19  20
ATOM     20  O   UNL     1      32.451 -21.667 -20.358  0.00  0.00    -0.477 OA
ATOM     21  H   UNL     1      31.557 -21.710 -20.083  0.00  0.00    +0.295 HD
ENDBRANCH  19  20
ENDBRANCH  13  19
ENDBRANCH   9  12
ENDBRANCH   5  10
BRANCH   2  22
ATOM     22  S   UNL     1      34.092 -13.788 -22.858  0.00  0.00    +0.064 S 
ATOM     23  O   UNL     1      35.095 -13.920 -21.818  0.00  0.00    -0.153 OA
ATOM     24  O   UNL     1      34.199 -12.708 -23.821  0.00  0.00    -0.153 OA
BRANCH  22  25
ATOM     25  N   UNL     1      32.523 -13.767 -22.142  0.00  0.00    -0.156 NA
BRANCH  25  26
ATOM     26  C   UNL     1      32.398 -14.224 -20.734  0.00  0.00    +0.096 C 
ATOM     27  C   UNL     1      32.235 -15.731 -20.699  0.00  0.00    +0.021 C 
ENDBRANCH  25  26
BRANCH  25  28
ATOM     28  C   UNL     1      31.646 -12.603 -22.428  0.00  0.00    +0.096 C 
ATOM     29  C   UNL     1      31.480 -11.768 -21.174  0.00  0.00    +0.021 C 
ENDBRANCH  25  28
ENDBRANCH  22  25
ENDBRANCH   2  22
TORSDOF 8
ENDMDL
MODEL 3
REMARK VINA RESULT:      -9.1      9.680     13.163
REMARK  Name = 1121782
REMARK  8 active torsions:
REMARK  status: ('A' for Active; 'I' for Inactive)
REMARK    1  A    between atoms: C_2  and  S_22
REMARK    2  A    between atoms: C_5  and  C_10
REMARK    3  A    between atoms: N_9  and  C_12
REMARK    4  A    between atoms: C_13  and  C_19
REMARK    5  A    between atoms: C_19  and  O_20
REMARK    6  A    between atoms: S_22  and  N_25
REMARK    7  A    between atoms: N_25  and  C_26
REMARK    8  A    between atoms: N_25  and  C_28
REMARK                            x       y       z     vdW  Elec       q    Type
REMARK                         _______ _______ _______ _____ _____    ______ ____
ROOT
ATOM      1 BR   UNL     1      37.019 -25.769 -13.275  0.00  0.00    -0.048 Br
ATOM      2  C   UNL     1      35.694 -23.781 -14.907  0.00  0.00    +0.128 C 
ATOM      3  C   UNL     1      35.638 -22.774 -15.858  0.00  0.00    +0.025 C 
ATOM      4  C   UNL     1      36.893 -24.387 -14.569  0.00  0.00    +0.053 C 
ATOM      5  C   UNL     1      36.813 -22.362 -16.487  0.00  0.00    +0.055 C 
ATOM      6  C   UNL     1      38.067 -23.975 -15.198  0.00  0.00    +0.008 C 
ATOM      7  C   UNL     1      38.028 -22.962 -16.157  0.00  0.00    +0.005 C 
ENDROOT
BRANCH   5  10
ATOM      8  O   UNL     1      37.477 -20.298 -17.328  0.00  0.00    -0.270 OA
ATOM      9  N   UNL     1      35.934 -21.539 -18.587  0.00  0.00    -0.280 N 
ATOM     10  C   UNL     1      36.772 -21.307 -17.487  0.00  0.00    +0.250 C 
ATOM     11  H   UNL     1      35.435 -22.388 -18.573  0.00  0.00    +0.155 HD
BRANCH   9  12
ATOM     12  C   UNL     1      35.711 -20.712 -19.716  0.00  0.00    +0.057 C 
ATOM     13  C   UNL     1      34.449 -20.621 -20.278  0.00  0.00    +0.089 C 
ATOM     14  C   UNL     1      36.784 -20.006 -20.235  0.00  0.00    +0.015 C 
ATOM     15  C   UNL     1      34.253 -19.802 -21.390  0.00  0.00    +0.008 C 
ATOM     16  C   UNL     1      36.589 -19.186 -21.347  0.00  0.00    +0.001 C 
ATOM     17  C   UNL     1      35.323 -19.084 -21.924  0.00  0.00    +0.000 C 
BRANCH  13  19
ATOM     18  O   UNL     1      33.269 -22.580 -19.573  0.00  0.00    -0.245 OA
ATOM     19  C   UNL     1      33.309 -21.359 -19.746  0.00  0.00    +0.339 C 
BRANCH  19  20
ATOM     20  O   UNL     1      32.260 -20.547 -19.448  0.00  0.00    -0.477 OA
ATOM     21  H   UNL     1      31.418 -20.917 -19.270  0.00  0.00    +0.295 HD
ENDBRANCH  19  20
ENDBRANCH  13  19
ENDBRANCH   9  12
ENDBRANCH   5  10
BRANCH   2  22
ATOM     22  S   UNL     1      34.165 -24.254 -14.147  0.00  0.00    +0.064 S 
ATOM     23  O   UNL     1      33.901 -25.629 -14.531  0.00  0.00    -0.153 OA
ATOM     24  O   UNL     1      34.260 -23.912 -12.741  0.00  0.00    -0.153 OA
BRANCH  22  25
ATOM     25  N   UNL     1      33.025 -23.215 -14.917  0.00  0.00    -0.156 NA
BRANCH  25  26
ATOM     26  C   UNL     1      32.624 -23.538 -16.311  0.00  0.00    +0.096 C 
ATOM     27  C   UNL     1      31.380 -22.753 -16.679  0.00  0.00    +0.021 C 
ENDBRANCH  25  26
BRANCH  25  28
ATOM     28  C   UNL     1      31.879 -22.723 -14.110  0.00  0.00    +0.096 C 
ATOM     29  C   UNL     1      31.064 -23.898 -13.611  0.00  0.00    +0.021 C 
ENDBRANCH  25  28
ENDBRANCH  22  25
ENDBRANCH   2  22
TORSDOF 8
ENDMDL
MODEL 4
REMARK VINA RESULT:      -9.0      9.537     13.103
REMARK  Name = 1121782
REMARK  8 active torsions:
REMARK  status: ('A' for Active; 'I' for Inactive)
REMARK    1  A    between atoms: C_2  and  S_22
REMARK    2  A    between atoms: C_5  and  C_10
REMARK    3  A    between atoms: N_9  and  C_12
REMARK    4  A    between atoms: C_13  and  C_19
REMARK    5  A    between atoms: C_19  and  O_20
REMARK    6  A    between atoms: S_22  and  N_25
REMARK    7  A    between atoms: N_25  and  C_26
REMARK    8  A    between atoms: N_25  and  C_28
REMARK                            x       y       z     vdW  Elec       q    Type
REMARK                         _______ _______ _______ _____ _____    ______ ____
ROOT
ATOM      1 BR   UNL     1      34.967 -24.312 -12.621  0.00  0.00    -0.048 Br
ATOM      2  C   UNL     1      33.396 -23.712 -14.976  0.00  0.00    +0.128 C 
ATOM      3  C   UNL     1      33.211 -23.326 -16.295  0.00  0.00    +0.025 C 
ATOM      4  C   UNL     1      34.663 -23.789 -14.419  0.00  0.00    +0.053 C 
ATOM      5  C   UNL     1      34.322 -23.010 -17.077  0.00  0.00    +0.055 C 
ATOM      6  C   UNL     1      35.773 -23.472 -15.201  0.00  0.00    +0.008 C 
ATOM      7  C   UNL     1      35.603 -23.082 -16.530  0.00  0.00    +0.005 C 
ENDROOT
BRANCH   5  10
ATOM      8  O   UNL     1      33.803 -23.453 -19.301  0.00  0.00    -0.270 OA
ATOM      9  N   UNL     1      34.356 -21.245 -18.732  0.00  0.00    -0.280 N 
ATOM     10  C   UNL     1      34.144 -22.604 -18.462  0.00  0.00    +0.250 C 
ATOM     11  H   UNL     1      34.623 -20.692 -17.962  0.00  0.00    +0.155 HD
BRANCH   9  12
ATOM     12  C   UNL     1      34.235 -20.561 -19.968  0.00  0.00    +0.057 C 
ATOM     13  C   UNL     1      35.365 -20.196 -20.679  0.00  0.00    +0.089 C 
ATOM     14  C   UNL     1      32.963 -20.273 -20.437  0.00  0.00    +0.015 C 
ATOM     15  C   UNL     1      35.221 -19.523 -21.892  0.00  0.00    +0.008 C 
ATOM     16  C   UNL     1      32.818 -19.600 -21.651  0.00  0.00    +0.001 C 
ATOM     17  C   UNL     1      33.948 -19.226 -22.378  0.00  0.00    +0.000 C 
BRANCH  13  19
ATOM     18  O   UNL     1      37.030 -21.478 -19.535  0.00  0.00    -0.245 OA
ATOM     19  C   UNL     1      36.710 -20.489 -20.199  0.00  0.00    +0.339 C 
BRANCH  19  20
ATOM     20  O   UNL     1      37.609 -19.538 -20.566  0.00  0.00    -0.477 OA
ATOM     21  H   UNL     1      37.319 -18.667 -20.754  0.00  0.00    +0.295 HD
ENDBRANCH  19  20
ENDBRANCH  13  19
ENDBRANCH   9  12
ENDBRANCH   5  10
BRANCH   2  22
ATOM     22  S   UNL     1      31.943 -24.099 -14.040  0.00  0.00    +0.064 S 
ATOM     23  O   UNL     1      32.019 -25.505 -13.689  0.00  0.00    -0.153 OA
ATOM     24  O   UNL     1      31.832 -23.106 -12.988  0.00  0.00    -0.153 OA
BRANCH  22  25
ATOM     25  N   UNL     1      30.681 -23.862 -15.190  0.00  0.00    -0.156 NA
BRANCH  25  26
ATOM     26  C   UNL     1      29.945 -25.061 -15.668  0.00  0.00    +0.096 C 
ATOM     27  C   UNL     1      28.907 -25.467 -14.640  0.00  0.00    +0.021 C 
ENDBRANCH  25  26
BRANCH  25  28
ATOM     28  C   UNL     1      29.780 -22.697 -15.001  0.00  0.00    +0.096 C 
ATOM     29  C   UNL     1      28.989 -22.450 -16.270  0.00  0.00    +0.021 C 
ENDBRANCH  25  28
ENDBRANCH  22  25
ENDBRANCH   2  22
TORSDOF 8
ENDMDL
MODEL 5
REMARK VINA RESULT:      -8.9      3.850      8.417
REMARK  Name = 1121782
REMARK  8 active torsions:
REMARK  status: ('A' for Active; 'I' for Inactive)
REMARK    1  A    between atoms: C_2  and  S_22
REMARK    2  A    between atoms: C_5  and  C_10
REMARK    3  A    between atoms: N_9  and  C_12
REMARK    4  A    between atoms: C_13  and  C_19
REMARK    5  A    between atoms: C_19  and  O_20
REMARK    6  A    between atoms: S_22  and  N_25
REMARK    7  A    between atoms: N_25  and  C_26
REMARK    8  A    between atoms: N_25  and  C_28
REMARK                            x       y       z     vdW  Elec       q    Type
REMARK                         _______ _______ _______ _____ _____    ______ ____
ROOT
ATOM      1 BR   UNL     1      35.122 -19.097 -24.742  0.00  0.00    -0.048 Br
ATOM      2  C   UNL     1      34.838 -17.077 -22.690  0.00  0.00    +0.128 C 
ATOM      3  C   UNL     1      34.429 -15.853 -22.183  0.00  0.00    +0.025 C 
ATOM      4  C   UNL     1      34.583 -17.434 -24.004  0.00  0.00    +0.053 C 
ATOM      5  C   UNL     1      33.747 -14.963 -23.013  0.00  0.00    +0.055 C 
ATOM      6  C   UNL     1      33.902 -16.544 -24.833  0.00  0.00    +0.008 C 
ATOM      7  C   UNL     1      33.483 -15.308 -24.339  0.00  0.00    +0.005 C 
ENDROOT
BRANCH   5  10
ATOM      8  O   UNL     1      33.107 -13.551 -21.278  0.00  0.00    -0.270 OA
ATOM      9  N   UNL     1      33.178 -12.650 -23.443  0.00  0.00    -0.280 N 
ATOM     10  C   UNL     1      33.311 -13.675 -22.497  0.00  0.00    +0.250 C 
ATOM     11  H   UNL     1      33.374 -12.901 -24.376  0.00  0.00    +0.155 HD
BRANCH   9  12
ATOM     12  C   UNL     1      32.798 -11.301 -23.236  0.00  0.00    +0.057 C 
ATOM     13  C   UNL     1      33.483 -10.277 -23.868  0.00  0.00    +0.089 C 
ATOM     14  C   UNL     1      31.732 -11.041 -22.390  0.00  0.00    +0.015 C 
ATOM     15  C   UNL     1      33.092  -8.956 -23.648  0.00  0.00    +0.008 C 
ATOM     16  C   UNL     1      31.340  -9.721 -22.170  0.00  0.00    +0.001 C 
ATOM     17  C   UNL     1      32.020  -8.678 -22.799  0.00  0.00    +0.000 C 
BRANCH  13  19
ATOM     18  O   UNL     1      34.558 -11.190 -25.800  0.00  0.00    -0.245 OA
ATOM     19  C   UNL     1      34.608 -10.531 -24.758  0.00  0.00    +0.339 C 
BRANCH  19  20
ATOM     20  O   UNL     1      35.758  -9.954 -24.318  0.00  0.00    -0.477 OA
ATOM     21  H   UNL     1      35.888  -9.032 -24.421  0.00  0.00    +0.295 HD
ENDBRANCH  19  20
ENDBRANCH  13  19
ENDBRANCH   9  12
ENDBRANCH   5  10
BRANCH   2  22
ATOM     22  S   UNL     1      35.699 -18.157 -21.582  0.00  0.00    +0.064 S 
ATOM     23  O   UNL     1      36.930 -18.556 -22.240  0.00  0.00    -0.153 OA
ATOM     24  O   UNL     1      35.762 -17.493 -20.294  0.00  0.00    -0.153 OA
BRANCH  22  25
ATOM     25  N   UNL     1      34.640 -19.514 -21.479  0.00  0.00    -0.156 NA
BRANCH  25  26
ATOM     26  C   UNL     1      35.213 -20.809 -21.032  0.00  0.00    +0.096 C 
ATOM     27  C   UNL     1      36.317 -20.558 -20.023  0.00  0.00    +0.021 C 
ENDBRANCH  25  26
BRANCH  25  28
ATOM     28  C   UNL     1      33.278 -19.290 -20.928  0.00  0.00    +0.096 C 
ATOM     29  C   UNL     1      32.848 -20.499 -20.123  0.00  0.00    +0.021 C 
ENDBRANCH  25  28
ENDBRANCH  22  25
ENDBRANCH   2  22
TORSDOF 8
ENDMDL
MODEL 6
REMARK VINA RESULT:      -8.5      1.955      4.070
REMARK  Name = 1121782
REMARK  8 active torsions:
REMARK  status: ('A' for Active; 'I' for Inactive)
REMARK    1  A    between atoms: C_2  and  S_22
REMARK    2  A    between atoms: C_5  and  C_10
REMARK    3  A    between atoms: N_9  and  C_12
REMARK    4  A    between atoms: C_13  and  C_19
REMARK    5  A    between atoms: C_19  and  O_20
REMARK    6  A    between atoms: S_22  and  N_25
REMARK    7  A    between atoms: N_25  and  C_26
REMARK    8  A    between atoms: N_25  and  C_28
REMARK                            x       y       z     vdW  Elec       q    Type
REMARK                         _______ _______ _______ _____ _____    ______ ____
ROOT
ATOM      1 BR   UNL     1      31.528  -8.268 -19.617  0.00  0.00    -0.048 Br
ATOM      2  C   UNL     1      32.203 -10.178 -21.683  0.00  0.00    +0.128 C 
ATOM      3  C   UNL     1      32.424 -11.448 -22.193  0.00  0.00    +0.025 C 
ATOM      4  C   UNL     1      31.841  -9.986 -20.360  0.00  0.00    +0.053 C 
ATOM      5  C   UNL     1      32.278 -12.555 -21.357  0.00  0.00    +0.055 C 
ATOM      6  C   UNL     1      31.696 -11.093 -19.524  0.00  0.00    +0.008 C 
ATOM      7  C   UNL     1      31.915 -12.378 -20.022  0.00  0.00    +0.005 C 
ENDROOT
BRANCH   5  10
ATOM      8  O   UNL     1      31.765 -14.819 -21.506  0.00  0.00    -0.270 OA
ATOM      9  N   UNL     1      33.558 -14.023 -22.795  0.00  0.00    -0.280 N 
ATOM     10  C   UNL     1      32.506 -13.894 -21.876  0.00  0.00    +0.250 C 
ATOM     11  H   UNL     1      34.058 -13.197 -22.990  0.00  0.00    +0.155 HD
BRANCH   9  12
ATOM     12  C   UNL     1      33.995 -15.184 -23.478  0.00  0.00    +0.057 C 
ATOM     13  C   UNL     1      33.734 -15.341 -24.829  0.00  0.00    +0.089 C 
ATOM     14  C   UNL     1      34.684 -16.149 -22.760  0.00  0.00    +0.015 C 
ATOM     15  C   UNL     1      34.174 -16.494 -25.481  0.00  0.00    +0.008 C 
ATOM     16  C   UNL     1      35.124 -17.301 -23.411  0.00  0.00    +0.001 C 
ATOM     17  C   UNL     1      34.869 -17.473 -24.772  0.00  0.00    +0.000 C 
BRANCH  13  19
ATOM     18  O   UNL     1      33.082 -13.119 -25.429  0.00  0.00    -0.245 OA
ATOM     19  C   UNL     1      33.009 -14.339 -25.599  0.00  0.00    +0.339 C 
BRANCH  19  20
ATOM     20  O   UNL     1      32.217 -14.893 -26.556  0.00  0.00    -0.477 OA
ATOM     21  H   UNL     1      32.343 -15.787 -26.807  0.00  0.00    +0.295 HD
ENDBRANCH  19  20
ENDBRANCH  13  19
ENDBRANCH   9  12
ENDBRANCH   5  10
BRANCH   2  22
ATOM     22  S   UNL     1      32.407  -8.817 -22.799  0.00  0.00    +0.064 S 
ATOM     23  O   UNL     1      31.375  -8.934 -23.813  0.00  0.00    -0.153 OA
ATOM     24  O   UNL     1      32.485  -7.611 -21.997  0.00  0.00    -0.153 OA
BRANCH  22  25
ATOM     25  N   UNL     1      33.946  -9.139 -23.508  0.00  0.00    -0.156 NA
BRANCH  25  26
ATOM     26  C   UNL     1      33.986 -10.011 -24.710  0.00  0.00    +0.096 C 
ATOM     27  C   UNL     1      35.422 -10.186 -25.165  0.00  0.00    +0.021 C 
ENDBRANCH  25  26
BRANCH  25  28
ATOM     28  C   UNL     1      34.913  -8.016 -23.604  0.00  0.00    +0.096 C 
ATOM     29  C   UNL     1      34.338  -6.918 -24.475  0.00  0.00    +0.021 C 
ENDBRANCH  25  28
ENDBRANCH  22  25
ENDBRANCH   2  22
TORSDOF 8
ENDMDL
MODEL 7
REMARK VINA RESULT:      -8.5      1.987      3.387
REMARK  Name = 1121782
REMARK  8 active torsions:
REMARK  status: ('A' for Active; 'I' for Inactive)
REMARK    1  A    between atoms: C_2  and  S_22
REMARK    2  A    between atoms: C_5  and  C_10
REMARK    3  A    between atoms: N_9  and  C_12
REMARK    4  A    between atoms: C_13  and  C_19
REMARK    5  A    between atoms: C_19  and  O_20
REMARK    6  A    between atoms: S_22  and  N_25
REMARK    7  A    between atoms: N_25  and  C_26
REMARK    8  A    between atoms: N_25  and  C_28
REMARK                            x       y       z     vdW  Elec       q    Type
REMARK                         _______ _______ _______ _____ _____    ______ ____
ROOT
ATOM      1 BR   UNL     1      31.462  -9.612 -19.411  0.00  0.00    -0.048 Br
ATOM      2  C   UNL     1      32.318 -10.703 -21.950  0.00  0.00    +0.128 C 
ATOM      3  C   UNL     1      32.659 -11.721 -22.827  0.00  0.00    +0.025 C 
ATOM      4  C   UNL     1      31.938 -10.972 -20.646  0.00  0.00    +0.053 C 
ATOM      5  C   UNL     1      32.618 -13.044 -22.387  0.00  0.00    +0.055 C 
ATOM      6  C   UNL     1      31.897 -12.295 -20.206  0.00  0.00    +0.008 C 
ATOM      7  C   UNL     1      32.237 -13.331 -21.075  0.00  0.00    +0.005 C 
ENDROOT
BRANCH   5  10
ATOM      8  O   UNL     1      32.641 -14.043 -24.487  0.00  0.00    -0.270 OA
ATOM      9  N   UNL     1      33.698 -15.182 -22.730  0.00  0.00    -0.280 N 
ATOM     10  C   UNL     1      32.972 -14.125 -23.293  0.00  0.00    +0.250 C 
ATOM     11  H   UNL     1      33.887 -15.106 -21.766  0.00  0.00    +0.155 HD
BRANCH   9  12
ATOM     12  C   UNL     1      34.198 -16.347 -23.364  0.00  0.00    +0.057 C 
ATOM     13  C   UNL     1      34.847 -17.322 -22.626  0.00  0.00    +0.089 C 
ATOM     14  C   UNL     1      34.018 -16.478 -24.732  0.00  0.00    +0.015 C 
ATOM     15  C   UNL     1      35.331 -18.460 -23.272  0.00  0.00    +0.008 C 
ATOM     16  C   UNL     1      34.501 -17.616 -25.379  0.00  0.00    +0.001 C 
ATOM     17  C   UNL     1      35.157 -18.606 -24.649  0.00  0.00    +0.000 C 
BRANCH  13  19
ATOM     18  O   UNL     1      35.037 -16.141 -20.554  0.00  0.00    -0.245 OA
ATOM     19  C   UNL     1      35.047 -17.199 -21.188  0.00  0.00    +0.339 C 
BRANCH  19  20
ATOM     20  O   UNL     1      35.251 -18.403 -20.589  0.00  0.00    -0.477 OA
ATOM     21  H   UNL     1      35.628 -19.110 -21.075  0.00  0.00    +0.295 HD
ENDBRANCH  19  20
ENDBRANCH  13  19
ENDBRANCH   9  12
ENDBRANCH   5  10
BRANCH   2  22
ATOM     22  S   UNL     1      32.394  -9.047 -22.575  0.00  0.00    +0.064 S 
ATOM     23  O   UNL     1      31.307  -8.896 -23.525  0.00  0.00    -0.153 OA
ATOM     24  O   UNL     1      32.469  -8.158 -21.431  0.00  0.00    -0.153 OA
BRANCH  22  25
ATOM     25  N   UNL     1      33.898  -9.030 -23.417  0.00  0.00    -0.156 NA
BRANCH  25  26
ATOM     26  C   UNL     1      33.949  -9.670 -24.757  0.00  0.00    +0.096 C 
ATOM     27  C   UNL     1      35.354 -10.171 -25.030  0.00  0.00    +0.021 C 
ENDBRANCH  25  26
BRANCH  25  28
ATOM     28  C   UNL     1      34.709  -7.787 -23.364  0.00  0.00    +0.096 C 
ATOM     29  C   UNL     1      34.163  -6.778 -24.353  0.00  0.00    +0.021 C 
ENDBRANCH  25  28
ENDBRANCH  22  25
ENDBRANCH   2  22
TORSDOF 8
ENDMDL
MODEL 8
REMARK VINA RESULT:      -8.4      3.292      7.627
REMARK  Name = 1121782
REMARK  8 active torsions:
REMARK  status: ('A' for Active; 'I' for Inactive)
REMARK    1  A    between atoms: C_2  and  S_22
REMARK    2  A    between atoms: C_5  and  C_10
REMARK    3  A    between atoms: N_9  and  C_12
REMARK    4  A    between atoms: C_13  and  C_19
REMARK    5  A    between atoms: C_19  and  O_20
REMARK    6  A    between atoms: S_22  and  N_25
REMARK    7  A    between atoms: N_25  and  C_26
REMARK    8  A    between atoms: N_25  and  C_28
REMARK                            x       y       z     vdW  Elec       q    Type
REMARK                         _______ _______ _______ _____ _____    ______ ____
ROOT
ATOM      1 BR   UNL     1      34.057 -16.649 -21.111  0.00  0.00    -0.048 Br
ATOM      2  C   UNL     1      33.162 -14.275 -22.502  0.00  0.00    +0.128 C 
ATOM      3  C   UNL     1      32.540 -13.039 -22.602  0.00  0.00    +0.025 C 
ATOM      4  C   UNL     1      33.217 -14.957 -21.297  0.00  0.00    +0.053 C 
ATOM      5  C   UNL     1      31.959 -12.472 -21.468  0.00  0.00    +0.055 C 
ATOM      6  C   UNL     1      32.636 -14.390 -20.163  0.00  0.00    +0.008 C 
ATOM      7  C   UNL     1      32.007 -13.148 -20.248  0.00  0.00    +0.005 C 
ENDROOT
BRANCH   5  10
ATOM      8  O   UNL     1      30.132 -11.066 -21.161  0.00  0.00    -0.270 OA
ATOM      9  N   UNL     1      32.082 -10.132 -22.071  0.00  0.00    -0.280 N 
ATOM     10  C   UNL     1      31.304 -11.177 -21.556  0.00  0.00    +0.250 C 
ATOM     11  H   UNL     1      32.997 -10.374 -22.344  0.00  0.00    +0.155 HD
BRANCH   9  12
ATOM     12  C   UNL     1      31.726  -8.772 -22.252  0.00  0.00    +0.057 C 
ATOM     13  C   UNL     1      31.946  -7.851 -21.241  0.00  0.00    +0.089 C 
ATOM     14  C   UNL     1      31.156  -8.396 -23.458  0.00  0.00    +0.015 C 
ATOM     15  C   UNL     1      31.587  -6.518 -21.441  0.00  0.00    +0.008 C 
ATOM     16  C   UNL     1      30.797  -7.064 -23.659  0.00  0.00    +0.001 C 
ATOM     17  C   UNL     1      31.012  -6.125 -22.650  0.00  0.00    +0.000 C 
BRANCH  13  19
ATOM     18  O   UNL     1      32.270  -9.247 -19.326  0.00  0.00    -0.245 OA
ATOM     19  C   UNL     1      32.542  -8.228 -19.966  0.00  0.00    +0.339 C 
BRANCH  19  20
ATOM     20  O   UNL     1      33.459  -7.322 -19.534  0.00  0.00    -0.477 OA
ATOM     21  H   UNL     1      34.374  -7.513 -19.600  0.00  0.00    +0.295 HD
ENDBRANCH  19  20
ENDBRANCH  13  19
ENDBRANCH   9  12
ENDBRANCH   5  10
BRANCH   2  22
ATOM     22  S   UNL     1      33.877 -14.936 -23.980  0.00  0.00    +0.064 S 
ATOM     23  O   UNL     1      35.319 -14.884 -23.821  0.00  0.00    -0.153 OA
ATOM     24  O   UNL     1      33.234 -16.211 -24.237  0.00  0.00    -0.153 OA
BRANCH  22  25
ATOM     25  N   UNL     1      33.391 -13.795 -25.178  0.00  0.00    -0.156 NA
BRANCH  25  26
ATOM     26  C   UNL     1      34.344 -12.711 -25.530  0.00  0.00    +0.096 C 
ATOM     27  C   UNL     1      33.916 -11.418 -24.863  0.00  0.00    +0.021 C 
ENDBRANCH  25  26
BRANCH  25  28
ATOM     28  C   UNL     1      32.667 -14.305 -26.369  0.00  0.00    +0.096 C 
ATOM     29  C   UNL     1      32.990 -13.443 -27.573  0.00  0.00    +0.021 C 
ENDBRANCH  25  28
ENDBRANCH  22  25
ENDBRANCH   2  22
TORSDOF 8
ENDMDL
MODEL 9
REMARK VINA RESULT:      -8.3      3.365      5.425
REMARK  Name = 1121782
REMARK  8 active torsions:
REMARK  status: ('A' for Active; 'I' for Inactive)
REMARK    1  A    between atoms: C_2  and  S_22
REMARK    2  A    between atoms: C_5  and  C_10
REMARK    3  A    between atoms: N_9  and  C_12
REMARK    4  A    between atoms: C_13  and  C_19
REMARK    5  A    between atoms: C_19  and  O_20
REMARK    6  A    between atoms: S_22  and  N_25
REMARK    7  A    between atoms: N_25  and  C_26
REMARK    8  A    between atoms: N_25  and  C_28
REMARK                            x       y       z     vdW  Elec       q    Type
REMARK                         _______ _______ _______ _____ _____    ______ ____
ROOT
ATOM      1 BR   UNL     1      33.076 -14.363 -26.550  0.00  0.00    -0.048 Br
ATOM      2  C   UNL     1      33.430 -14.790 -23.710  0.00  0.00    +0.128 C 
ATOM      3  C   UNL     1      33.861 -15.485 -22.591  0.00  0.00    +0.025 C 
ATOM      4  C   UNL     1      33.646 -15.278 -24.989  0.00  0.00    +0.053 C 
ATOM      5  C   UNL     1      34.525 -16.701 -22.755  0.00  0.00    +0.055 C 
ATOM      6  C   UNL     1      34.309 -16.494 -25.152  0.00  0.00    +0.008 C 
ATOM      7  C   UNL     1      34.749 -17.206 -24.036  0.00  0.00    +0.005 C 
ENDROOT
BRANCH   5  10
ATOM      8  O   UNL     1      35.274 -16.821 -20.556  0.00  0.00    -0.270 OA
ATOM      9  N   UNL     1      35.034 -18.836 -21.735  0.00  0.00    -0.280 N 
ATOM     10  C   UNL     1      34.983 -17.442 -21.591  0.00  0.00    +0.250 C 
ATOM     11  H   UNL     1      34.772 -19.184 -22.618  0.00  0.00    +0.155 HD
BRANCH   9  12
ATOM     12  C   UNL     1      35.412 -19.809 -20.777  0.00  0.00    +0.057 C 
ATOM     13  C   UNL     1      34.449 -20.558 -20.123  0.00  0.00    +0.089 C 
ATOM     14  C   UNL     1      36.762 -19.985 -20.518  0.00  0.00    +0.015 C 
ATOM     15  C   UNL     1      34.845 -21.510 -19.183  0.00  0.00    +0.008 C 
ATOM     16  C   UNL     1      37.159 -20.937 -19.578  0.00  0.00    +0.001 C 
ATOM     17  C   UNL     1      36.200 -21.699 -18.911  0.00  0.00    +0.000 C 
BRANCH  13  19
ATOM     18  O   UNL     1      32.533 -20.052 -21.462  0.00  0.00    -0.245 OA
ATOM     19  C   UNL     1      33.025 -20.385 -20.382  0.00  0.00    +0.339 C 
BRANCH  19  20
ATOM     20  O   UNL     1      32.265 -20.635 -19.283  0.00  0.00    -0.477 OA
ATOM     21  H   UNL     1      32.621 -20.500 -18.427  0.00  0.00    +0.295 HD
ENDBRANCH  19  20
ENDBRANCH  13  19
ENDBRANCH   9  12
ENDBRANCH   5  10
BRANCH   2  22
ATOM     22  S   UNL     1      32.594 -13.254 -23.430  0.00  0.00    +0.064 S 
ATOM     23  O   UNL     1      31.468 -13.203 -24.345  0.00  0.00    -0.153 OA
ATOM     24  O   UNL     1      32.359 -13.146 -22.003  0.00  0.00    -0.153 OA
BRANCH  22  25
ATOM     25  N   UNL     1      33.774 -12.090 -23.908  0.00  0.00    -0.156 NA
BRANCH  25  26
ATOM     26  C   UNL     1      33.987 -11.877 -25.363  0.00  0.00    +0.096 C 
ATOM     27  C   UNL     1      34.997 -10.766 -25.573  0.00  0.00    +0.021 C 
ENDBRANCH  25  26
BRANCH  25  28
ATOM     28  C   UNL     1      33.842 -10.818 -23.145  0.00  0.00    +0.096 C 
ATOM     29  C   UNL     1      32.503 -10.110 -23.210  0.00  0.00    +0.021 C 
ENDBRANCH  25  28
ENDBRANCH  22  25
ENDBRANCH   2  22
TORSDOF 8
ENDMDL
