MODEL 1
REMARK VINA RESULT:     -10.1      0.000      0.000
REMARK  Name = 160355
REMARK  7 active torsions:
REMARK  status: ('A' for Active; 'I' for Inactive)
REMARK    1  A    between atoms: N_1  and  C_12
REMARK    2  A    between atoms: N_2  and  CA_24
REMARK    3  A    between atoms: N_15  and  C_17
REMARK    4  A    between atoms: C_17  and  C_18
REMARK    5  A    between atoms: CA_24  and  C_25
REMARK    6  A    between atoms: CA_24  and  C_27
REMARK    7  A    between atoms: C_27  and  O_28
REMARK                            x       y       z     vdW  Elec       q    Type
REMARK                         _______ _______ _______ _____ _____    ______ ____
ROOT
ATOM      1  N   UNL     1      31.775 -23.897 -15.428  0.00  0.00    -0.262 N 
ATOM      2  N   UNL     1      36.505 -24.176 -15.088  0.00  0.00    -0.258 N 
ATOM      3  N   UNL     1      34.165 -24.144 -15.075  0.00  0.00    -0.311 NA
ATOM      4  N   UNL     1      31.787 -22.783 -17.360  0.00  0.00    -0.240 NA
ATOM      5  N   UNL     1      35.440 -23.120 -16.887  0.00  0.00    -0.311 NA
ATOM      6  C   UNL     1      33.089 -23.730 -15.760  0.00  0.00    +0.220 C 
ATOM      7  C   UNL     1      33.074 -23.036 -16.960  0.00  0.00    +0.167 C 
ATOM      8  C   UNL     1      34.309 -22.732 -17.525  0.00  0.00    +0.215 C 
ATOM      9  C   UNL     1      35.327 -23.801 -15.705  0.00  0.00    +0.202 C 
ATOM     10  C   UNL     1      31.032 -23.313 -16.420  0.00  0.00    +0.222 C 
ATOM     11  H   UNL     1      37.355 -23.940 -15.525  0.00  0.00    +0.160 HD
ATOM     12  N   UNL     1      34.389 -22.030 -18.741  0.00  0.00    -0.302 N 
ATOM     13  H   UNL     1      33.552 -21.760 -19.183  0.00  0.00    +0.150 HD
ENDROOT
BRANCH   1  14
ATOM     14  C   UNL     1      31.257 -24.564 -14.258  0.00  0.00    +0.077 C 
ATOM     15  C   UNL     1      30.973 -23.582 -13.120  0.00  0.00    +0.022 C 
ATOM     16  C   UNL     1      30.032 -25.421 -14.583  0.00  0.00    +0.022 C 
ENDBRANCH   1  14
BRANCH  12  17
ATOM     17  C   UNL     1      35.632 -21.691 -19.367  0.00  0.00    +0.116 C 
BRANCH  17  18
ATOM     18  C   UNL     1      35.467 -20.484 -20.248  0.00  0.00    -0.003 C 
ATOM     19  C   UNL     1      34.196 -20.111 -20.669  0.00  0.00    -0.003 C 
ATOM     20  C   UNL     1      36.586 -19.757 -20.631  0.00  0.00    -0.003 C 
ATOM     21  C   UNL     1      34.043 -18.990 -21.485  0.00  0.00    -0.000 C 
ATOM     22  C   UNL     1      36.432 -18.637 -21.449  0.00  0.00    -0.000 C 
ATOM     23  C   UNL     1      35.161 -18.253 -21.875  0.00  0.00    -0.000 C 
ENDBRANCH  17  18
ENDBRANCH  12  17
BRANCH   2  24
ATOM     24  CA  UNL     1      36.555 -24.898 -13.831  0.00  0.00    +0.109 C 
BRANCH  24  25
ATOM     25  C   UNL     1      37.551 -24.221 -12.881  0.00  0.00    +0.023 C 
ATOM     26  C   UNL     1      36.893 -23.186 -11.977  0.00  0.00    +0.002 C 
ENDBRANCH  24  25
BRANCH  24  27
ATOM     27  C   UNL     1      36.966 -26.344 -14.111  0.00  0.00    +0.157 C 
BRANCH  27  28
ATOM     28  O   UNL     1      36.029 -26.937 -15.003  0.00  0.00    -0.380 OA
ATOM     29  H   UNL     1      35.204 -27.123 -14.528  0.00  0.00    +0.211 HD
ENDBRANCH  27  28
ENDBRANCH  24  27
ENDBRANCH   2  24
TORSDOF 7
ENDMDL
MODEL 2
REMARK VINA RESULT:     -10.1      1.562      4.584
REMARK  Name = 160355
REMARK  7 active torsions:
REMARK  status: ('A' for Active; 'I' for Inactive)
REMARK    1  A    between atoms: N_1  and  C_12
REMARK    2  A    between atoms: N_2  and  CA_24
REMARK    3  A    between atoms: N_15  and  C_17
REMARK    4  A    between atoms: C_17  and  C_18
REMARK    5  A    between atoms: CA_24  and  C_25
REMARK    6  A    between atoms: CA_24  and  C_27
REMARK    7  A    between atoms: C_27  and  O_28
REMARK                            x       y       z     vdW  Elec       q    Type
REMARK                         _______ _______ _______ _____ _____    ______ ____
ROOT
ATOM      1  N   UNL     1      36.374 -23.643 -14.154  0.00  0.00    -0.262 N 
ATOM      2  N   UNL     1      31.854 -23.924 -15.587  0.00  0.00    -0.258 N 
ATOM      3  N   UNL     1      34.018 -23.868 -14.699  0.00  0.00    -0.311 NA
ATOM      4  N   UNL     1      37.123 -22.751 -16.056  0.00  0.00    -0.240 NA
ATOM      5  N   UNL     1      33.549 -23.064 -16.955  0.00  0.00    -0.311 NA
ATOM      6  C   UNL     1      35.285 -23.523 -14.970  0.00  0.00    +0.220 C 
ATOM      7  C   UNL     1      35.771 -22.969 -16.144  0.00  0.00    +0.167 C 
ATOM      8  C   UNL     1      34.848 -22.740 -17.160  0.00  0.00    +0.215 C 
ATOM      9  C   UNL     1      33.188 -23.607 -15.752  0.00  0.00    +0.202 C 
ATOM     10  C   UNL     1      37.453 -23.165 -14.850  0.00  0.00    +0.222 C 
ATOM     11  H   UNL     1      31.236 -23.744 -16.332  0.00  0.00    +0.160 HD
ATOM     12  N   UNL     1      35.253 -22.181 -18.385  0.00  0.00    -0.302 N 
ATOM     13  H   UNL     1      36.203 -21.955 -18.507  0.00  0.00    +0.150 HD
ENDROOT
BRANCH   1  14
ATOM     14  C   UNL     1      36.394 -24.170 -12.811  0.00  0.00    +0.077 C 
ATOM     15  C   UNL     1      37.090 -25.530 -12.741  0.00  0.00    +0.022 C 
ATOM     16  C   UNL     1      36.995 -23.177 -11.816  0.00  0.00    +0.022 C 
ENDBRANCH   1  14
BRANCH  12  17
ATOM     17  C   UNL     1      34.347 -21.924 -19.464  0.00  0.00    +0.116 C 
BRANCH  17  18
ATOM     18  C   UNL     1      34.721 -20.655 -20.178  0.00  0.00    -0.003 C 
ATOM     19  C   UNL     1      36.061 -20.310 -20.305  0.00  0.00    -0.003 C 
ATOM     20  C   UNL     1      33.724 -19.844 -20.702  0.00  0.00    -0.003 C 
ATOM     21  C   UNL     1      36.408 -19.133 -20.968  0.00  0.00    -0.000 C 
ATOM     22  C   UNL     1      34.072 -18.666 -21.364  0.00  0.00    -0.000 C 
ATOM     23  C   UNL     1      35.413 -18.311 -21.498  0.00  0.00    -0.000 C 
ENDBRANCH  17  18
ENDBRANCH  12  17
BRANCH   2  24
ATOM     24  CA  UNL     1      31.314 -24.508 -14.373  0.00  0.00    +0.109 C 
BRANCH  24  25
ATOM     25  C   UNL     1      30.111 -25.398 -14.715  0.00  0.00    +0.023 C 
ATOM     26  C   UNL     1      28.942 -24.610 -15.293  0.00  0.00    +0.002 C 
ENDBRANCH  24  25
BRANCH  24  27
ATOM     27  C   UNL     1      30.906 -23.382 -13.424  0.00  0.00    +0.157 C 
BRANCH  27  28
ATOM     28  O   UNL     1      32.043 -22.956 -12.680  0.00  0.00    -0.380 OA
ATOM     29  H   UNL     1      32.606 -22.400 -13.241  0.00  0.00    +0.211 HD
ENDBRANCH  27  28
ENDBRANCH  24  27
ENDBRANCH   2  24
TORSDOF 7
ENDMDL
MODEL 3
REMARK VINA RESULT:      -8.7      1.928      4.561
REMARK  Name = 160355
REMARK  7 active torsions:
REMARK  status: ('A' for Active; 'I' for Inactive)
REMARK    1  A    between atoms: N_1  and  C_12
REMARK    2  A    between atoms: N_2  and  CA_24
REMARK    3  A    between atoms: N_15  and  C_17
REMARK    4  A    between atoms: C_17  and  C_18
REMARK    5  A    between atoms: CA_24  and  C_25
REMARK    6  A    between atoms: CA_24  and  C_27
REMARK    7  A    between atoms: C_27  and  O_28
REMARK                            x       y       z     vdW  Elec       q    Type
REMARK                         _______ _______ _______ _____ _____    ______ ____
ROOT
ATOM      1  N   UNL     1      36.181 -23.138 -16.118  0.00  0.00    -0.262 N 
ATOM      2  N   UNL     1      31.523 -23.019 -17.046  0.00  0.00    -0.258 N 
ATOM      3  N   UNL     1      33.771 -23.188 -16.417  0.00  0.00    -0.311 NA
ATOM      4  N   UNL     1      36.766 -21.962 -17.919  0.00  0.00    -0.240 NA
ATOM      5  N   UNL     1      33.104 -21.997 -18.440  0.00  0.00    -0.311 NA
ATOM      6  C   UNL     1      35.018 -22.845 -16.772  0.00  0.00    +0.220 C 
ATOM      7  C   UNL     1      35.403 -22.116 -17.886  0.00  0.00    +0.167 C 
ATOM      8  C   UNL     1      34.389 -21.687 -18.737  0.00  0.00    +0.215 C 
ATOM      9  C   UNL     1      32.847 -22.724 -17.309  0.00  0.00    +0.202 C 
ATOM     10  C   UNL     1      37.202 -22.586 -16.845  0.00  0.00    +0.222 C 
ATOM     11  H   UNL     1      30.840 -22.694 -17.675  0.00  0.00    +0.160 HD
ATOM     12  N   UNL     1      34.688 -20.941 -19.891  0.00  0.00    -0.302 N 
ATOM     13  H   UNL     1      35.630 -20.731 -20.083  0.00  0.00    +0.150 HD
ENDROOT
BRANCH   1  14
ATOM     14  C   UNL     1      36.318 -23.886 -14.892  0.00  0.00    +0.077 C 
ATOM     15  C   UNL     1      35.569 -23.225 -13.732  0.00  0.00    +0.022 C 
ATOM     16  C   UNL     1      35.910 -25.350 -15.065  0.00  0.00    +0.022 C 
ENDBRANCH   1  14
BRANCH  12  17
ATOM     17  C   UNL     1      33.685 -20.474 -20.801  0.00  0.00    +0.116 C 
BRANCH  17  18
ATOM     18  C   UNL     1      34.194 -19.301 -21.591  0.00  0.00    -0.003 C 
ATOM     19  C   UNL     1      34.077 -18.020 -21.068  0.00  0.00    -0.003 C 
ATOM     20  C   UNL     1      34.776 -19.512 -22.834  0.00  0.00    -0.003 C 
ATOM     21  C   UNL     1      34.550 -16.931 -21.800  0.00  0.00    -0.000 C 
ATOM     22  C   UNL     1      35.248 -18.423 -23.567  0.00  0.00    -0.000 C 
ATOM     23  C   UNL     1      35.136 -17.133 -23.050  0.00  0.00    -0.000 C 
ENDBRANCH  17  18
ENDBRANCH  12  17
BRANCH   2  24
ATOM     24  CA  UNL     1      31.088 -23.782 -15.891  0.00  0.00    +0.109 C 
BRANCH  24  25
ATOM     25  C   UNL     1      29.797 -24.540 -16.226  0.00  0.00    +0.023 C 
ATOM     26  C   UNL     1      29.027 -24.971 -14.984  0.00  0.00    +0.002 C 
ENDBRANCH  24  25
BRANCH  24  27
ATOM     27  C   UNL     1      30.868 -22.823 -14.722  0.00  0.00    +0.157 C 
BRANCH  27  28
ATOM     28  O   UNL     1      32.054 -22.755 -13.938  0.00  0.00    -0.380 OA
ATOM     29  H   UNL     1      32.087 -23.514 -13.335  0.00  0.00    +0.211 HD
ENDBRANCH  27  28
ENDBRANCH  24  27
ENDBRANCH   2  24
TORSDOF 7
ENDMDL
MODEL 4
REMARK VINA RESULT:      -8.4      2.399      6.207
REMARK  Name = 160355
REMARK  7 active torsions:
REMARK  status: ('A' for Active; 'I' for Inactive)
REMARK    1  A    between atoms: N_1  and  C_12
REMARK    2  A    between atoms: N_2  and  CA_24
REMARK    3  A    between atoms: N_15  and  C_17
REMARK    4  A    between atoms: C_17  and  C_18
REMARK    5  A    between atoms: CA_24  and  C_25
REMARK    6  A    between atoms: CA_24  and  C_27
REMARK    7  A    between atoms: C_27  and  O_28
REMARK                            x       y       z     vdW  Elec       q    Type
REMARK                         _______ _______ _______ _____ _____    ______ ____
ROOT
ATOM      1  N   UNL     1      34.914 -22.051 -18.600  0.00  0.00    -0.262 N 
ATOM      2  N   UNL     1      34.375 -24.394 -14.502  0.00  0.00    -0.258 N 
ATOM      3  N   UNL     1      34.847 -23.252 -16.490  0.00  0.00    -0.311 NA
ATOM      4  N   UNL     1      32.729 -21.863 -19.002  0.00  0.00    -0.240 NA
ATOM      5  N   UNL     1      32.550 -23.693 -15.793  0.00  0.00    -0.311 NA
ATOM      6  C   UNL     1      34.283 -22.659 -17.552  0.00  0.00    +0.220 C 
ATOM      7  C   UNL     1      32.929 -22.532 -17.821  0.00  0.00    +0.167 C 
ATOM      8  C   UNL     1      32.050 -23.078 -16.891  0.00  0.00    +0.215 C 
ATOM      9  C   UNL     1      33.908 -23.756 -15.636  0.00  0.00    +0.202 C 
ATOM     10  C   UNL     1      33.939 -21.589 -19.444  0.00  0.00    +0.222 C 
ATOM     11  H   UNL     1      33.716 -24.764 -13.871  0.00  0.00    +0.160 HD
ATOM     12  N   UNL     1      30.659 -22.995 -17.084  0.00  0.00    -0.302 N 
ATOM     13  H   UNL     1      30.323 -22.543 -17.891  0.00  0.00    +0.150 HD
ENDROOT
BRANCH   1  14
ATOM     14  C   UNL     1      36.338 -21.915 -18.790  0.00  0.00    +0.077 C 
ATOM     15  C   UNL     1      36.672 -21.088 -20.033  0.00  0.00    +0.022 C 
ATOM     16  C   UNL     1      37.032 -21.366 -17.543  0.00  0.00    +0.022 C 
ENDBRANCH   1  14
BRANCH  12  17
ATOM     17  C   UNL     1      29.709 -23.539 -16.160  0.00  0.00    +0.116 C 
BRANCH  17  18
ATOM     18  C   UNL     1      28.369 -22.880 -16.332  0.00  0.00    -0.003 C 
ATOM     19  C   UNL     1      27.879 -22.647 -17.611  0.00  0.00    -0.003 C 
ATOM     20  C   UNL     1      27.636 -22.513 -15.210  0.00  0.00    -0.003 C 
ATOM     21  C   UNL     1      26.635 -22.037 -17.770  0.00  0.00    -0.000 C 
ATOM     22  C   UNL     1      26.393 -21.902 -15.371  0.00  0.00    -0.000 C 
ATOM     23  C   UNL     1      25.892 -21.664 -16.650  0.00  0.00    -0.000 C 
ENDBRANCH  17  18
ENDBRANCH  12  17
BRANCH   2  24
ATOM     24  CA  UNL     1      35.784 -24.546 -14.193  0.00  0.00    +0.109 C 
BRANCH  24  25
ATOM     25  C   UNL     1      36.332 -25.807 -14.874  0.00  0.00    +0.023 C 
ATOM     26  C   UNL     1      37.261 -26.608 -13.969  0.00  0.00    +0.002 C 
ENDBRANCH  24  25
BRANCH  24  27
ATOM     27  C   UNL     1      35.948 -24.632 -12.676  0.00  0.00    +0.157 C 
BRANCH  27  28
ATOM     28  O   UNL     1      34.693 -24.945 -12.082  0.00  0.00    -0.380 OA
ATOM     29  H   UNL     1      34.709 -24.702 -11.144  0.00  0.00    +0.211 HD
ENDBRANCH  27  28
ENDBRANCH  24  27
ENDBRANCH   2  24
TORSDOF 7
ENDMDL
MODEL 5
REMARK VINA RESULT:      -8.4      9.180     13.295
REMARK  Name = 160355
REMARK  7 active torsions:
REMARK  status: ('A' for Active; 'I' for Inactive)
REMARK    1  A    between atoms: N_1  and  C_12
REMARK    2  A    between atoms: N_2  and  CA_24
REMARK    3  A    between atoms: N_15  and  C_17
REMARK    4  A    between atoms: C_17  and  C_18
REMARK    5  A    between atoms: CA_24  and  C_25
REMARK    6  A    between atoms: CA_24  and  C_27
REMARK    7  A    between atoms: C_27  and  O_28
REMARK                            x       y       z     vdW  Elec       q    Type
REMARK                         _______ _______ _______ _____ _____    ______ ____
ROOT
ATOM      1  N   UNL     1      34.313 -15.698 -22.232  0.00  0.00    -0.262 N 
ATOM      2  N   UNL     1      33.437 -12.172 -25.294  0.00  0.00    -0.258 N 
ATOM      3  N   UNL     1      34.002 -13.986 -23.927  0.00  0.00    -0.311 NA
ATOM      4  N   UNL     1      32.904 -14.952 -20.673  0.00  0.00    -0.240 NA
ATOM      5  N   UNL     1      32.380 -12.310 -23.208  0.00  0.00    -0.311 NA
ATOM      6  C   UNL     1      33.759 -14.556 -22.738  0.00  0.00    +0.220 C 
ATOM      7  C   UNL     1      32.890 -14.109 -21.755  0.00  0.00    +0.167 C 
ATOM      8  C   UNL     1      32.185 -12.939 -22.024  0.00  0.00    +0.215 C 
ATOM      9  C   UNL     1      33.267 -12.848 -24.101  0.00  0.00    +0.202 C 
ATOM     10  C   UNL     1      33.767 -15.894 -20.991  0.00  0.00    +0.222 C 
ATOM     11  H   UNL     1      32.916 -11.349 -25.441  0.00  0.00    +0.160 HD
ATOM     12  N   UNL     1      31.282 -12.413 -21.084  0.00  0.00    -0.302 N 
ATOM     13  H   UNL     1      31.159 -12.891 -20.232  0.00  0.00    +0.150 HD
ENDROOT
BRANCH   1  14
ATOM     14  C   UNL     1      35.287 -16.545 -22.877  0.00  0.00    +0.077 C 
ATOM     15  C   UNL     1      35.729 -17.697 -21.973  0.00  0.00    +0.022 C 
ATOM     16  C   UNL     1      34.797 -17.049 -24.235  0.00  0.00    +0.022 C 
ENDBRANCH   1  14
BRANCH  12  17
ATOM     17  C   UNL     1      30.531 -11.214 -21.308  0.00  0.00    +0.116 C 
BRANCH  17  18
ATOM     18  C   UNL     1      31.369 -10.002 -21.009  0.00  0.00    -0.003 C 
ATOM     19  C   UNL     1      31.856  -9.230 -22.056  0.00  0.00    -0.003 C 
ATOM     20  C   UNL     1      31.646  -9.669 -19.690  0.00  0.00    -0.003 C 
ATOM     21  C   UNL     1      32.633  -8.106 -21.779  0.00  0.00    -0.000 C 
ATOM     22  C   UNL     1      32.424  -8.545 -19.413  0.00  0.00    -0.000 C 
ATOM     23  C   UNL     1      32.917  -7.763 -20.457  0.00  0.00    -0.000 C 
ENDBRANCH  17  18
ENDBRANCH  12  17
BRANCH   2  24
ATOM     24  CA  UNL     1      34.341 -12.611 -26.341  0.00  0.00    +0.109 C 
BRANCH  24  25
ATOM     25  C   UNL     1      35.052 -11.399 -26.955  0.00  0.00    +0.023 C 
ATOM     26  C   UNL     1      35.502 -10.387 -25.908  0.00  0.00    +0.002 C 
ENDBRANCH  24  25
BRANCH  24  27
ATOM     27  C   UNL     1      33.537 -13.365 -27.400  0.00  0.00    +0.157 C 
BRANCH  27  28
ATOM     28  O   UNL     1      33.547 -14.757 -27.098  0.00  0.00    -0.380 OA
ATOM     29  H   UNL     1      33.565 -14.878 -26.137  0.00  0.00    +0.211 HD
ENDBRANCH  27  28
ENDBRANCH  24  27
ENDBRANCH   2  24
TORSDOF 7
ENDMDL
MODEL 6
REMARK VINA RESULT:      -8.0      7.359     12.238
REMARK  Name = 160355
REMARK  7 active torsions:
REMARK  status: ('A' for Active; 'I' for Inactive)
REMARK    1  A    between atoms: N_1  and  C_12
REMARK    2  A    between atoms: N_2  and  CA_24
REMARK    3  A    between atoms: N_15  and  C_17
REMARK    4  A    between atoms: C_17  and  C_18
REMARK    5  A    between atoms: CA_24  and  C_25
REMARK    6  A    between atoms: CA_24  and  C_27
REMARK    7  A    between atoms: C_27  and  O_28
REMARK                            x       y       z     vdW  Elec       q    Type
REMARK                         _______ _______ _______ _____ _____    ______ ____
ROOT
ATOM      1  N   UNL     1      31.925 -12.586 -20.992  0.00  0.00    -0.262 N 
ATOM      2  N   UNL     1      34.003 -13.668 -25.125  0.00  0.00    -0.258 N 
ATOM      3  N   UNL     1      32.903 -12.965 -23.183  0.00  0.00    -0.311 NA
ATOM      4  N   UNL     1      32.700 -14.377 -19.913  0.00  0.00    -0.240 NA
ATOM      5  N   UNL     1      34.222 -15.018 -23.223  0.00  0.00    -0.311 NA
ATOM      6  C   UNL     1      32.673 -13.281 -21.900  0.00  0.00    +0.220 C 
ATOM      7  C   UNL     1      33.143 -14.388 -21.212  0.00  0.00    +0.167 C 
ATOM      8  C   UNL     1      33.947 -15.275 -21.922  0.00  0.00    +0.215 C 
ATOM      9  C   UNL     1      33.699 -13.890 -23.796  0.00  0.00    +0.202 C 
ATOM     10  C   UNL     1      31.973 -13.284 -19.814  0.00  0.00    +0.222 C 
ATOM     11  H   UNL     1      34.576 -14.323 -25.587  0.00  0.00    +0.160 HD
ATOM     12  N   UNL     1      34.468 -16.425 -21.302  0.00  0.00    -0.302 N 
ATOM     13  H   UNL     1      34.252 -16.587 -20.356  0.00  0.00    +0.150 HD
ENDROOT
BRANCH   1  14
ATOM     14  C   UNL     1      31.217 -11.351 -21.220  0.00  0.00    +0.077 C 
ATOM     15  C   UNL     1      30.795 -10.683 -19.910  0.00  0.00    +0.022 C 
ATOM     16  C   UNL     1      32.009 -10.393 -22.112  0.00  0.00    +0.022 C 
ENDBRANCH   1  14
BRANCH  12  17
ATOM     17  C   UNL     1      35.299 -17.371 -21.985  0.00  0.00    +0.116 C 
BRANCH  17  18
ATOM     18  C   UNL     1      35.298 -18.690 -21.264  0.00  0.00    -0.003 C 
ATOM     19  C   UNL     1      36.505 -19.264 -20.882  0.00  0.00    -0.003 C 
ATOM     20  C   UNL     1      34.092 -19.320 -20.990  0.00  0.00    -0.003 C 
ATOM     21  C   UNL     1      36.504 -20.487 -20.213  0.00  0.00    -0.000 C 
ATOM     22  C   UNL     1      34.092 -20.545 -20.321  0.00  0.00    -0.000 C 
ATOM     23  C   UNL     1      35.297 -21.128 -19.932  0.00  0.00    -0.000 C 
ENDBRANCH  17  18
ENDBRANCH  12  17
BRANCH   2  24
ATOM     24  CA  UNL     1      33.524 -12.523 -25.875  0.00  0.00    +0.109 C 
BRANCH  24  25
ATOM     25  C   UNL     1      33.120 -12.960 -27.289  0.00  0.00    +0.023 C 
ATOM     26  C   UNL     1      32.794 -14.446 -27.376  0.00  0.00    +0.002 C 
ENDBRANCH  24  25
BRANCH  24  27
ATOM     27  C   UNL     1      34.631 -11.470 -25.926  0.00  0.00    +0.157 C 
BRANCH  27  28
ATOM     28  O   UNL     1      34.767 -10.866 -24.644  0.00  0.00    -0.380 OA
ATOM     29  H   UNL     1      35.261 -11.461 -24.059  0.00  0.00    +0.211 HD
ENDBRANCH  27  28
ENDBRANCH  24  27
ENDBRANCH   2  24
TORSDOF 7
ENDMDL
MODEL 7
REMARK VINA RESULT:      -7.9      6.774     11.778
REMARK  Name = 160355
REMARK  7 active torsions:
REMARK  status: ('A' for Active; 'I' for Inactive)
REMARK    1  A    between atoms: N_1  and  C_12
REMARK    2  A    between atoms: N_2  and  CA_24
REMARK    3  A    between atoms: N_15  and  C_17
REMARK    4  A    between atoms: C_17  and  C_18
REMARK    5  A    between atoms: CA_24  and  C_25
REMARK    6  A    between atoms: CA_24  and  C_27
REMARK    7  A    between atoms: C_27  and  O_28
REMARK                            x       y       z     vdW  Elec       q    Type
REMARK                         _______ _______ _______ _____ _____    ______ ____
ROOT
ATOM      1  N   UNL     1      32.172 -13.071 -21.582  0.00  0.00    -0.262 N 
ATOM      2  N   UNL     1      33.999 -15.084 -25.478  0.00  0.00    -0.258 N 
ATOM      3  N   UNL     1      33.027 -13.940 -23.683  0.00  0.00    -0.311 NA
ATOM      4  N   UNL     1      32.912 -14.646 -20.187  0.00  0.00    -0.240 NA
ATOM      5  N   UNL     1      34.243 -16.029 -23.349  0.00  0.00    -0.311 NA
ATOM      6  C   UNL     1      32.843 -13.976 -22.355  0.00  0.00    +0.220 C 
ATOM      7  C   UNL     1      33.292 -14.945 -21.471  0.00  0.00    +0.167 C 
ATOM      8  C   UNL     1      34.018 -16.001 -22.013  0.00  0.00    +0.215 C 
ATOM      9  C   UNL     1      33.747 -15.014 -24.121  0.00  0.00    +0.202 C 
ATOM     10  C   UNL     1      32.243 -13.516 -20.288  0.00  0.00    +0.222 C 
ATOM     11  H   UNL     1      34.517 -15.849 -25.817  0.00  0.00    +0.160 HD
ATOM     12  N   UNL     1      34.513 -17.029 -21.191  0.00  0.00    -0.302 N 
ATOM     13  H   UNL     1      34.335 -16.983 -20.224  0.00  0.00    +0.150 HD
ENDROOT
BRANCH   1  14
ATOM     14  C   UNL     1      31.514 -11.869 -22.032  0.00  0.00    +0.077 C 
ATOM     15  C   UNL     1      30.692 -11.216 -20.919  0.00  0.00    +0.022 C 
ATOM     16  C   UNL     1      32.495 -10.881 -22.664  0.00  0.00    +0.022 C 
ENDBRANCH   1  14
BRANCH  12  17
ATOM     17  C   UNL     1      35.265 -18.139 -21.695  0.00  0.00    +0.116 C 
BRANCH  17  18
ATOM     18  C   UNL     1      34.953 -19.386 -20.915  0.00  0.00    -0.003 C 
ATOM     19  C   UNL     1      33.629 -19.769 -20.737  0.00  0.00    -0.003 C 
ATOM     20  C   UNL     1      35.991 -20.139 -20.383  0.00  0.00    -0.003 C 
ATOM     21  C   UNL     1      33.340 -20.927 -20.015  0.00  0.00    -0.000 C 
ATOM     22  C   UNL     1      35.700 -21.296 -19.659  0.00  0.00    -0.000 C 
ATOM     23  C   UNL     1      34.375 -21.690 -19.476  0.00  0.00    -0.000 C 
ENDBRANCH  17  18
ENDBRANCH  12  17
BRANCH   2  24
ATOM     24  CA  UNL     1      33.539 -14.089 -26.429  0.00  0.00    +0.109 C 
BRANCH  24  25
ATOM     25  C   UNL     1      33.428 -12.723 -25.740  0.00  0.00    +0.023 C 
ATOM     26  C   UNL     1      34.453 -11.719 -26.255  0.00  0.00    +0.002 C 
ENDBRANCH  24  25
BRANCH  24  27
ATOM     27  C   UNL     1      32.185 -14.530 -26.986  0.00  0.00    +0.157 C 
BRANCH  27  28
ATOM     28  O   UNL     1      32.092 -15.949 -26.931  0.00  0.00    -0.380 OA
ATOM     29  H   UNL     1      31.939 -16.298 -27.823  0.00  0.00    +0.211 HD
ENDBRANCH  27  28
ENDBRANCH  24  27
ENDBRANCH   2  24
TORSDOF 7
ENDMDL
MODEL 8
REMARK VINA RESULT:      -7.8      2.369      6.253
REMARK  Name = 160355
REMARK  7 active torsions:
REMARK  status: ('A' for Active; 'I' for Inactive)
REMARK    1  A    between atoms: N_1  and  C_12
REMARK    2  A    between atoms: N_2  and  CA_24
REMARK    3  A    between atoms: N_15  and  C_17
REMARK    4  A    between atoms: C_17  and  C_18
REMARK    5  A    between atoms: CA_24  and  C_25
REMARK    6  A    between atoms: CA_24  and  C_27
REMARK    7  A    between atoms: C_27  and  O_28
REMARK                            x       y       z     vdW  Elec       q    Type
REMARK                         _______ _______ _______ _____ _____    ______ ____
ROOT
ATOM      1  N   UNL     1      34.944 -21.757 -19.018  0.00  0.00    -0.262 N 
ATOM      2  N   UNL     1      34.784 -24.455 -15.111  0.00  0.00    -0.258 N 
ATOM      3  N   UNL     1      35.072 -23.141 -17.026  0.00  0.00    -0.311 NA
ATOM      4  N   UNL     1      32.732 -21.539 -19.191  0.00  0.00    -0.240 NA
ATOM      5  N   UNL     1      32.849 -23.647 -16.154  0.00  0.00    -0.311 NA
ATOM      6  C   UNL     1      34.412 -22.457 -17.972  0.00  0.00    +0.220 C 
ATOM      7  C   UNL     1      33.040 -22.310 -18.098  0.00  0.00    +0.167 C 
ATOM      8  C   UNL     1      32.250 -22.938 -17.140  0.00  0.00    +0.215 C 
ATOM      9  C   UNL     1      34.216 -23.720 -16.133  0.00  0.00    +0.202 C 
ATOM     10  C   UNL     1      33.896 -21.224 -19.720  0.00  0.00    +0.222 C 
ATOM     11  H   UNL     1      34.186 -24.881 -14.455  0.00  0.00    +0.160 HD
ATOM     12  N   UNL     1      30.848 -22.842 -17.191  0.00  0.00    -0.302 N 
ATOM     13  H   UNL     1      30.439 -22.321 -17.919  0.00  0.00    +0.150 HD
ENDROOT
BRANCH   1  14
ATOM     14  C   UNL     1      36.344 -21.601 -19.331  0.00  0.00    +0.077 C 
ATOM     15  C   UNL     1      36.568 -20.597 -20.463  0.00  0.00    +0.022 C 
ATOM     16  C   UNL     1      37.171 -21.250 -18.093  0.00  0.00    +0.022 C 
ENDBRANCH   1  14
BRANCH  12  17
ATOM     17  C   UNL     1      29.987 -23.468 -16.232  0.00  0.00    +0.116 C 
BRANCH  17  18
ATOM     18  C   UNL     1      28.604 -22.882 -16.303  0.00  0.00    -0.003 C 
ATOM     19  C   UNL     1      27.952 -22.521 -15.130  0.00  0.00    -0.003 C 
ATOM     20  C   UNL     1      27.995 -22.709 -17.539  0.00  0.00    -0.003 C 
ATOM     21  C   UNL     1      26.670 -21.977 -15.196  0.00  0.00    -0.000 C 
ATOM     22  C   UNL     1      26.712 -22.165 -17.603  0.00  0.00    -0.000 C 
ATOM     23  C   UNL     1      26.050 -21.799 -16.432  0.00  0.00    -0.000 C 
ENDBRANCH  17  18
ENDBRANCH  12  17
BRANCH   2  24
ATOM     24  CA  UNL     1      36.216 -24.631 -14.953  0.00  0.00    +0.109 C 
BRANCH  24  25
ATOM     25  C   UNL     1      36.508 -26.025 -14.382  0.00  0.00    +0.023 C 
ATOM     26  C   UNL     1      37.231 -25.974 -13.042  0.00  0.00    +0.002 C 
ENDBRANCH  24  25
BRANCH  24  27
ATOM     27  C   UNL     1      36.746 -23.541 -14.022  0.00  0.00    +0.157 C 
BRANCH  27  28
ATOM     28  O   UNL     1      37.402 -22.540 -14.794  0.00  0.00    -0.380 OA
ATOM     29  H   UNL     1      38.173 -22.927 -15.236  0.00  0.00    +0.211 HD
ENDBRANCH  27  28
ENDBRANCH  24  27
ENDBRANCH   2  24
TORSDOF 7
ENDMDL
MODEL 9
REMARK VINA RESULT:      -7.7     11.856     15.547
REMARK  Name = 160355
REMARK  7 active torsions:
REMARK  status: ('A' for Active; 'I' for Inactive)
REMARK    1  A    between atoms: N_1  and  C_12
REMARK    2  A    between atoms: N_2  and  CA_24
REMARK    3  A    between atoms: N_15  and  C_17
REMARK    4  A    between atoms: C_17  and  C_18
REMARK    5  A    between atoms: CA_24  and  C_25
REMARK    6  A    between atoms: CA_24  and  C_27
REMARK    7  A    between atoms: C_27  and  O_28
REMARK                            x       y       z     vdW  Elec       q    Type
REMARK                         _______ _______ _______ _____ _____    ______ ____
ROOT
ATOM      1  N   UNL     1      31.815  -9.960 -20.694  0.00  0.00    -0.262 N 
ATOM      2  N   UNL     1      33.567 -11.761 -24.725  0.00  0.00    -0.258 N 
ATOM      3  N   UNL     1      32.636 -11.067 -22.694  0.00  0.00    -0.311 NA
ATOM      4  N   UNL     1      32.496  -7.876 -21.102  0.00  0.00    -0.240 NA
ATOM      5  N   UNL     1      33.775  -9.495 -24.173  0.00  0.00    -0.311 NA
ATOM      6  C   UNL     1      32.451 -10.000 -21.902  0.00  0.00    +0.220 C 
ATOM      7  C   UNL     1      32.866  -8.699 -22.137  0.00  0.00    +0.167 C 
ATOM      8  C   UNL     1      33.552  -8.462 -23.324  0.00  0.00    +0.215 C 
ATOM      9  C   UNL     1      33.316 -10.738 -23.832  0.00  0.00    +0.202 C 
ATOM     10  C   UNL     1      31.868  -8.664 -20.254  0.00  0.00    +0.222 C 
ATOM     11  H   UNL     1      34.056 -11.547 -25.553  0.00  0.00    +0.160 HD
ATOM     12  N   UNL     1      34.011  -7.172 -23.644  0.00  0.00    -0.302 N 
ATOM     13  H   UNL     1      33.835  -6.441 -23.009  0.00  0.00    +0.150 HD
ENDROOT
BRANCH   1  14
ATOM     14  C   UNL     1      31.200 -11.067 -20.004  0.00  0.00    +0.077 C 
ATOM     15  C   UNL     1      31.831 -12.405 -20.393  0.00  0.00    +0.022 C 
ATOM     16  C   UNL     1      31.194 -10.865 -18.488  0.00  0.00    +0.022 C 
ENDBRANCH   1  14
BRANCH  12  17
ATOM     17  C   UNL     1      34.722  -6.872 -24.851  0.00  0.00    +0.116 C 
BRANCH  17  18
ATOM     18  C   UNL     1      34.008  -5.805 -25.633  0.00  0.00    -0.003 C 
ATOM     19  C   UNL     1      32.741  -5.397 -25.237  0.00  0.00    -0.003 C 
ATOM     20  C   UNL     1      34.624  -5.240 -26.742  0.00  0.00    -0.003 C 
ATOM     21  C   UNL     1      32.079  -4.406 -25.962  0.00  0.00    -0.000 C 
ATOM     22  C   UNL     1      33.961  -4.250 -27.467  0.00  0.00    -0.000 C 
ATOM     23  C   UNL     1      32.690  -3.833 -27.077  0.00  0.00    -0.000 C 
ENDBRANCH  17  18
ENDBRANCH  12  17
BRANCH   2  24
ATOM     24  CA  UNL     1      33.150 -13.134 -24.508  0.00  0.00    +0.109 C 
BRANCH  24  25
ATOM     25  C   UNL     1      34.149 -13.841 -23.583  0.00  0.00    +0.023 C 
ATOM     26  C   UNL     1      33.492 -14.901 -22.707  0.00  0.00    +0.002 C 
ENDBRANCH  24  25
BRANCH  24  27
ATOM     27  C   UNL     1      33.065 -13.841 -25.860  0.00  0.00    +0.157 C 
BRANCH  27  28
ATOM     28  O   UNL     1      33.449 -12.938 -26.891  0.00  0.00    -0.380 OA
ATOM     29  H   UNL     1      33.711 -12.091 -26.497  0.00  0.00    +0.211 HD
ENDBRANCH  27  28
ENDBRANCH  24  27
ENDBRANCH   2  24
TORSDOF 7
ENDMDL
