MODEL 1
REMARK VINA RESULT:      -9.2      0.000      0.000
REMARK  Name = 46937115
REMARK  6 active torsions:
REMARK  status: ('A' for Active; 'I' for Inactive)
REMARK    1  A    between atoms: N_1  and  CA_21
REMARK    2  A    between atoms: C_6  and  C_12
REMARK    3  A    between atoms: C_15  and  N_18
REMARK    4  A    between atoms: CA_21  and  CB_22
REMARK    5  A    between atoms: CA_21  and  C_25
REMARK    6  A    between atoms: C_25  and  O_26
REMARK                            x       y       z     vdW  Elec       q    Type
REMARK                         _______ _______ _______ _____ _____    ______ ____
ROOT
ATOM      1  N   VAL A   1      35.698 -21.900 -18.320  0.00  0.00    -0.316 N 
ATOM      2  N   UNK A   0      35.078 -23.307 -15.174  0.00  0.00    -0.170 N 
ATOM      3  N   UNK A   0      34.813 -22.848 -16.426  0.00  0.00    -0.158 NA
ATOM      4  N   UNK A   0      36.195 -23.844 -13.322  0.00  0.00    -0.226 NA
ATOM      5  C   UNK A   0      35.852 -22.377 -17.077  0.00  0.00    +0.147 C 
ATOM      6  C   UNK A   0      34.158 -23.842 -14.311  0.00  0.00    +0.095 C 
ATOM      7  C   UNK A   0      36.299 -23.329 -14.531  0.00  0.00    +0.155 C 
ATOM      8  C   UNK A   0      37.231 -22.349 -16.480  0.00  0.00    +0.039 C 
ATOM      9  C   UNK A   0      37.406 -22.820 -15.241  0.00  0.00    +0.039 C 
ATOM     10  C   UNK A   0      34.870 -24.165 -13.180  0.00  0.00    +0.117 C 
ATOM     11  H   VAL A   1      36.490 -21.558 -18.795  0.00  0.00    +0.148 HD
ENDROOT
BRANCH   6  12
ATOM     12  C   UNK A   0      32.755 -23.997 -14.609  0.00  0.00    +0.018 C 
ATOM     13  C   UNK A   0      32.165 -23.225 -15.610  0.00  0.00    +0.015 C 
ATOM     14  C   UNK A   0      31.989 -24.919 -13.896  0.00  0.00    +0.001 C 
ATOM     15  C   UNK A   0      30.809 -23.376 -15.898  0.00  0.00    +0.042 C 
ATOM     16  C   UNK A   0      30.633 -25.070 -14.184  0.00  0.00    +0.001 C 
ATOM     17  C   UNK A   0      30.042 -24.298 -15.186  0.00  0.00    +0.014 C 
BRANCH  15  18
ATOM     18  N   UNK A   0      30.211 -22.594 -16.909  0.00  0.00    -0.357 N 
ATOM     19  H   UNK A   0      30.431 -22.761 -17.855  0.00  0.00    +0.142 HD
ATOM     20  H   UNK A   0      29.574 -21.884 -16.670  0.00  0.00    +0.142 HD
ENDBRANCH  15  18
ENDBRANCH   6  12
BRANCH   1  21
ATOM     21  CA  VAL A   1      34.413 -21.864 -18.995  0.00  0.00    +0.100 C 
BRANCH  21  22
ATOM     22  CB  VAL A   1      34.265 -20.565 -19.821  0.00  0.00    +0.020 C 
ATOM     23  CG1 VAL A   1      35.446 -20.375 -20.780  0.00  0.00    +0.002 C 
ATOM     24  CG2 VAL A   1      32.947 -20.470 -20.595  0.00  0.00    +0.002 C 
ENDBRANCH  21  22
BRANCH  21  25
ATOM     25  C   VAL A   1      34.261 -23.126 -19.849  0.00  0.00    +0.157 C 
BRANCH  25  26
ATOM     26  O   VAL A   1      33.766 -24.186 -19.036  0.00  0.00    -0.380 OA
ATOM     27  H   VAL A   1      32.817 -24.059 -18.882  0.00  0.00    +0.211 HD
ENDBRANCH  25  26
ENDBRANCH  21  25
ENDBRANCH   1  21
TORSDOF 6
ENDMDL
MODEL 2
REMARK VINA RESULT:      -8.6     11.329     14.774
REMARK  Name = 46937115
REMARK  6 active torsions:
REMARK  status: ('A' for Active; 'I' for Inactive)
REMARK    1  A    between atoms: N_1  and  CA_21
REMARK    2  A    between atoms: C_6  and  C_12
REMARK    3  A    between atoms: C_15  and  N_18
REMARK    4  A    between atoms: CA_21  and  CB_22
REMARK    5  A    between atoms: CA_21  and  C_25
REMARK    6  A    between atoms: C_25  and  O_26
REMARK                            x       y       z     vdW  Elec       q    Type
REMARK                         _______ _______ _______ _____ _____    ______ ____
ROOT
ATOM      1  N   VAL A   1      31.771  -8.698 -21.707  0.00  0.00    -0.316 N 
ATOM      2  N   UNK A   0      32.363 -12.119 -22.155  0.00  0.00    -0.170 N 
ATOM      3  N   UNK A   0      32.295 -10.799 -22.469  0.00  0.00    -0.158 NA
ATOM      4  N   UNK A   0      32.226 -14.016 -20.993  0.00  0.00    -0.226 NA
ATOM      5  C   UNK A   0      31.874 -10.018 -21.500  0.00  0.00    +0.147 C 
ATOM      6  C   UNK A   0      32.773 -13.118 -22.999  0.00  0.00    +0.095 C 
ATOM      7  C   UNK A   0      32.042 -12.712 -20.951  0.00  0.00    +0.155 C 
ATOM      8  C   UNK A   0      31.494 -10.548 -20.146  0.00  0.00    +0.039 C 
ATOM      9  C   UNK A   0      31.590 -11.862 -19.919  0.00  0.00    +0.039 C 
ATOM     10  C   UNK A   0      32.680 -14.274 -22.261  0.00  0.00    +0.117 C 
ATOM     11  H   VAL A   1      31.460  -8.127 -20.967  0.00  0.00    +0.148 HD
ENDROOT
BRANCH   6  12
ATOM     12  C   UNK A   0      33.197 -12.910 -24.362  0.00  0.00    +0.018 C 
ATOM     13  C   UNK A   0      34.039 -11.843 -24.676  0.00  0.00    +0.015 C 
ATOM     14  C   UNK A   0      32.764 -13.777 -25.366  0.00  0.00    +0.001 C 
ATOM     15  C   UNK A   0      34.449 -11.643 -25.994  0.00  0.00    +0.042 C 
ATOM     16  C   UNK A   0      33.174 -13.577 -26.684  0.00  0.00    +0.001 C 
ATOM     17  C   UNK A   0      34.016 -12.509 -26.999  0.00  0.00    +0.014 C 
BRANCH  15  18
ATOM     18  N   UNK A   0      35.299 -10.564 -26.313  0.00  0.00    -0.357 N 
ATOM     19  H   UNK A   0      36.209 -10.526 -25.937  0.00  0.00    +0.142 HD
ATOM     20  H   UNK A   0      34.984  -9.849 -26.911  0.00  0.00    +0.142 HD
ENDBRANCH  15  18
ENDBRANCH   6  12
BRANCH   1  21
ATOM     21  CA  VAL A   1      32.096  -8.073 -22.976  0.00  0.00    +0.100 C 
BRANCH  21  22
ATOM     22  CB  VAL A   1      31.161  -6.871 -23.250  0.00  0.00    +0.020 C 
ATOM     23  CG1 VAL A   1      31.101  -5.923 -22.047  0.00  0.00    +0.002 C 
ATOM     24  CG2 VAL A   1      31.517  -6.085 -24.515  0.00  0.00    +0.002 C 
ENDBRANCH  21  22
BRANCH  21  25
ATOM     25  C   VAL A   1      33.576  -7.679 -22.975  0.00  0.00    +0.157 C 
BRANCH  25  26
ATOM     26  O   VAL A   1      34.306  -8.597 -23.782  0.00  0.00    -0.380 OA
ATOM     27  H   VAL A   1      35.238  -8.592 -23.516  0.00  0.00    +0.211 HD
ENDBRANCH  25  26
ENDBRANCH  21  25
ENDBRANCH   1  21
TORSDOF 6
ENDMDL
MODEL 3
REMARK VINA RESULT:      -8.6      1.642      5.267
REMARK  Name = 46937115
REMARK  6 active torsions:
REMARK  status: ('A' for Active; 'I' for Inactive)
REMARK    1  A    between atoms: N_1  and  CA_21
REMARK    2  A    between atoms: C_6  and  C_12
REMARK    3  A    between atoms: C_15  and  N_18
REMARK    4  A    between atoms: CA_21  and  CB_22
REMARK    5  A    between atoms: CA_21  and  C_25
REMARK    6  A    between atoms: C_25  and  O_26
REMARK                            x       y       z     vdW  Elec       q    Type
REMARK                         _______ _______ _______ _____ _____    ______ ____
ROOT
ATOM      1  N   VAL A   1      31.841 -24.335 -14.611  0.00  0.00    -0.316 N 
ATOM      2  N   UNK A   0      35.136 -23.276 -15.139  0.00  0.00    -0.170 N 
ATOM      3  N   UNK A   0      33.826 -23.511 -15.416  0.00  0.00    -0.158 NA
ATOM      4  N   UNK A   0      37.073 -23.192 -14.039  0.00  0.00    -0.226 NA
ATOM      5  C   UNK A   0      33.143 -24.062 -14.440  0.00  0.00    +0.147 C 
ATOM      6  C   UNK A   0      36.042 -22.710 -15.997  0.00  0.00    +0.095 C 
ATOM      7  C   UNK A   0      35.807 -23.551 -13.964  0.00  0.00    +0.155 C 
ATOM      8  C   UNK A   0      33.764 -24.408 -13.116  0.00  0.00    +0.039 C 
ATOM      9  C   UNK A   0      35.061 -24.144 -12.925  0.00  0.00    +0.039 C 
ATOM     10  C   UNK A   0      37.225 -22.670 -15.298  0.00  0.00    +0.117 C 
ATOM     11  H   VAL A   1      31.343 -24.742 -13.865  0.00  0.00    +0.148 HD
ENDROOT
BRANCH   6  12
ATOM     12  C   UNK A   0      35.733 -22.277 -17.338  0.00  0.00    +0.018 C 
ATOM     13  C   UNK A   0      34.447 -22.452 -17.849  0.00  0.00    +0.015 C 
ATOM     14  C   UNK A   0      36.722 -21.683 -18.123  0.00  0.00    +0.001 C 
ATOM     15  C   UNK A   0      34.149 -22.032 -19.146  0.00  0.00    +0.042 C 
ATOM     16  C   UNK A   0      36.424 -21.263 -19.420  0.00  0.00    +0.001 C 
ATOM     17  C   UNK A   0      35.137 -21.438 -19.931  0.00  0.00    +0.014 C 
BRANCH  15  18
ATOM     18  N   UNK A   0      32.849 -22.209 -19.663  0.00  0.00    -0.357 N 
ATOM     19  H   UNK A   0      32.585 -21.756 -20.497  0.00  0.00    +0.142 HD
ATOM     20  H   UNK A   0      32.206 -22.786 -19.192  0.00  0.00    +0.142 HD
ENDBRANCH  15  18
ENDBRANCH   6  12
BRANCH   1  21
ATOM     21  CA  VAL A   1      31.136 -24.058 -15.849  0.00  0.00    +0.100 C 
BRANCH  21  22
ATOM     22  CB  VAL A   1      29.848 -24.910 -15.948  0.00  0.00    +0.020 C 
ATOM     23  CG1 VAL A   1      29.503 -25.559 -14.602  0.00  0.00    +0.002 C 
ATOM     24  CG2 VAL A   1      28.635 -24.141 -16.480  0.00  0.00    +0.002 C 
ENDBRANCH  21  22
BRANCH  21  25
ATOM     25  C   VAL A   1      30.856 -22.555 -15.940  0.00  0.00    +0.157 C 
BRANCH  25  26
ATOM     26  O   VAL A   1      30.980 -22.136 -17.295  0.00  0.00    -0.380 OA
ATOM     27  H   VAL A   1      31.729 -21.526 -17.378  0.00  0.00    +0.211 HD
ENDBRANCH  25  26
ENDBRANCH  21  25
ENDBRANCH   1  21
TORSDOF 6
ENDMDL
MODEL 4
REMARK VINA RESULT:      -8.5     11.373     14.653
REMARK  Name = 46937115
REMARK  6 active torsions:
REMARK  status: ('A' for Active; 'I' for Inactive)
REMARK    1  A    between atoms: N_1  and  CA_21
REMARK    2  A    between atoms: C_6  and  C_12
REMARK    3  A    between atoms: C_15  and  N_18
REMARK    4  A    between atoms: CA_21  and  CB_22
REMARK    5  A    between atoms: CA_21  and  C_25
REMARK    6  A    between atoms: C_25  and  O_26
REMARK                            x       y       z     vdW  Elec       q    Type
REMARK                         _______ _______ _______ _____ _____    ______ ____
ROOT
ATOM      1  N   VAL A   1      31.780  -8.216 -21.695  0.00  0.00    -0.316 N 
ATOM      2  N   UNK A   0      32.235 -11.688 -21.648  0.00  0.00    -0.170 N 
ATOM      3  N   UNK A   0      32.190 -10.428 -22.156  0.00  0.00    -0.158 NA
ATOM      4  N   UNK A   0      32.109 -13.381 -20.205  0.00  0.00    -0.226 NA
ATOM      5  C   UNK A   0      31.853  -9.494 -21.295  0.00  0.00    +0.147 C 
ATOM      6  C   UNK A   0      32.560 -12.818 -22.351  0.00  0.00    +0.095 C 
ATOM      7  C   UNK A   0      31.969 -12.079 -20.351  0.00  0.00    +0.155 C 
ATOM      8  C   UNK A   0      31.541  -9.799 -19.857  0.00  0.00    +0.039 C 
ATOM      9  C   UNK A   0      31.609 -11.066 -19.438  0.00  0.00    +0.039 C 
ATOM     10  C   UNK A   0      32.476 -13.845 -21.442  0.00  0.00    +0.117 C 
ATOM     11  H   VAL A   1      31.533  -7.529 -21.035  0.00  0.00    +0.148 HD
ENDROOT
BRANCH   6  12
ATOM     12  C   UNK A   0      32.906 -12.835 -23.752  0.00  0.00    +0.018 C 
ATOM     13  C   UNK A   0      32.544 -13.923 -24.546  0.00  0.00    +0.015 C 
ATOM     14  C   UNK A   0      33.603 -11.764 -24.310  0.00  0.00    +0.001 C 
ATOM     15  C   UNK A   0      32.878 -13.938 -25.901  0.00  0.00    +0.042 C 
ATOM     16  C   UNK A   0      33.937 -11.779 -25.665  0.00  0.00    +0.001 C 
ATOM     17  C   UNK A   0      33.574 -12.867 -26.460  0.00  0.00    +0.014 C 
BRANCH  15  18
ATOM     18  N   UNK A   0      32.512 -15.038 -26.705  0.00  0.00    -0.357 N 
ATOM     19  H   UNK A   0      32.437 -15.936 -26.306  0.00  0.00    +0.142 HD
ATOM     20  H   UNK A   0      32.332 -14.909 -27.663  0.00  0.00    +0.142 HD
ENDBRANCH  15  18
ENDBRANCH   6  12
BRANCH   1  21
ATOM     21  CA  VAL A   1      32.047  -7.804 -23.061  0.00  0.00    +0.100 C 
BRANCH  21  22
ATOM     22  CB  VAL A   1      31.070  -6.685 -23.495  0.00  0.00    +0.020 C 
ATOM     23  CG1 VAL A   1      30.681  -5.792 -22.312  0.00  0.00    +0.002 C 
ATOM     24  CG2 VAL A   1      31.590  -5.822 -24.649  0.00  0.00    +0.002 C 
ENDBRANCH  21  22
BRANCH  21  25
ATOM     25  C   VAL A   1      33.514  -7.383 -23.179  0.00  0.00    +0.157 C 
BRANCH  25  26
ATOM     26  O   VAL A   1      34.294  -8.507 -23.575  0.00  0.00    -0.380 OA
ATOM     27  H   VAL A   1      35.117  -8.201 -23.986  0.00  0.00    +0.211 HD
ENDBRANCH  25  26
ENDBRANCH  21  25
ENDBRANCH   1  21
TORSDOF 6
ENDMDL
MODEL 5
REMARK VINA RESULT:      -8.4     11.495     14.720
REMARK  Name = 46937115
REMARK  6 active torsions:
REMARK  status: ('A' for Active; 'I' for Inactive)
REMARK    1  A    between atoms: N_1  and  CA_21
REMARK    2  A    between atoms: C_6  and  C_12
REMARK    3  A    between atoms: C_15  and  N_18
REMARK    4  A    between atoms: CA_21  and  CB_22
REMARK    5  A    between atoms: CA_21  and  C_25
REMARK    6  A    between atoms: C_25  and  O_26
REMARK                            x       y       z     vdW  Elec       q    Type
REMARK                         _______ _______ _______ _____ _____    ______ ____
ROOT
ATOM      1  N   VAL A   1      33.636 -12.821 -24.637  0.00  0.00    -0.316 N 
ATOM      2  N   UNK A   0      32.152 -11.348 -21.829  0.00  0.00    -0.170 N 
ATOM      3  N   UNK A   0      32.666 -11.436 -23.083  0.00  0.00    -0.158 NA
ATOM      4  N   UNK A   0      31.498 -11.922 -19.776  0.00  0.00    -0.226 NA
ATOM      5  C   UNK A   0      33.108 -12.626 -23.420  0.00  0.00    +0.147 C 
ATOM      6  C   UNK A   0      31.632 -10.216 -21.259  0.00  0.00    +0.095 C 
ATOM      7  C   UNK A   0      32.048 -12.357 -20.892  0.00  0.00    +0.155 C 
ATOM      8  C   UNK A   0      33.050 -13.802 -22.485  0.00  0.00    +0.039 C 
ATOM      9  C   UNK A   0      32.528 -13.630 -21.266  0.00  0.00    +0.039 C 
ATOM     10  C   UNK A   0      31.236 -10.594 -19.998  0.00  0.00    +0.117 C 
ATOM     11  H   VAL A   1      33.956 -13.721 -24.875  0.00  0.00    +0.148 HD
ENDROOT
BRANCH   6  12
ATOM     12  C   UNK A   0      31.555  -8.934 -21.918  0.00  0.00    +0.018 C 
ATOM     13  C   UNK A   0      31.882  -7.771 -21.221  0.00  0.00    +0.015 C 
ATOM     14  C   UNK A   0      31.154  -8.859 -23.251  0.00  0.00    +0.001 C 
ATOM     15  C   UNK A   0      31.809  -6.532 -21.858  0.00  0.00    +0.042 C 
ATOM     16  C   UNK A   0      31.080  -7.621 -23.889  0.00  0.00    +0.001 C 
ATOM     17  C   UNK A   0      31.408  -6.457 -23.192  0.00  0.00    +0.014 C 
BRANCH  15  18
ATOM     18  N   UNK A   0      32.138  -5.356 -21.153  0.00  0.00    -0.357 N 
ATOM     19  H   UNK A   0      31.424  -4.778 -20.799  0.00  0.00    +0.142 HD
ATOM     20  H   UNK A   0      33.082  -5.113 -21.015  0.00  0.00    +0.142 HD
ENDBRANCH  15  18
ENDBRANCH   6  12
BRANCH   1  21
ATOM     21  CA  VAL A   1      33.756 -11.759 -25.620  0.00  0.00    +0.100 C 
BRANCH  21  22
ATOM     22  CB  VAL A   1      35.028 -10.916 -25.361  0.00  0.00    +0.020 C 
ATOM     23  CG1 VAL A   1      35.735 -10.554 -26.672  0.00  0.00    +0.002 C 
ATOM     24  CG2 VAL A   1      34.774  -9.648 -24.540  0.00  0.00    +0.002 C 
ENDBRANCH  21  22
BRANCH  21  25
ATOM     25  C   VAL A   1      33.731 -12.370 -27.024  0.00  0.00    +0.157 C 
BRANCH  25  26
ATOM     26  O   VAL A   1      33.245 -13.706 -26.944  0.00  0.00    -0.380 OA
ATOM     27  H   VAL A   1      33.892 -14.310 -27.339  0.00  0.00    +0.211 HD
ENDBRANCH  25  26
ENDBRANCH  21  25
ENDBRANCH   1  21
TORSDOF 6
ENDMDL
MODEL 6
REMARK VINA RESULT:      -8.3      8.623     12.542
REMARK  Name = 46937115
REMARK  6 active torsions:
REMARK  status: ('A' for Active; 'I' for Inactive)
REMARK    1  A    between atoms: N_1  and  CA_21
REMARK    2  A    between atoms: C_6  and  C_12
REMARK    3  A    between atoms: C_15  and  N_18
REMARK    4  A    between atoms: CA_21  and  CB_22
REMARK    5  A    between atoms: CA_21  and  C_25
REMARK    6  A    between atoms: C_25  and  O_26
REMARK                            x       y       z     vdW  Elec       q    Type
REMARK                         _______ _______ _______ _____ _____    ______ ____
ROOT
ATOM      1  N   VAL A   1      34.155 -16.617 -22.233  0.00  0.00    -0.316 N 
ATOM      2  N   UNK A   0      32.966 -13.325 -22.322  0.00  0.00    -0.170 N 
ATOM      3  N   UNK A   0      33.631 -14.438 -22.731  0.00  0.00    -0.158 NA
ATOM      4  N   UNK A   0      31.711 -11.956 -21.090  0.00  0.00    -0.226 NA
ATOM      5  C   UNK A   0      33.536 -15.469 -21.922  0.00  0.00    +0.147 C 
ATOM      6  C   UNK A   0      32.919 -12.133 -22.997  0.00  0.00    +0.095 C 
ATOM      7  C   UNK A   0      32.219 -13.169 -21.172  0.00  0.00    +0.155 C 
ATOM      8  C   UNK A   0      32.751 -15.419 -20.642  0.00  0.00    +0.039 C 
ATOM      9  C   UNK A   0      32.126 -14.284 -20.313  0.00  0.00    +0.039 C 
ATOM     10  C   UNK A   0      32.141 -11.308 -22.220  0.00  0.00    +0.117 C 
ATOM     11  H   VAL A   1      34.067 -17.381 -21.619  0.00  0.00    +0.148 HD
ENDROOT
BRANCH   6  12
ATOM     12  C   UNK A   0      33.578 -11.883 -24.256  0.00  0.00    +0.018 C 
ATOM     13  C   UNK A   0      33.358 -12.734 -25.340  0.00  0.00    +0.015 C 
ATOM     14  C   UNK A   0      34.435 -10.791 -24.389  0.00  0.00    +0.001 C 
ATOM     15  C   UNK A   0      33.995 -12.491 -26.557  0.00  0.00    +0.042 C 
ATOM     16  C   UNK A   0      35.072 -10.549 -25.606  0.00  0.00    +0.001 C 
ATOM     17  C   UNK A   0      34.852 -11.399 -26.691  0.00  0.00    +0.014 C 
BRANCH  15  18
ATOM     18  N   UNK A   0      33.773 -13.352 -27.653  0.00  0.00    -0.357 N 
ATOM     19  H   UNK A   0      34.519 -13.875 -28.027  0.00  0.00    +0.142 HD
ATOM     20  H   UNK A   0      32.873 -13.430 -28.043  0.00  0.00    +0.142 HD
ENDBRANCH  15  18
ENDBRANCH   6  12
BRANCH   1  21
ATOM     21  CA  VAL A   1      34.952 -16.780 -23.436  0.00  0.00    +0.100 C 
BRANCH  21  22
ATOM     22  CB  VAL A   1      35.728 -18.117 -23.401  0.00  0.00    +0.020 C 
ATOM     23  CG1 VAL A   1      36.242 -18.429 -21.991  0.00  0.00    +0.002 C 
ATOM     24  CG2 VAL A   1      34.931 -19.310 -23.939  0.00  0.00    +0.002 C 
ENDBRANCH  21  22
BRANCH  21  25
ATOM     25  C   VAL A   1      34.039 -16.660 -24.660  0.00  0.00    +0.157 C 
BRANCH  25  26
ATOM     26  O   VAL A   1      34.836 -16.427 -25.818  0.00  0.00    -0.380 OA
ATOM     27  H   VAL A   1      35.327 -17.233 -26.040  0.00  0.00    +0.211 HD
ENDBRANCH  25  26
ENDBRANCH  21  25
ENDBRANCH   1  21
TORSDOF 6
ENDMDL
MODEL 7
REMARK VINA RESULT:      -8.2      1.928      4.617
REMARK  Name = 46937115
REMARK  6 active torsions:
REMARK  status: ('A' for Active; 'I' for Inactive)
REMARK    1  A    between atoms: N_1  and  CA_21
REMARK    2  A    between atoms: C_6  and  C_12
REMARK    3  A    between atoms: C_15  and  N_18
REMARK    4  A    between atoms: CA_21  and  CB_22
REMARK    5  A    between atoms: CA_21  and  C_25
REMARK    6  A    between atoms: C_25  and  O_26
REMARK                            x       y       z     vdW  Elec       q    Type
REMARK                         _______ _______ _______ _____ _____    ______ ____
ROOT
ATOM      1  N   VAL A   1      33.691 -22.411 -18.285  0.00  0.00    -0.316 N 
ATOM      2  N   UNK A   0      33.396 -23.866 -15.114  0.00  0.00    -0.170 N 
ATOM      3  N   UNK A   0      34.003 -23.396 -16.235  0.00  0.00    -0.158 NA
ATOM      4  N   UNK A   0      31.801 -24.406 -13.653  0.00  0.00    -0.226 NA
ATOM      5  C   UNK A   0      33.192 -22.901 -17.141  0.00  0.00    +0.147 C 
ATOM      6  C   UNK A   0      34.033 -24.423 -14.037  0.00  0.00    +0.095 C 
ATOM      7  C   UNK A   0      32.044 -23.876 -14.835  0.00  0.00    +0.155 C 
ATOM      8  C   UNK A   0      31.701 -22.859 -16.951  0.00  0.00    +0.039 C 
ATOM      9  C   UNK A   0      31.183 -23.342 -15.817  0.00  0.00    +0.039 C 
ATOM     10  C   UNK A   0      33.032 -24.747 -13.153  0.00  0.00    +0.117 C 
ATOM     11  H   VAL A   1      33.067 -22.037 -18.950  0.00  0.00    +0.148 HD
ENDROOT
BRANCH   6  12
ATOM     12  C   UNK A   0      35.462 -24.597 -13.936  0.00  0.00    +0.018 C 
ATOM     13  C   UNK A   0      36.169 -23.978 -12.905  0.00  0.00    +0.015 C 
ATOM     14  C   UNK A   0      36.136 -25.383 -14.871  0.00  0.00    +0.001 C 
ATOM     15  C   UNK A   0      37.550 -24.147 -12.807  0.00  0.00    +0.042 C 
ATOM     16  C   UNK A   0      37.517 -25.552 -14.773  0.00  0.00    +0.001 C 
ATOM     17  C   UNK A   0      38.224 -24.934 -13.741  0.00  0.00    +0.014 C 
BRANCH  15  18
ATOM     18  N   UNK A   0      38.265 -23.521 -11.765  0.00  0.00    -0.357 N 
ATOM     19  H   UNK A   0      38.410 -23.995 -10.914  0.00  0.00    +0.142 HD
ATOM     20  H   UNK A   0      38.621 -22.612 -11.889  0.00  0.00    +0.142 HD
ENDBRANCH  15  18
ENDBRANCH   6  12
BRANCH   1  21
ATOM     21  CA  VAL A   1      35.111 -22.410 -18.587  0.00  0.00    +0.100 C 
BRANCH  21  22
ATOM     22  CB  VAL A   1      35.395 -21.609 -19.880  0.00  0.00    +0.020 C 
ATOM     23  CG1 VAL A   1      34.230 -20.675 -20.226  0.00  0.00    +0.002 C 
ATOM     24  CG2 VAL A   1      36.704 -20.815 -19.842  0.00  0.00    +0.002 C 
ENDBRANCH  21  22
BRANCH  21  25
ATOM     25  C   VAL A   1      35.878 -21.867 -17.377  0.00  0.00    +0.157 C 
BRANCH  25  26
ATOM     26  O   VAL A   1      36.871 -22.812 -16.990  0.00  0.00    -0.380 OA
ATOM     27  H   VAL A   1      36.964 -23.485 -17.681  0.00  0.00    +0.211 HD
ENDBRANCH  25  26
ENDBRANCH  21  25
ENDBRANCH   1  21
TORSDOF 6
ENDMDL
MODEL 8
REMARK VINA RESULT:      -7.9      1.150      1.511
REMARK  Name = 46937115
REMARK  6 active torsions:
REMARK  status: ('A' for Active; 'I' for Inactive)
REMARK    1  A    between atoms: N_1  and  CA_21
REMARK    2  A    between atoms: C_6  and  C_12
REMARK    3  A    between atoms: C_15  and  N_18
REMARK    4  A    between atoms: CA_21  and  CB_22
REMARK    5  A    between atoms: CA_21  and  C_25
REMARK    6  A    between atoms: C_25  and  O_26
REMARK                            x       y       z     vdW  Elec       q    Type
REMARK                         _______ _______ _______ _____ _____    ______ ____
ROOT
ATOM      1  N   VAL A   1      35.913 -22.100 -17.808  0.00  0.00    -0.316 N 
ATOM      2  N   UNK A   0      34.983 -23.390 -14.689  0.00  0.00    -0.170 N 
ATOM      3  N   UNK A   0      34.832 -22.895 -15.945  0.00  0.00    -0.158 NA
ATOM      4  N   UNK A   0      35.945 -24.097 -12.806  0.00  0.00    -0.226 NA
ATOM      5  C   UNK A   0      35.952 -22.596 -16.563  0.00  0.00    +0.147 C 
ATOM      6  C   UNK A   0      33.965 -23.772 -13.856  0.00  0.00    +0.095 C 
ATOM      7  C   UNK A   0      36.166 -23.606 -14.009  0.00  0.00    +0.155 C 
ATOM      8  C   UNK A   0      37.300 -22.786 -15.925  0.00  0.00    +0.039 C 
ATOM      9  C   UNK A   0      37.361 -23.280 -14.684  0.00  0.00    +0.039 C 
ATOM     10  C   UNK A   0      34.582 -24.203 -12.706  0.00  0.00    +0.117 C 
ATOM     11  H   VAL A   1      36.764 -21.888 -18.258  0.00  0.00    +0.148 HD
ENDROOT
BRANCH   6  12
ATOM     12  C   UNK A   0      32.565 -23.702 -14.196  0.00  0.00    +0.018 C 
ATOM     13  C   UNK A   0      31.940 -24.791 -14.805  0.00  0.00    +0.015 C 
ATOM     14  C   UNK A   0      31.836 -22.546 -13.916  0.00  0.00    +0.001 C 
ATOM     15  C   UNK A   0      30.585 -24.723 -15.133  0.00  0.00    +0.042 C 
ATOM     16  C   UNK A   0      30.482 -22.479 -14.243  0.00  0.00    +0.001 C 
ATOM     17  C   UNK A   0      29.856 -23.567 -14.852  0.00  0.00    +0.014 C 
BRANCH  15  18
ATOM     18  N   UNK A   0      29.953 -25.823 -15.750  0.00  0.00    -0.357 N 
ATOM     19  H   UNK A   0      30.478 -26.446 -16.302  0.00  0.00    +0.142 HD
ATOM     20  H   UNK A   0      28.987 -25.968 -15.626  0.00  0.00    +0.142 HD
ENDBRANCH  15  18
ENDBRANCH   6  12
BRANCH   1  21
ATOM     21  CA  VAL A   1      34.671 -21.861 -18.521  0.00  0.00    +0.100 C 
BRANCH  21  22
ATOM     22  CB  VAL A   1      34.951 -21.286 -19.929  0.00  0.00    +0.020 C 
ATOM     23  CG1 VAL A   1      33.829 -20.343 -20.381  0.00  0.00    +0.002 C 
ATOM     24  CG2 VAL A   1      36.304 -20.579 -20.053  0.00  0.00    +0.002 C 
ENDBRANCH  21  22
BRANCH  21  25
ATOM     25  C   VAL A   1      33.861 -23.160 -18.564  0.00  0.00    +0.157 C 
BRANCH  25  26
ATOM     26  O   VAL A   1      34.213 -23.892 -19.734  0.00  0.00    -0.380 OA
ATOM     27  H   VAL A   1      35.033 -23.534 -20.105  0.00  0.00    +0.211 HD
ENDBRANCH  25  26
ENDBRANCH  21  25
ENDBRANCH   1  21
TORSDOF 6
ENDMDL
MODEL 9
REMARK VINA RESULT:      -7.8     12.297     15.224
REMARK  Name = 46937115
REMARK  6 active torsions:
REMARK  status: ('A' for Active; 'I' for Inactive)
REMARK    1  A    between atoms: N_1  and  CA_21
REMARK    2  A    between atoms: C_6  and  C_12
REMARK    3  A    between atoms: C_15  and  N_18
REMARK    4  A    between atoms: CA_21  and  CB_22
REMARK    5  A    between atoms: CA_21  and  C_25
REMARK    6  A    between atoms: C_25  and  O_26
REMARK                            x       y       z     vdW  Elec       q    Type
REMARK                         _______ _______ _______ _____ _____    ______ ____
ROOT
ATOM      1  N   VAL A   1      32.635  -7.088 -22.520  0.00  0.00    -0.316 N 
ATOM      2  N   UNK A   0      32.184 -10.359 -21.355  0.00  0.00    -0.170 N 
ATOM      3  N   UNK A   0      32.496  -9.360 -22.222  0.00  0.00    -0.158 NA
ATOM      4  N   UNK A   0      31.536 -11.409 -19.498  0.00  0.00    -0.226 NA
ATOM      5  C   UNK A   0      32.354  -8.145 -21.744  0.00  0.00    +0.147 C 
ATOM      6  C   UNK A   0      32.256 -11.700 -21.625  0.00  0.00    +0.095 C 
ATOM      7  C   UNK A   0      31.744 -10.231 -20.052  0.00  0.00    +0.155 C 
ATOM      8  C   UNK A   0      31.881  -7.881 -20.343  0.00  0.00    +0.039 C 
ATOM      9  C   UNK A   0      31.596  -8.920 -19.552  0.00  0.00    +0.039 C 
ATOM     10  C   UNK A   0      31.853 -12.324 -20.469  0.00  0.00    +0.117 C 
ATOM     11  H   VAL A   1      32.530  -6.185 -22.143  0.00  0.00    +0.148 HD
ENDROOT
BRANCH   6  12
ATOM     12  C   UNK A   0      32.676 -12.255 -22.889  0.00  0.00    +0.018 C 
ATOM     13  C   UNK A   0      33.416 -11.477 -23.780  0.00  0.00    +0.015 C 
ATOM     14  C   UNK A   0      32.342 -13.568 -23.219  0.00  0.00    +0.001 C 
ATOM     15  C   UNK A   0      33.823 -12.014 -25.002  0.00  0.00    +0.042 C 
ATOM     16  C   UNK A   0      32.749 -14.105 -24.441  0.00  0.00    +0.001 C 
ATOM     17  C   UNK A   0      33.489 -13.328 -25.332  0.00  0.00    +0.014 C 
BRANCH  15  18
ATOM     18  N   UNK A   0      34.570 -11.229 -25.904  0.00  0.00    -0.357 N 
ATOM     19  H   UNK A   0      35.066 -11.659 -26.638  0.00  0.00    +0.142 HD
ATOM     20  H   UNK A   0      34.595 -10.250 -25.801  0.00  0.00    +0.142 HD
ENDBRANCH  15  18
ENDBRANCH   6  12
BRANCH   1  21
ATOM     21  CA  VAL A   1      33.087  -7.220 -23.894  0.00  0.00    +0.100 C 
BRANCH  21  22
ATOM     22  CB  VAL A   1      32.513  -6.081 -24.769  0.00  0.00    +0.020 C 
ATOM     23  CG1 VAL A   1      31.878  -4.981 -23.911  0.00  0.00    +0.002 C 
ATOM     24  CG2 VAL A   1      33.533  -5.465 -25.731  0.00  0.00    +0.002 C 
ENDBRANCH  21  22
BRANCH  21  25
ATOM     25  C   VAL A   1      34.618  -7.264 -23.915  0.00  0.00    +0.157 C 
BRANCH  25  26
ATOM     26  O   VAL A   1      35.046  -8.620 -23.998  0.00  0.00    -0.380 OA
ATOM     27  H   VAL A   1      35.214  -8.961 -23.106  0.00  0.00    +0.211 HD
ENDBRANCH  25  26
ENDBRANCH  21  25
ENDBRANCH   1  21
TORSDOF 6
ENDMDL
