MODEL 1
REMARK VINA RESULT:      -9.1      0.000      0.000
REMARK  Name = 158781
REMARK  10 active torsions:
REMARK  status: ('A' for Active; 'I' for Inactive)
REMARK    1  A    between atoms: C_1  and  C_2
REMARK    2  A    between atoms: C_1  and  N_20
REMARK    3  A    between atoms: C_5  and  C_8
REMARK    4  A    between atoms: C_9  and  C_18
REMARK    5  A    between atoms: C_22  and  C_25
REMARK    6  A    between atoms: C_23  and  C_34
REMARK    7  A    between atoms: C_24  and  C_31
REMARK    8  A    between atoms: C_25  and  O_28
REMARK    9  A    between atoms: C_31  and  O_32
REMARK   10  A    between atoms: C_34  and  C_35
REMARK                            x       y       z     vdW  Elec       q    Type
REMARK                         _______ _______ _______ _____ _____    ______ ____
ROOT
ATOM      1  C   UNL     1      34.569  -7.500 -23.117  0.00  0.00    +0.120 C 
ENDROOT
BRANCH   1   2
ATOM      2  C   UNL     1      34.032  -6.653 -24.222  0.00  0.00    -0.002 C 
ATOM      3  C   UNL     1      32.700  -6.238 -24.198  0.00  0.00    -0.003 C 
ATOM      4  C   UNL     1      34.860  -6.277 -25.278  0.00  0.00    -0.003 C 
ATOM      5  C   UNL     1      33.027  -5.072 -26.288  0.00  0.00    +0.001 C 
ATOM      6  C   UNL     1      32.198  -5.448 -25.231  0.00  0.00    -0.000 C 
ATOM      7  C   UNL     1      34.358  -5.486 -26.312  0.00  0.00    -0.000 C 
BRANCH   5   8
ATOM      8  C   UNL     1      32.506  -4.251 -27.360  0.00  0.00    +0.009 C 
ATOM      9  C   UNL     1      31.787  -3.080 -27.108  0.00  0.00    +0.065 C 
ATOM     10  C   UNL     1      32.736  -4.652 -28.678  0.00  0.00    +0.001 C 
ATOM     11  C   UNL     1      31.300  -2.315 -28.168  0.00  0.00    +0.010 C 
ATOM     12  C   UNL     1      32.249  -3.887 -29.739  0.00  0.00    +0.000 C 
ATOM     13  C   UNL     1      31.531  -2.719 -29.484  0.00  0.00    +0.001 C 
BRANCH   9  18
ATOM     14  N   UNL     1      32.404  -1.935 -25.044  0.00  0.00    -0.110 NA
ATOM     15  N   UNL     1      30.351  -2.887 -25.132  0.00  0.00    -0.087 NA
ATOM     16  N   UNL     1      31.685  -1.786 -23.923  0.00  0.00    -0.140 N 
ATOM     17  N   UNL     1      30.461  -2.333 -23.930  0.00  0.00    -0.022 NA
ATOM     18  C   UNL     1      31.526  -2.629 -25.765  0.00  0.00    +0.073 C 
ATOM     19  H   UNL     1      32.034  -1.301 -23.141  0.00  0.00    +0.197 HD
ENDBRANCH   9  18
ENDBRANCH   5   8
ENDBRANCH   1   2
BRANCH   1  20
ATOM     20  N   UNL     1      33.872  -8.787 -23.025  0.00  0.00    -0.270 N 
ATOM     21  N   UNL     1      33.321 -10.869 -23.475  0.00  0.00    -0.396 NA
ATOM     22  C   UNL     1      32.555 -10.386 -22.442  0.00  0.00    +0.141 C 
ATOM     23  C   UNL     1      34.109  -9.870 -23.803  0.00  0.00    +0.160 C 
ATOM     24  C   UNL     1      32.885  -9.084 -22.147  0.00  0.00    +0.225 C 
BRANCH  22  25
ATOM     25  C   UNL     1      31.540 -11.243 -21.809  0.00  0.00    +0.133 C 
ATOM     26  C   UNL     1      31.851 -12.766 -21.903  0.00  0.00    +0.036 C 
ATOM     27  C   UNL     1      31.311 -10.896 -20.311  0.00  0.00    +0.036 C 
BRANCH  25  28
ATOM     28  O   UNL     1      30.207 -11.116 -22.392  0.00  0.00    -0.380 OA
ATOM     29  H   UNL     1      29.570 -11.603 -21.848  0.00  0.00    +0.211 HD
ENDBRANCH  25  28
ENDBRANCH  22  25
BRANCH  24  31
ATOM     30  O   UNL     1      31.343  -7.478 -21.259  0.00  0.00    -0.248 OA
ATOM     31  C   UNL     1      32.343  -8.213 -21.154  0.00  0.00    +0.339 C 
BRANCH  31  32
ATOM     32  O   UNL     1      33.048  -8.237 -19.977  0.00  0.00    -0.479 OA
ATOM     33  H   UNL     1      33.635  -8.946 -19.797  0.00  0.00    +0.295 HD
ENDBRANCH  31  32
ENDBRANCH  24  31
BRANCH  23  34
ATOM     34  C   UNL     1      35.129  -9.884 -24.871  0.00  0.00    +0.075 C 
BRANCH  34  35
ATOM     35  C   UNL     1      34.900 -11.014 -25.894  0.00  0.00    +0.009 C 
ATOM     36  C   UNL     1      35.696 -10.812 -27.174  0.00  0.00    +0.000 C 
ENDBRANCH  34  35
ENDBRANCH  23  34
ENDBRANCH   1  20
TORSDOF 10
ENDMDL
MODEL 2
REMARK VINA RESULT:      -8.2      1.947      3.321
REMARK  Name = 158781
REMARK  10 active torsions:
REMARK  status: ('A' for Active; 'I' for Inactive)
REMARK    1  A    between atoms: C_1  and  C_2
REMARK    2  A    between atoms: C_1  and  N_20
REMARK    3  A    between atoms: C_5  and  C_8
REMARK    4  A    between atoms: C_9  and  C_18
REMARK    5  A    between atoms: C_22  and  C_25
REMARK    6  A    between atoms: C_23  and  C_34
REMARK    7  A    between atoms: C_24  and  C_31
REMARK    8  A    between atoms: C_25  and  O_28
REMARK    9  A    between atoms: C_31  and  O_32
REMARK   10  A    between atoms: C_34  and  C_35
REMARK                            x       y       z     vdW  Elec       q    Type
REMARK                         _______ _______ _______ _____ _____    ______ ____
ROOT
ATOM      1  C   UNL     1      34.372  -7.717 -23.157  0.00  0.00    +0.120 C 
ENDROOT
BRANCH   1   2
ATOM      2  C   UNL     1      33.883  -6.813 -24.239  0.00  0.00    -0.002 C 
ATOM      3  C   UNL     1      34.761  -6.372 -25.229  0.00  0.00    -0.003 C 
ATOM      4  C   UNL     1      32.549  -6.408 -24.259  0.00  0.00    -0.003 C 
ATOM      5  C   UNL     1      32.969  -5.121 -26.260  0.00  0.00    +0.001 C 
ATOM      6  C   UNL     1      34.304  -5.526 -26.239  0.00  0.00    -0.000 C 
ATOM      7  C   UNL     1      32.092  -5.562 -25.269  0.00  0.00    -0.000 C 
BRANCH   5   8
ATOM      8  C   UNL     1      32.495  -4.244 -27.308  0.00  0.00    +0.009 C 
ATOM      9  C   UNL     1      31.789  -3.072 -27.025  0.00  0.00    +0.065 C 
ATOM     10  C   UNL     1      32.757  -4.591 -28.636  0.00  0.00    +0.001 C 
ATOM     11  C   UNL     1      31.347  -2.252 -28.064  0.00  0.00    +0.010 C 
ATOM     12  C   UNL     1      32.316  -3.771 -29.674  0.00  0.00    +0.000 C 
ATOM     13  C   UNL     1      31.611  -2.601 -29.389  0.00  0.00    +0.001 C 
BRANCH   9  18
ATOM     14  N   UNL     1      32.359  -2.018 -24.900  0.00  0.00    -0.110 NA
ATOM     15  N   UNL     1      30.304  -2.954 -25.079  0.00  0.00    -0.087 NA
ATOM     16  N   UNL     1      31.612  -1.911 -23.792  0.00  0.00    -0.140 N 
ATOM     17  N   UNL     1      30.386  -2.452 -23.853  0.00  0.00    -0.022 NA
ATOM     18  C   UNL     1      31.496  -2.677 -25.672  0.00  0.00    +0.073 C 
ATOM     19  H   UNL     1      31.943  -1.462 -22.981  0.00  0.00    +0.197 HD
ENDBRANCH   9  18
ENDBRANCH   5   8
ENDBRANCH   1   2
BRANCH   1  20
ATOM     20  N   UNL     1      33.755  -9.045 -23.233  0.00  0.00    -0.270 N 
ATOM     21  N   UNL     1      32.361 -10.696 -22.819  0.00  0.00    -0.396 NA
ATOM     22  C   UNL     1      33.296 -11.084 -23.747  0.00  0.00    +0.141 C 
ATOM     23  C   UNL     1      32.671  -9.452 -22.530  0.00  0.00    +0.160 C 
ATOM     24  C   UNL     1      34.177 -10.063 -24.019  0.00  0.00    +0.225 C 
BRANCH  22  25
ATOM     25  C   UNL     1      33.263 -12.443 -24.310  0.00  0.00    +0.133 C 
ATOM     26  C   UNL     1      32.171 -13.359 -23.683  0.00  0.00    +0.036 C 
ATOM     27  C   UNL     1      33.061 -12.450 -25.852  0.00  0.00    +0.036 C 
BRANCH  25  28
ATOM     28  O   UNL     1      34.502 -13.193 -24.129  0.00  0.00    -0.380 OA
ATOM     29  H   UNL     1      35.258 -12.620 -24.327  0.00  0.00    +0.211 HD
ENDBRANCH  25  28
ENDBRANCH  22  25
BRANCH  24  31
ATOM     30  O   UNL     1      35.257  -9.982 -26.157  0.00  0.00    -0.248 OA
ATOM     31  C   UNL     1      35.290 -10.039 -24.914  0.00  0.00    +0.339 C 
BRANCH  31  32
ATOM     32  O   UNL     1      36.499 -10.086 -24.267  0.00  0.00    -0.479 OA
ATOM     33  H   UNL     1      36.582  -9.731 -23.403  0.00  0.00    +0.295 HD
ENDBRANCH  31  32
ENDBRANCH  24  31
BRANCH  23  34
ATOM     34  C   UNL     1      31.960  -8.581 -21.572  0.00  0.00    +0.075 C 
BRANCH  34  35
ATOM     35  C   UNL     1      32.407  -8.813 -20.116  0.00  0.00    +0.009 C 
ATOM     36  C   UNL     1      31.621  -9.923 -19.436  0.00  0.00    +0.000 C 
ENDBRANCH  34  35
ENDBRANCH  23  34
ENDBRANCH   1  20
TORSDOF 10
ENDMDL
MODEL 3
REMARK VINA RESULT:      -8.1      2.569      7.850
REMARK  Name = 158781
REMARK  10 active torsions:
REMARK  status: ('A' for Active; 'I' for Inactive)
REMARK    1  A    between atoms: C_1  and  C_2
REMARK    2  A    between atoms: C_1  and  N_20
REMARK    3  A    between atoms: C_5  and  C_8
REMARK    4  A    between atoms: C_9  and  C_18
REMARK    5  A    between atoms: C_22  and  C_25
REMARK    6  A    between atoms: C_23  and  C_34
REMARK    7  A    between atoms: C_24  and  C_31
REMARK    8  A    between atoms: C_25  and  O_28
REMARK    9  A    between atoms: C_31  and  O_32
REMARK   10  A    between atoms: C_34  and  C_35
REMARK                            x       y       z     vdW  Elec       q    Type
REMARK                         _______ _______ _______ _____ _____    ______ ____
ROOT
ATOM      1  C   UNL     1      34.712  -7.722 -23.216  0.00  0.00    +0.120 C 
ENDROOT
BRANCH   1   2
ATOM      2  C   UNL     1      34.390  -9.052 -23.810  0.00  0.00    -0.002 C 
ATOM      3  C   UNL     1      33.226  -9.721 -23.430  0.00  0.00    -0.003 C 
ATOM      4  C   UNL     1      35.251  -9.626 -24.743  0.00  0.00    -0.003 C 
ATOM      5  C   UNL     1      33.787 -11.540 -24.919  0.00  0.00    +0.001 C 
ATOM      6  C   UNL     1      32.925 -10.965 -23.985  0.00  0.00    -0.000 C 
ATOM      7  C   UNL     1      34.950 -10.870 -25.298  0.00  0.00    -0.000 C 
BRANCH   5   8
ATOM      8  C   UNL     1      33.475 -12.829 -25.495  0.00  0.00    +0.009 C 
ATOM      9  C   UNL     1      33.268 -13.960 -24.701  0.00  0.00    +0.065 C 
ATOM     10  C   UNL     1      33.381 -12.933 -26.885  0.00  0.00    +0.001 C 
ATOM     11  C   UNL     1      32.968 -15.187 -25.294  0.00  0.00    +0.010 C 
ATOM     12  C   UNL     1      33.081 -14.160 -27.478  0.00  0.00    +0.000 C 
ATOM     13  C   UNL     1      32.875 -15.287 -26.682  0.00  0.00    +0.001 C 
BRANCH   9  18
ATOM     14  N   UNL     1      34.487 -14.095 -22.593  0.00  0.00    -0.110 NA
ATOM     15  N   UNL     1      32.273 -13.635 -22.486  0.00  0.00    -0.087 NA
ATOM     16  N   UNL     1      34.023 -13.934 -21.345  0.00  0.00    -0.140 N 
ATOM     17  N   UNL     1      32.715 -13.660 -21.234  0.00  0.00    -0.022 NA
ATOM     18  C   UNL     1      33.355 -13.899 -23.265  0.00  0.00    +0.073 C 
ATOM     19  H   UNL     1      34.608 -14.012 -20.558  0.00  0.00    +0.197 HD
ENDBRANCH   9  18
ENDBRANCH   5   8
ENDBRANCH   1   2
BRANCH   1  20
ATOM     20  N   UNL     1      33.801  -6.675 -23.690  0.00  0.00    -0.270 N 
ATOM     21  N   UNL     1      32.919  -5.155 -25.014  0.00  0.00    -0.396 NA
ATOM     22  C   UNL     1      32.205  -5.239 -23.845  0.00  0.00    +0.141 C 
ATOM     23  C   UNL     1      33.881  -6.042 -24.885  0.00  0.00    +0.160 C 
ATOM     24  C   UNL     1      32.742  -6.185 -23.003  0.00  0.00    +0.225 C 
BRANCH  22  25
ATOM     25  C   UNL     1      31.033  -4.376 -23.628  0.00  0.00    +0.133 C 
ATOM     26  C   UNL     1      31.375  -2.991 -23.005  0.00  0.00    +0.036 C 
ATOM     27  C   UNL     1      30.224  -4.124 -24.932  0.00  0.00    +0.036 C 
BRANCH  25  28
ATOM     28  O   UNL     1      30.040  -4.939 -22.718  0.00  0.00    -0.380 OA
ATOM     29  H   UNL     1      30.209  -4.620 -21.819  0.00  0.00    +0.211 HD
ENDBRANCH  25  28
ENDBRANCH  22  25
BRANCH  24  31
ATOM     30  O   UNL     1      31.916  -7.716 -21.355  0.00  0.00    -0.248 OA
ATOM     31  C   UNL     1      32.315  -6.590 -21.702  0.00  0.00    +0.339 C 
BRANCH  31  32
ATOM     32  O   UNL     1      32.376  -5.577 -20.779  0.00  0.00    -0.479 OA
ATOM     33  H   UNL     1      33.189  -5.139 -20.616  0.00  0.00    +0.295 HD
ENDBRANCH  31  32
ENDBRANCH  24  31
BRANCH  23  34
ATOM     34  C   UNL     1      34.928  -6.338 -25.884  0.00  0.00    +0.075 C 
BRANCH  34  35
ATOM     35  C   UNL     1      34.935  -5.331 -27.051  0.00  0.00    +0.009 C 
ATOM     36  C   UNL     1      36.341  -4.906 -27.444  0.00  0.00    +0.000 C 
ENDBRANCH  34  35
ENDBRANCH  23  34
ENDBRANCH   1  20
TORSDOF 10
ENDMDL
MODEL 4
REMARK VINA RESULT:      -7.9      3.222      8.146
REMARK  Name = 158781
REMARK  10 active torsions:
REMARK  status: ('A' for Active; 'I' for Inactive)
REMARK    1  A    between atoms: C_1  and  C_2
REMARK    2  A    between atoms: C_1  and  N_20
REMARK    3  A    between atoms: C_5  and  C_8
REMARK    4  A    between atoms: C_9  and  C_18
REMARK    5  A    between atoms: C_22  and  C_25
REMARK    6  A    between atoms: C_23  and  C_34
REMARK    7  A    between atoms: C_24  and  C_31
REMARK    8  A    between atoms: C_25  and  O_28
REMARK    9  A    between atoms: C_31  and  O_32
REMARK   10  A    between atoms: C_34  and  C_35
REMARK                            x       y       z     vdW  Elec       q    Type
REMARK                         _______ _______ _______ _____ _____    ______ ____
ROOT
ATOM      1  C   UNL     1      34.842  -7.831 -23.175  0.00  0.00    +0.120 C 
ENDROOT
BRANCH   1   2
ATOM      2  C   UNL     1      34.477  -9.142 -23.787  0.00  0.00    -0.002 C 
ATOM      3  C   UNL     1      33.345  -9.827 -23.347  0.00  0.00    -0.003 C 
ATOM      4  C   UNL     1      35.268  -9.683 -24.799  0.00  0.00    -0.003 C 
ATOM      5  C   UNL     1      33.796 -11.594 -24.931  0.00  0.00    +0.001 C 
ATOM      6  C   UNL     1      33.004 -11.052 -23.918  0.00  0.00    -0.000 C 
ATOM      7  C   UNL     1      34.928 -10.909 -25.372  0.00  0.00    -0.000 C 
BRANCH   5   8
ATOM      8  C   UNL     1      33.443 -12.864 -25.525  0.00  0.00    +0.009 C 
ATOM      9  C   UNL     1      33.280 -14.018 -24.754  0.00  0.00    +0.065 C 
ATOM     10  C   UNL     1      33.261 -12.926 -26.909  0.00  0.00    +0.001 C 
ATOM     11  C   UNL     1      32.939 -15.226 -25.363  0.00  0.00    +0.010 C 
ATOM     12  C   UNL     1      32.920 -14.134 -27.518  0.00  0.00    +0.000 C 
ATOM     13  C   UNL     1      32.759 -15.284 -26.745  0.00  0.00    +0.001 C 
BRANCH   9  18
ATOM     14  N   UNL     1      34.637 -14.176 -22.733  0.00  0.00    -0.110 NA
ATOM     15  N   UNL     1      32.419 -13.804 -22.470  0.00  0.00    -0.087 NA
ATOM     16  N   UNL     1      34.249 -14.073 -21.453  0.00  0.00    -0.140 N 
ATOM     17  N   UNL     1      32.942 -13.853 -21.250  0.00  0.00    -0.022 NA
ATOM     18  C   UNL     1      33.458 -14.001 -23.325  0.00  0.00    +0.073 C 
ATOM     19  H   UNL     1      34.885 -14.155 -20.707  0.00  0.00    +0.197 HD
ENDBRANCH   9  18
ENDBRANCH   5   8
ENDBRANCH   1   2
BRANCH   1  20
ATOM     20  N   UNL     1      33.668  -6.976 -22.974  0.00  0.00    -0.270 N 
ATOM     21  N   UNL     1      31.943  -6.044 -21.975  0.00  0.00    -0.396 NA
ATOM     22  C   UNL     1      32.073  -5.557 -23.252  0.00  0.00    +0.141 C 
ATOM     23  C   UNL     1      32.929  -6.903 -21.841  0.00  0.00    +0.160 C 
ATOM     24  C   UNL     1      33.147  -6.129 -23.893  0.00  0.00    +0.225 C 
BRANCH  22  25
ATOM     25  C   UNL     1      31.125  -4.555 -23.763  0.00  0.00    +0.133 C 
ATOM     26  C   UNL     1      30.133  -4.019 -22.690  0.00  0.00    +0.036 C 
ATOM     27  C   UNL     1      31.834  -3.331 -24.408  0.00  0.00    +0.036 C 
BRANCH  25  28
ATOM     28  O   UNL     1      30.259  -5.045 -24.832  0.00  0.00    -0.380 OA
ATOM     29  H   UNL     1      29.721  -4.315 -25.172  0.00  0.00    +0.211 HD
ENDBRANCH  25  28
ENDBRANCH  22  25
BRANCH  24  31
ATOM     30  O   UNL     1      34.823  -5.900 -25.592  0.00  0.00    -0.248 OA
ATOM     31  C   UNL     1      33.636  -5.909 -25.217  0.00  0.00    +0.339 C 
BRANCH  31  32
ATOM     32  O   UNL     1      32.634  -5.691 -26.129  0.00  0.00    -0.479 OA
ATOM     33  H   UNL     1      32.248  -4.840 -26.206  0.00  0.00    +0.295 HD
ENDBRANCH  31  32
ENDBRANCH  24  31
BRANCH  23  34
ATOM     34  C   UNL     1      33.225  -7.703 -20.635  0.00  0.00    +0.075 C 
BRANCH  34  35
ATOM     35  C   UNL     1      31.951  -8.223 -19.941  0.00  0.00    +0.009 C 
ATOM     36  C   UNL     1      31.940  -9.738 -19.807  0.00  0.00    +0.000 C 
ENDBRANCH  34  35
ENDBRANCH  23  34
ENDBRANCH   1  20
TORSDOF 10
ENDMDL
MODEL 5
REMARK VINA RESULT:      -7.8      1.563      2.544
REMARK  Name = 158781
REMARK  10 active torsions:
REMARK  status: ('A' for Active; 'I' for Inactive)
REMARK    1  A    between atoms: C_1  and  C_2
REMARK    2  A    between atoms: C_1  and  N_20
REMARK    3  A    between atoms: C_5  and  C_8
REMARK    4  A    between atoms: C_9  and  C_18
REMARK    5  A    between atoms: C_22  and  C_25
REMARK    6  A    between atoms: C_23  and  C_34
REMARK    7  A    between atoms: C_24  and  C_31
REMARK    8  A    between atoms: C_25  and  O_28
REMARK    9  A    between atoms: C_31  and  O_32
REMARK   10  A    between atoms: C_34  and  C_35
REMARK                            x       y       z     vdW  Elec       q    Type
REMARK                         _______ _______ _______ _____ _____    ______ ____
ROOT
ATOM      1  C   UNL     1      32.407  -8.960 -22.035  0.00  0.00    +0.120 C 
ENDROOT
BRANCH   1   2
ATOM      2  C   UNL     1      32.420  -7.877 -23.061  0.00  0.00    -0.002 C 
ATOM      3  C   UNL     1      33.535  -7.048 -23.185  0.00  0.00    -0.003 C 
ATOM      4  C   UNL     1      31.319  -7.694 -23.896  0.00  0.00    -0.003 C 
ATOM      5  C   UNL     1      32.445  -5.851 -24.979  0.00  0.00    +0.001 C 
ATOM      6  C   UNL     1      33.547  -6.035 -24.144  0.00  0.00    -0.000 C 
ATOM      7  C   UNL     1      31.331  -6.680 -24.855  0.00  0.00    -0.000 C 
BRANCH   5   8
ATOM      8  C   UNL     1      32.458  -4.801 -25.973  0.00  0.00    +0.009 C 
ATOM      9  C   UNL     1      32.016  -3.507 -25.685  0.00  0.00    +0.065 C 
ATOM     10  C   UNL     1      32.928  -5.102 -27.254  0.00  0.00    +0.001 C 
ATOM     11  C   UNL     1      32.044  -2.521 -26.671  0.00  0.00    +0.010 C 
ATOM     12  C   UNL     1      32.956  -4.116 -28.241  0.00  0.00    +0.000 C 
ATOM     13  C   UNL     1      32.514  -2.825 -27.950  0.00  0.00    +0.001 C 
BRANCH   9  18
ATOM     14  N   UNL     1      32.067  -2.196 -23.628  0.00  0.00    -0.110 NA
ATOM     15  N   UNL     1      30.458  -3.780 -23.814  0.00  0.00    -0.087 NA
ATOM     16  N   UNL     1      31.258  -2.281 -22.562  0.00  0.00    -0.140 N 
ATOM     17  N   UNL     1      30.290  -3.206 -22.628  0.00  0.00    -0.022 NA
ATOM     18  C   UNL     1      31.524  -3.153 -24.379  0.00  0.00    +0.073 C 
ATOM     19  H   UNL     1      31.369  -1.699 -21.776  0.00  0.00    +0.197 HD
ENDBRANCH   9  18
ENDBRANCH   5   8
ENDBRANCH   1   2
BRANCH   1  20
ATOM     20  N   UNL     1      32.789 -10.257 -22.603  0.00  0.00    -0.270 N 
ATOM     21  N   UNL     1      33.756 -11.722 -23.930  0.00  0.00    -0.396 NA
ATOM     22  C   UNL     1      32.990 -12.365 -22.990  0.00  0.00    +0.141 C 
ATOM     23  C   UNL     1      33.610 -10.443 -23.665  0.00  0.00    +0.160 C 
ATOM     24  C   UNL     1      32.376 -11.465 -22.150  0.00  0.00    +0.225 C 
BRANCH  22  25
ATOM     25  C   UNL     1      32.910 -13.834 -22.978  0.00  0.00    +0.133 C 
ATOM     26  C   UNL     1      32.850 -14.475 -24.396  0.00  0.00    +0.036 C 
ATOM     27  C   UNL     1      34.088 -14.494 -22.207  0.00  0.00    +0.036 C 
BRANCH  25  28
ATOM     28  O   UNL     1      31.728 -14.360 -22.302  0.00  0.00    -0.380 OA
ATOM     29  H   UNL     1      30.944 -13.869 -22.591  0.00  0.00    +0.211 HD
ENDBRANCH  25  28
ENDBRANCH  22  25
BRANCH  24  31
ATOM     30  O   UNL     1      31.824 -11.927 -19.865  0.00  0.00    -0.248 OA
ATOM     31  C   UNL     1      31.503 -11.703 -21.046  0.00  0.00    +0.339 C 
BRANCH  31  32
ATOM     32  O   UNL     1      30.176 -11.666 -21.395  0.00  0.00    -0.479 OA
ATOM     33  H   UNL     1      29.922 -11.808 -22.286  0.00  0.00    +0.295 HD
ENDBRANCH  31  32
ENDBRANCH  24  31
BRANCH  23  34
ATOM     34  C   UNL     1      34.238  -9.326 -24.400  0.00  0.00    +0.075 C 
BRANCH  34  35
ATOM     35  C   UNL     1      35.632  -9.689 -24.949  0.00  0.00    +0.009 C 
ATOM     36  C   UNL     1      35.567 -10.314 -26.334  0.00  0.00    +0.000 C 
ENDBRANCH  34  35
ENDBRANCH  23  34
ENDBRANCH   1  20
TORSDOF 10
ENDMDL
MODEL 6
REMARK VINA RESULT:      -7.7      4.801     10.557
REMARK  Name = 158781
REMARK  10 active torsions:
REMARK  status: ('A' for Active; 'I' for Inactive)
REMARK    1  A    between atoms: C_1  and  C_2
REMARK    2  A    between atoms: C_1  and  N_20
REMARK    3  A    between atoms: C_5  and  C_8
REMARK    4  A    between atoms: C_9  and  C_18
REMARK    5  A    between atoms: C_22  and  C_25
REMARK    6  A    between atoms: C_23  and  C_34
REMARK    7  A    between atoms: C_24  and  C_31
REMARK    8  A    between atoms: C_25  and  O_28
REMARK    9  A    between atoms: C_31  and  O_32
REMARK   10  A    between atoms: C_34  and  C_35
REMARK                            x       y       z     vdW  Elec       q    Type
REMARK                         _______ _______ _______ _____ _____    ______ ____
ROOT
ATOM      1  C   UNL     1      31.557 -12.879 -20.796  0.00  0.00    +0.120 C 
ENDROOT
BRANCH   1   2
ATOM      2  C   UNL     1      32.483 -14.028 -21.010  0.00  0.00    -0.002 C 
ATOM      3  C   UNL     1      31.971 -15.314 -21.181  0.00  0.00    -0.003 C 
ATOM      4  C   UNL     1      33.861 -13.817 -21.039  0.00  0.00    -0.003 C 
ATOM      5  C   UNL     1      34.216 -16.178 -21.409  0.00  0.00    +0.001 C 
ATOM      6  C   UNL     1      32.837 -16.389 -21.380  0.00  0.00    -0.000 C 
ATOM      7  C   UNL     1      34.728 -14.892 -21.239  0.00  0.00    -0.000 C 
BRANCH   5   8
ATOM      8  C   UNL     1      35.114 -17.292 -21.616  0.00  0.00    +0.009 C 
ATOM      9  C   UNL     1      35.381 -17.797 -22.892  0.00  0.00    +0.065 C 
ATOM     10  C   UNL     1      35.727 -17.871 -20.501  0.00  0.00    +0.001 C 
ATOM     11  C   UNL     1      36.253 -18.874 -23.051  0.00  0.00    +0.010 C 
ATOM     12  C   UNL     1      36.599 -18.948 -20.661  0.00  0.00    +0.000 C 
ATOM     13  C   UNL     1      36.863 -19.449 -21.936  0.00  0.00    +0.001 C 
BRANCH   9  18
ATOM     14  N   UNL     1      34.892 -15.950 -24.409  0.00  0.00    -0.110 NA
ATOM     15  N   UNL     1      34.021 -17.976 -24.922  0.00  0.00    -0.087 NA
ATOM     16  N   UNL     1      34.161 -15.961 -25.533  0.00  0.00    -0.140 N 
ATOM     17  N   UNL     1      33.625 -17.141 -25.875  0.00  0.00    -0.022 NA
ATOM     18  C   UNL     1      34.772 -17.231 -24.068  0.00  0.00    +0.073 C 
ATOM     19  H   UNL     1      34.025 -15.151 -26.074  0.00  0.00    +0.197 HD
ENDBRANCH   9  18
ENDBRANCH   5   8
ENDBRANCH   1   2
BRANCH   1  20
ATOM     20  N   UNL     1      32.017 -11.669 -21.485  0.00  0.00    -0.270 N 
ATOM     21  N   UNL     1      32.801 -10.382 -23.088  0.00  0.00    -0.396 NA
ATOM     22  C   UNL     1      32.559  -9.640 -21.958  0.00  0.00    +0.141 C 
ATOM     23  C   UNL     1      32.460 -11.609 -22.764  0.00  0.00    +0.160 C 
ATOM     24  C   UNL     1      32.068 -10.429 -20.944  0.00  0.00    +0.225 C 
BRANCH  22  25
ATOM     25  C   UNL     1      32.829  -8.194 -21.949  0.00  0.00    +0.133 C 
ATOM     26  C   UNL     1      33.880  -7.741 -23.005  0.00  0.00    +0.036 C 
ATOM     27  C   UNL     1      31.545  -7.342 -22.160  0.00  0.00    +0.036 C 
BRANCH  25  28
ATOM     28  O   UNL     1      33.360  -7.696 -20.684  0.00  0.00    -0.380 OA
ATOM     29  H   UNL     1      32.674  -7.189 -20.223  0.00  0.00    +0.211 HD
ENDBRANCH  25  28
ENDBRANCH  22  25
BRANCH  24  31
ATOM     30  O   UNL     1      30.544 -10.091 -19.126  0.00  0.00    -0.248 OA
ATOM     31  C   UNL     1      31.687 -10.066 -19.616  0.00  0.00    +0.339 C 
BRANCH  31  32
ATOM     32  O   UNL     1      32.747  -9.656 -18.848  0.00  0.00    -0.479 OA
ATOM     33  H   UNL     1      33.521  -9.319 -19.258  0.00  0.00    +0.295 HD
ENDBRANCH  31  32
ENDBRANCH  24  31
BRANCH  23  34
ATOM     34  C   UNL     1      32.535 -12.792 -23.645  0.00  0.00    +0.075 C 
BRANCH  34  35
ATOM     35  C   UNL     1      33.753 -12.752 -24.588  0.00  0.00    +0.009 C 
ATOM     36  C   UNL     1      33.364 -12.468 -26.030  0.00  0.00    +0.000 C 
ENDBRANCH  34  35
ENDBRANCH  23  34
ENDBRANCH   1  20
TORSDOF 10
ENDMDL
MODEL 7
REMARK VINA RESULT:      -7.4     11.061     15.390
REMARK  Name = 158781
REMARK  10 active torsions:
REMARK  status: ('A' for Active; 'I' for Inactive)
REMARK    1  A    between atoms: C_1  and  C_2
REMARK    2  A    between atoms: C_1  and  N_20
REMARK    3  A    between atoms: C_5  and  C_8
REMARK    4  A    between atoms: C_9  and  C_18
REMARK    5  A    between atoms: C_22  and  C_25
REMARK    6  A    between atoms: C_23  and  C_34
REMARK    7  A    between atoms: C_24  and  C_31
REMARK    8  A    between atoms: C_25  and  O_28
REMARK    9  A    between atoms: C_31  and  O_32
REMARK   10  A    between atoms: C_34  and  C_35
REMARK                            x       y       z     vdW  Elec       q    Type
REMARK                         _______ _______ _______ _____ _____    ______ ____
ROOT
ATOM      1  C   UNL     1      33.742 -22.847 -19.167  0.00  0.00    +0.120 C 
ENDROOT
BRANCH   1   2
ATOM      2  C   UNL     1      33.914 -21.471 -19.715  0.00  0.00    -0.002 C 
ATOM      3  C   UNL     1      32.796 -20.678 -19.973  0.00  0.00    -0.003 C 
ATOM      4  C   UNL     1      35.193 -20.976 -19.969  0.00  0.00    -0.003 C 
ATOM      5  C   UNL     1      34.236 -18.896 -20.741  0.00  0.00    +0.001 C 
ATOM      6  C   UNL     1      32.957 -19.391 -20.486  0.00  0.00    -0.000 C 
ATOM      7  C   UNL     1      35.354 -19.689 -20.482  0.00  0.00    -0.000 C 
BRANCH   5   8
ATOM      8  C   UNL     1      34.403 -17.562 -21.273  0.00  0.00    +0.009 C 
ATOM      9  C   UNL     1      34.624 -17.333 -22.633  0.00  0.00    +0.065 C 
ATOM     10  C   UNL     1      34.338 -16.480 -20.390  0.00  0.00    +0.001 C 
ATOM     11  C   UNL     1      34.781 -16.030 -23.108  0.00  0.00    +0.010 C 
ATOM     12  C   UNL     1      34.495 -15.178 -20.865  0.00  0.00    +0.000 C 
ATOM     13  C   UNL     1      34.716 -14.952 -22.224  0.00  0.00    +0.001 C 
BRANCH   9  18
ATOM     14  N   UNL     1      35.592 -19.400 -23.494  0.00  0.00    -0.110 NA
ATOM     15  N   UNL     1      33.850 -18.512 -24.636  0.00  0.00    -0.087 NA
ATOM     16  N   UNL     1      35.233 -20.105 -24.576  0.00  0.00    -0.140 N 
ATOM     17  N   UNL     1      34.204 -19.616 -25.283  0.00  0.00    -0.022 NA
ATOM     18  C   UNL     1      34.698 -18.417 -23.578  0.00  0.00    +0.073 C 
ATOM     19  H   UNL     1      35.697 -20.933 -24.836  0.00  0.00    +0.197 HD
ENDBRANCH   9  18
ENDBRANCH   5   8
ENDBRANCH   1   2
BRANCH   1  20
ATOM     20  N   UNL     1      33.888 -22.878 -17.708  0.00  0.00    -0.270 N 
ATOM     21  N   UNL     1      34.840 -22.746 -15.729  0.00  0.00    -0.396 NA
ATOM     22  C   UNL     1      33.510 -23.058 -15.597  0.00  0.00    +0.141 C 
ATOM     23  C   UNL     1      35.035 -22.645 -17.025  0.00  0.00    +0.160 C 
ATOM     24  C   UNL     1      32.897 -23.145 -16.825  0.00  0.00    +0.225 C 
BRANCH  22  25
ATOM     25  C   UNL     1      32.923 -23.252 -14.262  0.00  0.00    +0.133 C 
ATOM     26  C   UNL     1      31.809 -22.224 -13.906  0.00  0.00    +0.036 C 
ATOM     27  C   UNL     1      32.334 -24.678 -14.066  0.00  0.00    +0.036 C 
BRANCH  25  28
ATOM     28  O   UNL     1      33.880 -23.130 -13.167  0.00  0.00    -0.380 OA
ATOM     29  H   UNL     1      34.782 -23.183 -13.518  0.00  0.00    +0.211 HD
ENDBRANCH  25  28
ENDBRANCH  22  25
BRANCH  24  31
ATOM     30  O   UNL     1      31.003 -24.565 -17.198  0.00  0.00    -0.248 OA
ATOM     31  C   UNL     1      31.536 -23.442 -17.141  0.00  0.00    +0.339 C 
BRANCH  31  32
ATOM     32  O   UNL     1      30.789 -22.321 -17.401  0.00  0.00    -0.479 OA
ATOM     33  H   UNL     1      31.151 -21.625 -17.914  0.00  0.00    +0.295 HD
ENDBRANCH  31  32
ENDBRANCH  24  31
BRANCH  23  34
ATOM     34  C   UNL     1      36.314 -22.322 -17.688  0.00  0.00    +0.075 C 
BRANCH  34  35
ATOM     35  C   UNL     1      37.384 -21.821 -16.698  0.00  0.00    +0.009 C 
ATOM     36  C   UNL     1      38.088 -22.959 -15.976  0.00  0.00    +0.000 C 
ENDBRANCH  34  35
ENDBRANCH  23  34
ENDBRANCH   1  20
TORSDOF 10
ENDMDL
MODEL 8
REMARK VINA RESULT:      -7.4      3.752      9.606
REMARK  Name = 158781
REMARK  10 active torsions:
REMARK  status: ('A' for Active; 'I' for Inactive)
REMARK    1  A    between atoms: C_1  and  C_2
REMARK    2  A    between atoms: C_1  and  N_20
REMARK    3  A    between atoms: C_5  and  C_8
REMARK    4  A    between atoms: C_9  and  C_18
REMARK    5  A    between atoms: C_22  and  C_25
REMARK    6  A    between atoms: C_23  and  C_34
REMARK    7  A    between atoms: C_24  and  C_31
REMARK    8  A    between atoms: C_25  and  O_28
REMARK    9  A    between atoms: C_31  and  O_32
REMARK   10  A    between atoms: C_34  and  C_35
REMARK                            x       y       z     vdW  Elec       q    Type
REMARK                         _______ _______ _______ _____ _____    ______ ____
ROOT
ATOM      1  C   UNL     1      32.963 -10.899 -24.701  0.00  0.00    +0.120 C 
ENDROOT
BRANCH   1   2
ATOM      2  C   UNL     1      33.302 -12.337 -24.494  0.00  0.00    -0.002 C 
ATOM      3  C   UNL     1      34.211 -12.703 -23.501  0.00  0.00    -0.003 C 
ATOM      4  C   UNL     1      32.711 -13.314 -25.293  0.00  0.00    -0.003 C 
ATOM      5  C   UNL     1      33.937 -15.026 -24.107  0.00  0.00    +0.001 C 
ATOM      6  C   UNL     1      34.528 -14.047 -23.308  0.00  0.00    -0.000 C 
ATOM      7  C   UNL     1      33.028 -14.659 -25.100  0.00  0.00    -0.000 C 
BRANCH   5   8
ATOM      8  C   UNL     1      34.266 -16.420 -23.907  0.00  0.00    +0.009 C 
ATOM      9  C   UNL     1      34.277 -16.999 -22.635  0.00  0.00    +0.065 C 
ATOM     10  C   UNL     1      34.578 -17.198 -25.025  0.00  0.00    +0.001 C 
ATOM     11  C   UNL     1      34.599 -18.348 -22.482  0.00  0.00    +0.010 C 
ATOM     12  C   UNL     1      34.901 -18.547 -24.871  0.00  0.00    +0.000 C 
ATOM     13  C   UNL     1      34.911 -19.122 -23.600  0.00  0.00    +0.001 C 
BRANCH   9  18
ATOM     14  N   UNL     1      34.884 -15.783 -20.610  0.00  0.00    -0.110 NA
ATOM     15  N   UNL     1      32.682 -15.919 -21.120  0.00  0.00    -0.087 NA
ATOM     16  N   UNL     1      34.080 -15.168 -19.730  0.00  0.00    -0.140 N 
ATOM     17  N   UNL     1      32.767 -15.223 -19.993  0.00  0.00    -0.022 NA
ATOM     18  C   UNL     1      33.961 -16.235 -21.456  0.00  0.00    +0.073 C 
ATOM     19  H   UNL     1      34.433 -14.703 -18.938  0.00  0.00    +0.197 HD
ENDBRANCH   9  18
ENDBRANCH   5   8
ENDBRANCH   1   2
BRANCH   1  20
ATOM     20  N   UNL     1      32.958 -10.151 -23.440  0.00  0.00    -0.270 N 
ATOM     21  N   UNL     1      33.467  -8.606 -21.957  0.00  0.00    -0.396 NA
ATOM     22  C   UNL     1      32.548  -9.482 -21.435  0.00  0.00    +0.141 C 
ATOM     23  C   UNL     1      33.693  -9.043 -23.176  0.00  0.00    +0.160 C 
ATOM     24  C   UNL     1      32.218 -10.457 -22.348  0.00  0.00    +0.225 C 
BRANCH  22  25
ATOM     25  C   UNL     1      32.051  -9.304 -20.062  0.00  0.00    +0.133 C 
ATOM     26  C   UNL     1      31.626  -7.844 -19.728  0.00  0.00    +0.036 C 
ATOM     27  C   UNL     1      30.851 -10.236 -19.732  0.00  0.00    +0.036 C 
BRANCH  25  28
ATOM     28  O   UNL     1      33.028  -9.634 -19.028  0.00  0.00    -0.380 OA
ATOM     29  H   UNL     1      33.197  -8.852 -18.482  0.00  0.00    +0.211 HD
ENDBRANCH  25  28
ENDBRANCH  22  25
BRANCH  24  31
ATOM     30  O   UNL     1      31.560 -12.692 -21.786  0.00  0.00    -0.248 OA
ATOM     31  C   UNL     1      31.310 -11.552 -22.219  0.00  0.00    +0.339 C 
BRANCH  31  32
ATOM     32  O   UNL     1      30.039 -11.246 -22.634  0.00  0.00    -0.479 OA
ATOM     33  H   UNL     1      29.367 -11.078 -22.001  0.00  0.00    +0.295 HD
ENDBRANCH  31  32
ENDBRANCH  24  31
BRANCH  23  34
ATOM     34  C   UNL     1      34.615  -8.438 -24.158  0.00  0.00    +0.075 C 
BRANCH  34  35
ATOM     35  C   UNL     1      34.572  -6.897 -24.140  0.00  0.00    +0.009 C 
ATOM     36  C   UNL     1      33.265  -6.345 -24.687  0.00  0.00    +0.000 C 
ENDBRANCH  34  35
ENDBRANCH  23  34
ENDBRANCH   1  20
TORSDOF 10
ENDMDL
MODEL 9
REMARK VINA RESULT:      -7.4     10.245     14.761
REMARK  Name = 158781
REMARK  10 active torsions:
REMARK  status: ('A' for Active; 'I' for Inactive)
REMARK    1  A    between atoms: C_1  and  C_2
REMARK    2  A    between atoms: C_1  and  N_20
REMARK    3  A    between atoms: C_5  and  C_8
REMARK    4  A    between atoms: C_9  and  C_18
REMARK    5  A    between atoms: C_22  and  C_25
REMARK    6  A    between atoms: C_23  and  C_34
REMARK    7  A    between atoms: C_24  and  C_31
REMARK    8  A    between atoms: C_25  and  O_28
REMARK    9  A    between atoms: C_31  and  O_32
REMARK   10  A    between atoms: C_34  and  C_35
REMARK                            x       y       z     vdW  Elec       q    Type
REMARK                         _______ _______ _______ _____ _____    ______ ____
ROOT
ATOM      1  C   UNL     1      33.907 -22.242 -19.769  0.00  0.00    +0.120 C 
ENDROOT
BRANCH   1   2
ATOM      2  C   UNL     1      33.987 -20.821 -20.215  0.00  0.00    -0.002 C 
ATOM      3  C   UNL     1      32.827 -20.051 -20.299  0.00  0.00    -0.003 C 
ATOM      4  C   UNL     1      35.220 -20.263 -20.549  0.00  0.00    -0.003 C 
ATOM      5  C   UNL     1      34.135 -18.164 -21.051  0.00  0.00    +0.001 C 
ATOM      6  C   UNL     1      32.901 -18.722 -20.717  0.00  0.00    -0.000 C 
ATOM      7  C   UNL     1      35.294 -18.934 -20.967  0.00  0.00    -0.000 C 
BRANCH   5   8
ATOM      8  C   UNL     1      34.212 -16.786 -21.484  0.00  0.00    +0.009 C 
ATOM      9  C   UNL     1      34.418 -16.444 -22.822  0.00  0.00    +0.065 C 
ATOM     10  C   UNL     1      34.074 -15.778 -20.525  0.00  0.00    +0.001 C 
ATOM     11  C   UNL     1      34.487 -15.103 -23.201  0.00  0.00    +0.010 C 
ATOM     12  C   UNL     1      34.143 -14.437 -20.904  0.00  0.00    +0.000 C 
ATOM     13  C   UNL     1      34.349 -14.099 -22.242  0.00  0.00    +0.001 C 
BRANCH   9  18
ATOM     14  N   UNL     1      35.391 -18.488 -23.731  0.00  0.00    -0.110 NA
ATOM     15  N   UNL     1      33.864 -17.406 -25.007  0.00  0.00    -0.087 NA
ATOM     16  N   UNL     1      35.147 -19.079 -24.910  0.00  0.00    -0.140 N 
ATOM     17  N   UNL     1      34.248 -18.472 -25.699  0.00  0.00    -0.022 NA
ATOM     18  C   UNL     1      34.565 -17.450 -23.843  0.00  0.00    +0.073 C 
ATOM     19  H   UNL     1      35.600 -19.910 -25.180  0.00  0.00    +0.197 HD
ENDBRANCH   9  18
ENDBRANCH   5   8
ENDBRANCH   1   2
BRANCH   1  20
ATOM     20  N   UNL     1      34.445 -22.423 -18.417  0.00  0.00    -0.270 N 
ATOM     21  N   UNL     1      34.519 -22.939 -16.280  0.00  0.00    -0.396 NA
ATOM     22  C   UNL     1      35.739 -22.470 -16.698  0.00  0.00    +0.141 C 
ATOM     23  C   UNL     1      33.758 -22.896 -17.351  0.00  0.00    +0.160 C 
ATOM     24  C   UNL     1      35.713 -22.141 -18.033  0.00  0.00    +0.225 C 
BRANCH  22  25
ATOM     25  C   UNL     1      36.860 -22.374 -15.750  0.00  0.00    +0.133 C 
ATOM     26  C   UNL     1      36.446 -22.558 -14.260  0.00  0.00    +0.036 C 
ATOM     27  C   UNL     1      37.995 -23.392 -16.056  0.00  0.00    +0.036 C 
BRANCH  25  28
ATOM     28  O   UNL     1      37.548 -21.087 -15.770  0.00  0.00    -0.380 OA
ATOM     29  H   UNL     1      38.265 -21.094 -15.118  0.00  0.00    +0.211 HD
ENDBRANCH  25  28
ENDBRANCH  22  25
BRANCH  24  31
ATOM     30  O   UNL     1      37.245 -22.151 -19.876  0.00  0.00    -0.248 OA
ATOM     31  C   UNL     1      36.755 -21.623 -18.861  0.00  0.00    +0.339 C 
BRANCH  31  32
ATOM     32  O   UNL     1      37.223 -20.406 -18.434  0.00  0.00    -0.479 OA
ATOM     33  H   UNL     1      37.263 -19.684 -19.031  0.00  0.00    +0.295 HD
ENDBRANCH  31  32
ENDBRANCH  24  31
BRANCH  23  34
ATOM     34  C   UNL     1      32.339 -23.300 -17.424  0.00  0.00    +0.075 C 
BRANCH  34  35
ATOM     35  C   UNL     1      31.631 -23.228 -16.057  0.00  0.00    +0.009 C 
ATOM     36  C   UNL     1      30.120 -23.121 -16.188  0.00  0.00    +0.000 C 
ENDBRANCH  34  35
ENDBRANCH  23  34
ENDBRANCH   1  20
TORSDOF 10
ENDMDL
