MODEL 1
REMARK VINA RESULT:     -13.0      0.000      0.000
REMARK  Name = 445756
REMARK  6 active torsions:
REMARK  status: ('A' for Active; 'I' for Inactive)
REMARK    1  A    between atoms: C_3  and  C_11
REMARK    2  A    between atoms: C_6  and  C_22
REMARK    3  A    between atoms: C_11  and  N_12
REMARK    4  A    between atoms: C_22  and  N_23
REMARK    5  A    between atoms: N_23  and  C_25
REMARK    6  A    between atoms: C_30  and  C_33
REMARK                            x       y       z     vdW  Elec       q    Type
REMARK                         _______ _______ _______ _____ _____    ______ ____
ROOT
ATOM      1  N   UNL     1      34.456 -15.523 -22.731  0.00  0.00    -0.261 N 
ATOM      2  N   UNL     1      33.826 -15.441 -20.601  0.00  0.00    -0.392 NA
ATOM      3  C   UNL     1      31.793 -12.551 -21.818  0.00  0.00    -0.017 C 
ATOM      4  C   UNL     1      33.579 -14.473 -22.649  0.00  0.00    +0.079 C 
ATOM      5  C   UNL     1      33.200 -14.443 -21.310  0.00  0.00    +0.128 C 
ATOM      6  C   UNL     1      34.572 -16.069 -21.483  0.00  0.00    +0.183 C 
ATOM      7  C   UNL     1      32.288 -13.465 -20.878  0.00  0.00    +0.084 C 
ATOM      8  C   UNL     1      32.191 -12.608 -23.155  0.00  0.00    -0.005 C 
ATOM      9  C   UNL     1      33.098 -13.574 -23.602  0.00  0.00    +0.017 C 
ATOM     10  C   UNL     1      35.136 -15.970 -23.926  0.00  0.00    +0.120 C 
ENDROOT
BRANCH   3  11
ATOM     11  C   UNL     1      30.821 -11.504 -21.381  0.00  0.00    +0.120 C 
BRANCH  11  12
ATOM     12  N   UNL     1      31.501 -10.279 -20.948  0.00  0.00    -0.260 N 
ATOM     13  N   UNL     1      32.398  -8.784 -19.600  0.00  0.00    -0.394 NA
ATOM     14  C   UNL     1      31.949  -9.297 -21.775  0.00  0.00    +0.079 C 
ATOM     15  C   UNL     1      31.782  -9.944 -19.666  0.00  0.00    +0.164 C 
ATOM     16  C   UNL     1      32.510  -8.365 -20.905  0.00  0.00    +0.128 C 
ATOM     17  C   UNL     1      31.922  -9.133 -23.160  0.00  0.00    +0.017 C 
ATOM     18  C   UNL     1      31.426 -10.802 -18.517  0.00  0.00    +0.084 C 
ATOM     19  C   UNL     1      33.083  -7.196 -21.433  0.00  0.00    +0.086 C 
ATOM     20  C   UNL     1      32.495  -7.962 -23.667  0.00  0.00    -0.003 C 
ATOM     21  C   UNL     1      33.066  -7.009 -22.820  0.00  0.00    -0.019 C 
ENDBRANCH  11  12
ENDBRANCH   3  11
BRANCH   6  22
ATOM     22  C   UNL     1      35.446 -17.228 -21.210  0.00  0.00    +0.164 C 
BRANCH  22  23
ATOM     23  N   UNL     1      34.966 -18.503 -21.732  0.00  0.00    -0.326 N 
ATOM     24  H   UNL     1      34.958 -18.636 -22.708  0.00  0.00    +0.147 HD
BRANCH  23  25
ATOM     25  C   UNL     1      34.523 -19.530 -20.926  0.00  0.00    +0.045 C 
ATOM     26  C   UNL     1      33.147 -19.713 -20.668  0.00  0.00    +0.014 C 
ATOM     27  C   UNL     1      35.429 -20.432 -20.330  0.00  0.00    +0.014 C 
ATOM     28  C   UNL     1      32.699 -20.750 -19.851  0.00  0.00    +0.004 C 
ATOM     29  C   UNL     1      34.980 -21.470 -19.514  0.00  0.00    +0.004 C 
ATOM     30  C   UNL     1      33.616 -21.629 -19.273  0.00  0.00    +0.031 C 
BRANCH  30  33
ATOM     31  N   UNL     1      32.004 -22.573 -17.638  0.00  0.00    -0.343 N 
ATOM     32  N   UNL     1      33.817 -23.849 -18.376  0.00  0.00    -0.285 NA
ATOM     33  C   UNL     1      33.148 -22.710 -18.421  0.00  0.00    +0.117 C 
ATOM     34  H   UNL     1      31.705 -23.318 -17.067  0.00  0.00    +0.144 HD
ATOM     35  H   UNL     1      31.493 -21.731 -17.655  0.00  0.00    +0.144 HD
ATOM     36  H   UNL     1      33.502 -24.583 -17.799  0.00  0.00    +0.188 HD
ENDBRANCH  30  33
ENDBRANCH  23  25
ENDBRANCH  22  23
ENDBRANCH   6  22
TORSDOF 6
ENDMDL
MODEL 2
REMARK VINA RESULT:     -11.8      1.739      2.756
REMARK  Name = 445756
REMARK  6 active torsions:
REMARK  status: ('A' for Active; 'I' for Inactive)
REMARK    1  A    between atoms: C_3  and  C_11
REMARK    2  A    between atoms: C_6  and  C_22
REMARK    3  A    between atoms: C_11  and  N_12
REMARK    4  A    between atoms: C_22  and  N_23
REMARK    5  A    between atoms: N_23  and  C_25
REMARK    6  A    between atoms: C_30  and  C_33
REMARK                            x       y       z     vdW  Elec       q    Type
REMARK                         _______ _______ _______ _____ _____    ______ ____
ROOT
ATOM      1  N   UNL     1      33.926 -15.948 -21.665  0.00  0.00    -0.261 N 
ATOM      2  N   UNL     1      35.198 -15.688 -23.469  0.00  0.00    -0.392 NA
ATOM      3  C   UNL     1      33.121 -12.610 -23.895  0.00  0.00    -0.017 C 
ATOM      4  C   UNL     1      33.494 -14.788 -22.254  0.00  0.00    +0.079 C 
ATOM      5  C   UNL     1      34.304 -14.648 -23.378  0.00  0.00    +0.128 C 
ATOM      6  C   UNL     1      34.944 -16.449 -22.428  0.00  0.00    +0.183 C 
ATOM      7  C   UNL     1      34.120 -13.538 -24.220  0.00  0.00    +0.084 C 
ATOM      8  C   UNL     1      32.325 -12.779 -22.760  0.00  0.00    -0.005 C 
ATOM      9  C   UNL     1      32.495 -13.876 -21.910  0.00  0.00    +0.017 C 
ATOM     10  C   UNL     1      33.398 -16.534 -20.454  0.00  0.00    +0.120 C 
ENDROOT
BRANCH   3  11
ATOM     11  C   UNL     1      32.909 -11.423 -24.776  0.00  0.00    +0.120 C 
BRANCH  11  12
ATOM     12  N   UNL     1      33.571 -10.227 -24.246  0.00  0.00    -0.260 N 
ATOM     13  N   UNL     1      35.101  -8.664 -23.980  0.00  0.00    -0.394 NA
ATOM     14  C   UNL     1      33.069  -9.418 -23.276  0.00  0.00    +0.079 C 
ATOM     15  C   UNL     1      34.777  -9.753 -24.641  0.00  0.00    +0.164 C 
ATOM     16  C   UNL     1      34.048  -8.440 -23.124  0.00  0.00    +0.128 C 
ATOM     17  C   UNL     1      31.887  -9.441 -22.534  0.00  0.00    +0.017 C 
ATOM     18  C   UNL     1      35.590 -10.406 -25.687  0.00  0.00    +0.084 C 
ATOM     19  C   UNL     1      33.853  -7.416 -22.181  0.00  0.00    +0.086 C 
ATOM     20  C   UNL     1      31.710  -8.415 -21.600  0.00  0.00    -0.003 C 
ATOM     21  C   UNL     1      32.674  -7.419 -21.425  0.00  0.00    -0.019 C 
ENDBRANCH  11  12
ENDBRANCH   3  11
BRANCH   6  22
ATOM     22  C   UNL     1      35.645 -17.702 -22.079  0.00  0.00    +0.164 C 
BRANCH  22  23
ATOM     23  N   UNL     1      34.877 -18.923 -22.297  0.00  0.00    -0.326 N 
ATOM     24  H   UNL     1      34.560 -19.119 -23.209  0.00  0.00    +0.147 HD
BRANCH  23  25
ATOM     25  C   UNL     1      34.573 -19.814 -21.291  0.00  0.00    +0.045 C 
ATOM     26  C   UNL     1      33.238 -20.027 -20.883  0.00  0.00    +0.014 C 
ATOM     27  C   UNL     1      35.585 -20.543 -20.631  0.00  0.00    +0.014 C 
ATOM     28  C   UNL     1      32.930 -20.927 -19.864  0.00  0.00    +0.004 C 
ATOM     29  C   UNL     1      35.277 -21.443 -19.611  0.00  0.00    +0.004 C 
ATOM     30  C   UNL     1      33.950 -21.634 -19.227  0.00  0.00    +0.031 C 
BRANCH  30  33
ATOM     31  N   UNL     1      32.309 -22.846 -17.811  0.00  0.00    -0.343 N 
ATOM     32  N   UNL     1      34.602 -23.180 -17.506  0.00  0.00    -0.285 NA
ATOM     33  C   UNL     1      33.629 -22.572 -18.163  0.00  0.00    +0.117 C 
ATOM     34  H   UNL     1      32.115 -23.484 -17.087  0.00  0.00    +0.144 HD
ATOM     35  H   UNL     1      31.571 -22.401 -18.286  0.00  0.00    +0.144 HD
ATOM     36  H   UNL     1      34.386 -23.816 -16.785  0.00  0.00    +0.188 HD
ENDBRANCH  30  33
ENDBRANCH  23  25
ENDBRANCH  22  23
ENDBRANCH   6  22
TORSDOF 6
ENDMDL
MODEL 3
REMARK VINA RESULT:     -11.7      4.080      8.218
REMARK  Name = 445756
REMARK  6 active torsions:
REMARK  status: ('A' for Active; 'I' for Inactive)
REMARK    1  A    between atoms: C_3  and  C_11
REMARK    2  A    between atoms: C_6  and  C_22
REMARK    3  A    between atoms: C_11  and  N_12
REMARK    4  A    between atoms: C_22  and  N_23
REMARK    5  A    between atoms: N_23  and  C_25
REMARK    6  A    between atoms: C_30  and  C_33
REMARK                            x       y       z     vdW  Elec       q    Type
REMARK                         _______ _______ _______ _____ _____    ______ ____
ROOT
ATOM      1  N   UNL     1      32.971 -22.102 -18.311  0.00  0.00    -0.261 N 
ATOM      2  N   UNL     1      35.171 -22.419 -18.323  0.00  0.00    -0.392 NA
ATOM      3  C   UNL     1      35.034 -19.889 -21.070  0.00  0.00    -0.017 C 
ATOM      4  C   UNL     1      33.455 -21.277 -19.294  0.00  0.00    +0.079 C 
ATOM      5  C   UNL     1      34.831 -21.493 -19.281  0.00  0.00    +0.128 C 
ATOM      6  C   UNL     1      34.034 -22.764 -17.761  0.00  0.00    +0.183 C 
ATOM      7  C   UNL     1      35.643 -20.788 -20.185  0.00  0.00    +0.084 C 
ATOM      8  C   UNL     1      33.651 -19.693 -21.058  0.00  0.00    -0.005 C 
ATOM      9  C   UNL     1      32.827 -20.386 -20.165  0.00  0.00    +0.017 C 
ATOM     10  C   UNL     1      31.585 -22.244 -17.928  0.00  0.00    +0.120 C 
ENDROOT
BRANCH   3  11
ATOM     11  C   UNL     1      35.879 -19.128 -22.039  0.00  0.00    +0.120 C 
BRANCH  11  12
ATOM     12  N   UNL     1      35.124 -18.055 -22.693  0.00  0.00    -0.260 N 
ATOM     13  N   UNL     1      34.027 -16.968 -24.265  0.00  0.00    -0.394 NA
ATOM     14  C   UNL     1      34.769 -16.879 -22.112  0.00  0.00    +0.079 C 
ATOM     15  C   UNL     1      34.669 -18.076 -23.969  0.00  0.00    +0.164 C 
ATOM     16  C   UNL     1      34.079 -16.209 -23.119  0.00  0.00    +0.128 C 
ATOM     17  C   UNL     1      34.976 -16.345 -20.839  0.00  0.00    +0.017 C 
ATOM     18  C   UNL     1      34.888 -19.220 -24.879  0.00  0.00    +0.084 C 
ATOM     19  C   UNL     1      33.557 -14.931 -22.857  0.00  0.00    +0.086 C 
ATOM     20  C   UNL     1      34.450 -15.072 -20.597  0.00  0.00    -0.003 C 
ATOM     21  C   UNL     1      33.753 -14.375 -21.587  0.00  0.00    -0.019 C 
ENDBRANCH  11  12
ENDBRANCH   3  11
BRANCH   6  22
ATOM     22  C   UNL     1      33.869 -23.741 -16.666  0.00  0.00    +0.164 C 
BRANCH  22  23
ATOM     23  N   UNL     1      34.702 -23.504 -15.492  0.00  0.00    -0.326 N 
ATOM     24  H   UNL     1      34.359 -22.907 -14.788  0.00  0.00    +0.147 HD
BRANCH  23  25
ATOM     25  C   UNL     1      35.945 -24.073 -15.321  0.00  0.00    +0.045 C 
ATOM     26  C   UNL     1      37.123 -23.306 -15.449  0.00  0.00    +0.014 C 
ATOM     27  C   UNL     1      36.085 -25.443 -15.014  0.00  0.00    +0.014 C 
ATOM     28  C   UNL     1      38.381 -23.882 -15.277  0.00  0.00    +0.004 C 
ATOM     29  C   UNL     1      37.343 -26.019 -14.843  0.00  0.00    +0.004 C 
ATOM     30  C   UNL     1      38.491 -25.239 -14.975  0.00  0.00    +0.031 C 
BRANCH  30  33
ATOM     31  N   UNL     1      40.250 -26.249 -13.542  0.00  0.00    -0.343 N 
ATOM     32  N   UNL     1      40.598 -26.005 -15.840  0.00  0.00    -0.285 NA
ATOM     33  C   UNL     1      39.803 -25.841 -14.797  0.00  0.00    +0.117 C 
ATOM     34  H   UNL     1      41.142 -26.654 -13.445  0.00  0.00    +0.144 HD
ATOM     35  H   UNL     1      39.673 -26.132 -12.753  0.00  0.00    +0.144 HD
ATOM     36  H   UNL     1      41.487 -26.412 -15.722  0.00  0.00    +0.188 HD
ENDBRANCH  30  33
ENDBRANCH  23  25
ENDBRANCH  22  23
ENDBRANCH   6  22
TORSDOF 6
ENDMDL
MODEL 4
REMARK VINA RESULT:     -11.6      1.099      1.861
REMARK  Name = 445756
REMARK  6 active torsions:
REMARK  status: ('A' for Active; 'I' for Inactive)
REMARK    1  A    between atoms: C_3  and  C_11
REMARK    2  A    between atoms: C_6  and  C_22
REMARK    3  A    between atoms: C_11  and  N_12
REMARK    4  A    between atoms: C_22  and  N_23
REMARK    5  A    between atoms: N_23  and  C_25
REMARK    6  A    between atoms: C_30  and  C_33
REMARK                            x       y       z     vdW  Elec       q    Type
REMARK                         _______ _______ _______ _____ _____    ______ ____
ROOT
ATOM      1  N   UNL     1      34.354 -15.953 -21.500  0.00  0.00    -0.261 N 
ATOM      2  N   UNL     1      33.877 -15.346 -23.584  0.00  0.00    -0.392 NA
ATOM      3  C   UNL     1      31.978 -12.637 -21.846  0.00  0.00    -0.017 C 
ATOM      4  C   UNL     1      33.561 -14.841 -21.385  0.00  0.00    +0.079 C 
ATOM      5  C   UNL     1      33.277 -14.481 -22.700  0.00  0.00    +0.128 C 
ATOM      6  C   UNL     1      34.514 -16.216 -22.832  0.00  0.00    +0.183 C 
ATOM      7  C   UNL     1      32.470 -13.357 -22.943  0.00  0.00    +0.084 C 
ATOM      8  C   UNL     1      32.281 -13.023 -20.539  0.00  0.00    -0.005 C 
ATOM      9  C   UNL     1      33.083 -14.138 -20.278  0.00  0.00    +0.017 C 
ATOM     10  C   UNL     1      34.918 -16.711 -20.406  0.00  0.00    +0.120 C 
ENDROOT
BRANCH   3  11
ATOM     11  C   UNL     1      31.118 -11.438 -22.082  0.00  0.00    +0.120 C 
BRANCH  11  12
ATOM     12  N   UNL     1      31.785 -10.201 -21.663  0.00  0.00    -0.260 N 
ATOM     13  N   UNL     1      32.393  -8.522 -20.373  0.00  0.00    -0.394 NA
ATOM     14  C   UNL     1      32.611  -9.453 -22.442  0.00  0.00    +0.079 C 
ATOM     15  C   UNL     1      31.676  -9.621 -20.443  0.00  0.00    +0.164 C 
ATOM     16  C   UNL     1      32.983  -8.400 -21.610  0.00  0.00    +0.128 C 
ATOM     17  C   UNL     1      33.060  -9.587 -23.756  0.00  0.00    +0.017 C 
ATOM     18  C   UNL     1      30.849 -10.186 -19.358  0.00  0.00    +0.084 C 
ATOM     19  C   UNL     1      33.854  -7.414 -22.103  0.00  0.00    +0.086 C 
ATOM     20  C   UNL     1      33.926  -8.596 -24.229  0.00  0.00    -0.003 C 
ATOM     21  C   UNL     1      34.318  -7.528 -23.419  0.00  0.00    -0.019 C 
ENDBRANCH  11  12
ENDBRANCH   3  11
BRANCH   6  22
ATOM     22  C   UNL     1      35.317 -17.357 -23.317  0.00  0.00    +0.164 C 
BRANCH  22  23
ATOM     23  N   UNL     1      34.625 -18.641 -23.335  0.00  0.00    -0.326 N 
ATOM     24  H   UNL     1      34.220 -18.942 -24.181  0.00  0.00    +0.147 HD
BRANCH  23  25
ATOM     25  C   UNL     1      34.506 -19.450 -22.226  0.00  0.00    +0.045 C 
ATOM     26  C   UNL     1      35.640 -20.046 -21.633  0.00  0.00    +0.014 C 
ATOM     27  C   UNL     1      33.247 -19.715 -21.647  0.00  0.00    +0.014 C 
ATOM     28  C   UNL     1      35.520 -20.868 -20.513  0.00  0.00    +0.004 C 
ATOM     29  C   UNL     1      33.127 -20.536 -20.526  0.00  0.00    +0.004 C 
ATOM     30  C   UNL     1      34.263 -21.113 -19.960  0.00  0.00    +0.031 C 
BRANCH  30  33
ATOM     31  N   UNL     1      32.896 -22.432 -18.361  0.00  0.00    -0.343 N 
ATOM     32  N   UNL     1      35.217 -22.323 -18.115  0.00  0.00    -0.285 NA
ATOM     33  C   UNL     1      34.138 -21.971 -18.792  0.00  0.00    +0.117 C 
ATOM     34  H   UNL     1      32.834 -23.012 -17.568  0.00  0.00    +0.144 HD
ATOM     35  H   UNL     1      32.080 -22.179 -18.851  0.00  0.00    +0.144 HD
ATOM     36  H   UNL     1      35.134 -22.904 -17.324  0.00  0.00    +0.188 HD
ENDBRANCH  30  33
ENDBRANCH  23  25
ENDBRANCH  22  23
ENDBRANCH   6  22
TORSDOF 6
ENDMDL
MODEL 5
REMARK VINA RESULT:     -11.4      3.615      7.330
REMARK  Name = 445756
REMARK  6 active torsions:
REMARK  status: ('A' for Active; 'I' for Inactive)
REMARK    1  A    between atoms: C_3  and  C_11
REMARK    2  A    between atoms: C_6  and  C_22
REMARK    3  A    between atoms: C_11  and  N_12
REMARK    4  A    between atoms: C_22  and  N_23
REMARK    5  A    between atoms: N_23  and  C_25
REMARK    6  A    between atoms: C_30  and  C_33
REMARK                            x       y       z     vdW  Elec       q    Type
REMARK                         _______ _______ _______ _____ _____    ______ ____
ROOT
ATOM      1  N   UNL     1      34.355 -21.536 -19.298  0.00  0.00    -0.261 N 
ATOM      2  N   UNL     1      36.490 -20.930 -19.191  0.00  0.00    -0.392 NA
ATOM      3  C   UNL     1      35.441 -18.535 -21.863  0.00  0.00    -0.017 C 
ATOM      4  C   UNL     1      34.498 -20.536 -20.225  0.00  0.00    +0.079 C 
ATOM      5  C   UNL     1      35.840 -20.174 -20.138  0.00  0.00    +0.128 C 
ATOM      6  C   UNL     1      35.572 -21.736 -18.708  0.00  0.00    +0.183 C 
ATOM      7  C   UNL     1      36.329 -19.153 -20.971  0.00  0.00    +0.084 C 
ATOM      8  C   UNL     1      34.101 -18.920 -21.925  0.00  0.00    -0.005 C 
ATOM      9  C   UNL     1      33.596 -19.933 -21.104  0.00  0.00    +0.017 C 
ATOM     10  C   UNL     1      33.133 -22.250 -19.001  0.00  0.00    +0.120 C 
ENDROOT
BRANCH   3  11
ATOM     11  C   UNL     1      35.939 -17.447 -22.756  0.00  0.00    +0.120 C 
BRANCH  11  12
ATOM     12  N   UNL     1      34.878 -16.494 -23.096  0.00  0.00    -0.260 N 
ATOM     13  N   UNL     1      33.422 -15.379 -24.318  0.00  0.00    -0.394 NA
ATOM     14  C   UNL     1      34.258 -15.664 -22.216  0.00  0.00    +0.079 C 
ATOM     15  C   UNL     1      34.360 -16.299 -24.333  0.00  0.00    +0.164 C 
ATOM     16  C   UNL     1      33.344 -14.971 -23.006  0.00  0.00    +0.128 C 
ATOM     17  C   UNL     1      34.398 -15.455 -20.844  0.00  0.00    +0.017 C 
ATOM     18  C   UNL     1      34.818 -17.049 -25.520  0.00  0.00    +0.084 C 
ATOM     19  C   UNL     1      32.514 -14.008 -22.407  0.00  0.00    +0.086 C 
ATOM     20  C   UNL     1      33.564 -14.492 -20.265  0.00  0.00    -0.003 C 
ATOM     21  C   UNL     1      32.638 -13.781 -21.031  0.00  0.00    -0.019 C 
ENDBRANCH  11  12
ENDBRANCH   3  11
BRANCH   6  22
ATOM     22  C   UNL     1      35.777 -22.751 -17.655  0.00  0.00    +0.164 C 
BRANCH  22  23
ATOM     23  N   UNL     1      34.765 -22.769 -16.605  0.00  0.00    -0.326 N 
ATOM     24  H   UNL     1      33.840 -22.527 -16.842  0.00  0.00    +0.147 HD
BRANCH  23  25
ATOM     25  C   UNL     1      35.040 -23.107 -15.297  0.00  0.00    +0.045 C 
ATOM     26  C   UNL     1      36.334 -22.944 -14.757  0.00  0.00    +0.014 C 
ATOM     27  C   UNL     1      34.037 -23.629 -14.453  0.00  0.00    +0.014 C 
ATOM     28  C   UNL     1      36.611 -23.288 -13.435  0.00  0.00    +0.004 C 
ATOM     29  C   UNL     1      34.315 -23.973 -13.130  0.00  0.00    +0.004 C 
ATOM     30  C   UNL     1      35.602 -23.803 -12.622  0.00  0.00    +0.031 C 
BRANCH  30  33
ATOM     31  N   UNL     1      36.825 -23.453 -10.489  0.00  0.00    -0.343 N 
ATOM     32  N   UNL     1      35.267 -25.184 -10.683  0.00  0.00    -0.285 NA
ATOM     33  C   UNL     1      35.892 -24.163 -11.242  0.00  0.00    +0.117 C 
ATOM     34  H   UNL     1      37.006 -23.714  -9.557  0.00  0.00    +0.144 HD
ATOM     35  H   UNL     1      37.304 -22.691 -10.889  0.00  0.00    +0.144 HD
ATOM     36  H   UNL     1      35.462 -25.429  -9.749  0.00  0.00    +0.188 HD
ENDBRANCH  30  33
ENDBRANCH  23  25
ENDBRANCH  22  23
ENDBRANCH   6  22
TORSDOF 6
ENDMDL
MODEL 6
REMARK VINA RESULT:     -11.3      1.626      2.029
REMARK  Name = 445756
REMARK  6 active torsions:
REMARK  status: ('A' for Active; 'I' for Inactive)
REMARK    1  A    between atoms: C_3  and  C_11
REMARK    2  A    between atoms: C_6  and  C_22
REMARK    3  A    between atoms: C_11  and  N_12
REMARK    4  A    between atoms: C_22  and  N_23
REMARK    5  A    between atoms: N_23  and  C_25
REMARK    6  A    between atoms: C_30  and  C_33
REMARK                            x       y       z     vdW  Elec       q    Type
REMARK                         _______ _______ _______ _____ _____    ______ ____
ROOT
ATOM      1  N   UNL     1      34.721 -16.706 -23.277  0.00  0.00    -0.261 N 
ATOM      2  N   UNL     1      34.528 -15.925 -21.205  0.00  0.00    -0.392 NA
ATOM      3  C   UNL     1      32.462 -13.313 -22.902  0.00  0.00    -0.017 C 
ATOM      4  C   UNL     1      33.938 -15.586 -23.380  0.00  0.00    +0.079 C 
ATOM      5  C   UNL     1      33.832 -15.116 -22.073  0.00  0.00    +0.128 C 
ATOM      6  C   UNL     1      35.049 -16.867 -21.959  0.00  0.00    +0.183 C 
ATOM      7  C   UNL     1      33.079 -13.957 -21.821  0.00  0.00    +0.084 C 
ATOM      8  C   UNL     1      32.586 -13.808 -24.201  0.00  0.00    -0.005 C 
ATOM      9  C   UNL     1      33.331 -14.962 -24.471  0.00  0.00    +0.017 C 
ATOM     10  C   UNL     1      35.127 -17.563 -24.369  0.00  0.00    +0.120 C 
ENDROOT
BRANCH   3  11
ATOM     11  C   UNL     1      31.656 -12.079 -22.657  0.00  0.00    +0.120 C 
BRANCH  11  12
ATOM     12  N   UNL     1      32.468 -10.865 -22.787  0.00  0.00    -0.260 N 
ATOM     13  N   UNL     1      33.263  -8.858 -22.342  0.00  0.00    -0.394 NA
ATOM     14  C   UNL     1      33.398 -10.643 -23.754  0.00  0.00    +0.079 C 
ATOM     15  C   UNL     1      32.412  -9.788 -21.967  0.00  0.00    +0.164 C 
ATOM     16  C   UNL     1      33.886  -9.374 -23.455  0.00  0.00    +0.128 C 
ATOM     17  C   UNL     1      33.850 -11.404 -24.832  0.00  0.00    +0.017 C 
ATOM     18  C   UNL     1      31.500  -9.709 -20.808  0.00  0.00    +0.084 C 
ATOM     19  C   UNL     1      34.886  -8.816 -24.271  0.00  0.00    +0.086 C 
ATOM     20  C   UNL     1      34.844 -10.833 -25.633  0.00  0.00    -0.003 C 
ATOM     21  C   UNL     1      35.355  -9.562 -25.359  0.00  0.00    -0.019 C 
ENDBRANCH  11  12
ENDBRANCH   3  11
BRANCH   6  22
ATOM     22  C   UNL     1      35.892 -17.985 -21.490  0.00  0.00    +0.164 C 
BRANCH  22  23
ATOM     23  N   UNL     1      35.385 -19.317 -21.799  0.00  0.00    -0.326 N 
ATOM     24  H   UNL     1      35.401 -19.618 -22.736  0.00  0.00    +0.147 HD
BRANCH  23  25
ATOM     25  C   UNL     1      34.883 -20.174 -20.844  0.00  0.00    +0.045 C 
ATOM     26  C   UNL     1      33.503 -20.208 -20.546  0.00  0.00    +0.014 C 
ATOM     27  C   UNL     1      35.730 -21.046 -20.128  0.00  0.00    +0.014 C 
ATOM     28  C   UNL     1      32.996 -21.074 -19.578  0.00  0.00    +0.004 C 
ATOM     29  C   UNL     1      35.223 -21.912 -19.160  0.00  0.00    +0.004 C 
ATOM     30  C   UNL     1      33.856 -21.926 -18.885  0.00  0.00    +0.031 C 
BRANCH  30  33
ATOM     31  N   UNL     1      31.971 -22.844 -17.555  0.00  0.00    -0.343 N 
ATOM     32  N   UNL     1      34.140 -23.652 -17.237  0.00  0.00    -0.285 NA
ATOM     33  C   UNL     1      33.327 -22.828 -17.874  0.00  0.00    +0.117 C 
ATOM     34  H   UNL     1      31.634 -23.464 -16.867  0.00  0.00    +0.144 HD
ATOM     35  H   UNL     1      31.349 -22.236 -18.017  0.00  0.00    +0.144 HD
ATOM     36  H   UNL     1      33.784 -24.264 -16.552  0.00  0.00    +0.188 HD
ENDBRANCH  30  33
ENDBRANCH  23  25
ENDBRANCH  22  23
ENDBRANCH   6  22
TORSDOF 6
ENDMDL
MODEL 7
REMARK VINA RESULT:     -11.0      3.589      6.980
REMARK  Name = 445756
REMARK  6 active torsions:
REMARK  status: ('A' for Active; 'I' for Inactive)
REMARK    1  A    between atoms: C_3  and  C_11
REMARK    2  A    between atoms: C_6  and  C_22
REMARK    3  A    between atoms: C_11  and  N_12
REMARK    4  A    between atoms: C_22  and  N_23
REMARK    5  A    between atoms: N_23  and  C_25
REMARK    6  A    between atoms: C_30  and  C_33
REMARK                            x       y       z     vdW  Elec       q    Type
REMARK                         _______ _______ _______ _____ _____    ______ ____
ROOT
ATOM      1  N   UNL     1      34.391 -21.636 -19.328  0.00  0.00    -0.261 N 
ATOM      2  N   UNL     1      36.484 -20.935 -19.068  0.00  0.00    -0.392 NA
ATOM      3  C   UNL     1      35.511 -18.557 -21.782  0.00  0.00    -0.017 C 
ATOM      4  C   UNL     1      34.551 -20.619 -20.233  0.00  0.00    +0.079 C 
ATOM      5  C   UNL     1      35.865 -20.197 -20.050  0.00  0.00    +0.128 C 
ATOM      6  C   UNL     1      35.572 -21.788 -18.657  0.00  0.00    +0.183 C 
ATOM      7  C   UNL     1      36.363 -19.145 -20.837  0.00  0.00    +0.084 C 
ATOM      8  C   UNL     1      34.197 -19.001 -21.941  0.00  0.00    -0.005 C 
ATOM      9  C   UNL     1      33.685 -20.047 -21.166  0.00  0.00    +0.017 C 
ATOM     10  C   UNL     1      33.186 -22.409 -19.123  0.00  0.00    +0.120 C 
ENDROOT
BRANCH   3  11
ATOM     11  C   UNL     1      36.019 -17.435 -22.629  0.00  0.00    +0.120 C 
BRANCH  11  12
ATOM     12  N   UNL     1      34.947 -16.507 -23.000  0.00  0.00    -0.260 N 
ATOM     13  N   UNL     1      33.496 -15.431 -24.263  0.00  0.00    -0.394 NA
ATOM     14  C   UNL     1      34.292 -15.681 -22.142  0.00  0.00    +0.079 C 
ATOM     15  C   UNL     1      34.452 -16.333 -24.250  0.00  0.00    +0.164 C 
ATOM     16  C   UNL     1      33.383 -15.012 -22.957  0.00  0.00    +0.128 C 
ATOM     17  C   UNL     1      34.399 -15.456 -20.769  0.00  0.00    +0.017 C 
ATOM     18  C   UNL     1      34.949 -17.085 -25.420  0.00  0.00    +0.084 C 
ATOM     19  C   UNL     1      32.522 -14.060 -22.385  0.00  0.00    +0.086 C 
ATOM     20  C   UNL     1      33.535 -14.505 -20.217  0.00  0.00    -0.003 C 
ATOM     21  C   UNL     1      32.612 -13.818 -21.009  0.00  0.00    -0.019 C 
ENDBRANCH  11  12
ENDBRANCH   3  11
BRANCH   6  22
ATOM     22  C   UNL     1      35.751 -22.806 -17.602  0.00  0.00    +0.164 C 
BRANCH  22  23
ATOM     23  N   UNL     1      35.247 -22.432 -16.286  0.00  0.00    -0.326 N 
ATOM     24  H   UNL     1      35.707 -21.712 -15.795  0.00  0.00    +0.147 HD
BRANCH  23  25
ATOM     25  C   UNL     1      34.158 -23.036 -15.694  0.00  0.00    +0.045 C 
ATOM     26  C   UNL     1      34.287 -23.741 -14.478  0.00  0.00    +0.014 C 
ATOM     27  C   UNL     1      32.879 -22.972 -16.284  0.00  0.00    +0.014 C 
ATOM     28  C   UNL     1      33.186 -24.354 -13.881  0.00  0.00    +0.004 C 
ATOM     29  C   UNL     1      31.778 -23.585 -15.687  0.00  0.00    +0.004 C 
ATOM     30  C   UNL     1      31.931 -24.277 -14.486  0.00  0.00    +0.031 C 
BRANCH  30  33
ATOM     31  N   UNL     1      29.931 -25.744 -14.592  0.00  0.00    -0.343 N 
ATOM     32  N   UNL     1      30.531 -24.715 -12.582  0.00  0.00    -0.285 NA
ATOM     33  C   UNL     1      30.783 -24.917 -13.863  0.00  0.00    +0.117 C 
ATOM     34  H   UNL     1      29.159 -26.168 -14.150  0.00  0.00    +0.144 HD
ATOM     35  H   UNL     1      30.100 -25.905 -15.549  0.00  0.00    +0.144 HD
ATOM     36  H   UNL     1      29.755 -25.148 -12.158  0.00  0.00    +0.188 HD
ENDBRANCH  30  33
ENDBRANCH  23  25
ENDBRANCH  22  23
ENDBRANCH   6  22
TORSDOF 6
ENDMDL
MODEL 8
REMARK VINA RESULT:     -10.9      4.936     12.550
REMARK  Name = 445756
REMARK  6 active torsions:
REMARK  status: ('A' for Active; 'I' for Inactive)
REMARK    1  A    between atoms: C_3  and  C_11
REMARK    2  A    between atoms: C_6  and  C_22
REMARK    3  A    between atoms: C_11  and  N_12
REMARK    4  A    between atoms: C_22  and  N_23
REMARK    5  A    between atoms: N_23  and  C_25
REMARK    6  A    between atoms: C_30  and  C_33
REMARK                            x       y       z     vdW  Elec       q    Type
REMARK                         _______ _______ _______ _____ _____    ______ ____
ROOT
ATOM      1  N   UNL     1      34.458 -21.516 -19.330  0.00  0.00    -0.261 N 
ATOM      2  N   UNL     1      36.427 -21.784 -18.335  0.00  0.00    -0.392 NA
ATOM      3  C   UNL     1      34.395 -23.806 -15.936  0.00  0.00    -0.017 C 
ATOM      4  C   UNL     1      34.210 -22.302 -18.234  0.00  0.00    +0.079 C 
ATOM      5  C   UNL     1      35.455 -22.455 -17.630  0.00  0.00    +0.128 C 
ATOM      6  C   UNL     1      35.795 -21.232 -19.347  0.00  0.00    +0.183 C 
ATOM      7  C   UNL     1      35.558 -23.221 -16.457  0.00  0.00    +0.084 C 
ATOM      8  C   UNL     1      33.161 -23.635 -16.567  0.00  0.00    -0.005 C 
ATOM      9  C   UNL     1      33.040 -22.876 -17.735  0.00  0.00    +0.017 C 
ATOM     10  C   UNL     1      33.478 -21.070 -20.294  0.00  0.00    +0.120 C 
ENDROOT
BRANCH   3  11
ATOM     11  C   UNL     1      34.481 -24.626 -14.691  0.00  0.00    +0.120 C 
BRANCH  11  12
ATOM     12  N   UNL     1      35.869 -24.946 -14.346  0.00  0.00    -0.260 N 
ATOM     13  N   UNL     1      37.816 -25.977 -14.376  0.00  0.00    -0.394 NA
ATOM     14  C   UNL     1      36.620 -24.288 -13.423  0.00  0.00    +0.079 C 
ATOM     15  C   UNL     1      36.608 -25.942 -14.892  0.00  0.00    +0.164 C 
ATOM     16  C   UNL     1      37.842 -24.953 -13.458  0.00  0.00    +0.128 C 
ATOM     17  C   UNL     1      36.360 -23.205 -12.582  0.00  0.00    +0.017 C 
ATOM     18  C   UNL     1      36.084 -26.849 -15.934  0.00  0.00    +0.084 C 
ATOM     19  C   UNL     1      38.879 -24.526 -12.611  0.00  0.00    +0.086 C 
ATOM     20  C   UNL     1      37.403 -22.795 -11.745  0.00  0.00    -0.003 C 
ATOM     21  C   UNL     1      38.641 -23.441 -11.758  0.00  0.00    -0.019 C 
ENDBRANCH  11  12
ENDBRANCH   3  11
BRANCH   6  22
ATOM     22  C   UNL     1      36.409 -20.399 -20.401  0.00  0.00    +0.164 C 
BRANCH  22  23
ATOM     23  N   UNL     1      36.105 -18.975 -20.321  0.00  0.00    -0.326 N 
ATOM     24  H   UNL     1      36.261 -18.511 -19.466  0.00  0.00    +0.147 HD
BRANCH  23  25
ATOM     25  C   UNL     1      35.610 -18.247 -21.381  0.00  0.00    +0.045 C 
ATOM     26  C   UNL     1      35.067 -16.958 -21.192  0.00  0.00    +0.014 C 
ATOM     27  C   UNL     1      35.626 -18.767 -22.693  0.00  0.00    +0.014 C 
ATOM     28  C   UNL     1      34.564 -16.223 -22.265  0.00  0.00    +0.004 C 
ATOM     29  C   UNL     1      35.123 -18.032 -23.766  0.00  0.00    +0.004 C 
ATOM     30  C   UNL     1      34.591 -16.760 -23.552  0.00  0.00    +0.031 C 
BRANCH  30  33
ATOM     31  N   UNL     1      33.341 -14.821 -24.469  0.00  0.00    -0.343 N 
ATOM     32  N   UNL     1      34.269 -16.411 -25.908  0.00  0.00    -0.285 NA
ATOM     33  C   UNL     1      34.065 -15.994 -24.670  0.00  0.00    +0.117 C 
ATOM     34  H   UNL     1      32.994 -14.318 -25.241  0.00  0.00    +0.144 HD
ATOM     35  H   UNL     1      33.176 -14.495 -23.555  0.00  0.00    +0.144 HD
ATOM     36  H   UNL     1      33.914 -15.894 -26.667  0.00  0.00    +0.188 HD
ENDBRANCH  30  33
ENDBRANCH  23  25
ENDBRANCH  22  23
ENDBRANCH   6  22
TORSDOF 6
ENDMDL
MODEL 9
REMARK VINA RESULT:     -10.9      2.233     11.098
REMARK  Name = 445756
REMARK  6 active torsions:
REMARK  status: ('A' for Active; 'I' for Inactive)
REMARK    1  A    between atoms: C_3  and  C_11
REMARK    2  A    between atoms: C_6  and  C_22
REMARK    3  A    between atoms: C_11  and  N_12
REMARK    4  A    between atoms: C_22  and  N_23
REMARK    5  A    between atoms: N_23  and  C_25
REMARK    6  A    between atoms: C_30  and  C_33
REMARK                            x       y       z     vdW  Elec       q    Type
REMARK                         _______ _______ _______ _____ _____    ______ ____
ROOT
ATOM      1  N   UNL     1      35.462 -19.250 -20.984  0.00  0.00    -0.261 N 
ATOM      2  N   UNL     1      33.259 -19.513 -20.848  0.00  0.00    -0.392 NA
ATOM      3  C   UNL     1      34.229 -22.554 -18.903  0.00  0.00    -0.017 C 
ATOM      4  C   UNL     1      35.274 -20.398 -20.258  0.00  0.00    +0.079 C 
ATOM      5  C   UNL     1      33.891 -20.540 -20.186  0.00  0.00    +0.128 C 
ATOM      6  C   UNL     1      34.229 -18.759 -21.314  0.00  0.00    +0.183 C 
ATOM      7  C   UNL     1      33.350 -21.638 -19.496  0.00  0.00    +0.084 C 
ATOM      8  C   UNL     1      35.613 -22.383 -18.991  0.00  0.00    -0.005 C 
ATOM      9  C   UNL     1      36.169 -21.296 -19.673  0.00  0.00    +0.017 C 
ATOM     10  C   UNL     1      36.737 -18.667 -21.336  0.00  0.00    +0.120 C 
ENDROOT
BRANCH   3  11
ATOM     11  C   UNL     1      33.676 -23.728 -18.163  0.00  0.00    +0.120 C 
BRANCH  11  12
ATOM     12  N   UNL     1      33.364 -23.394 -16.770  0.00  0.00    -0.260 N 
ATOM     13  N   UNL     1      33.682 -22.950 -14.635  0.00  0.00    -0.394 NA
ATOM     14  C   UNL     1      32.116 -23.181 -16.275  0.00  0.00    +0.079 C 
ATOM     15  C   UNL     1      34.269 -23.251 -15.772  0.00  0.00    +0.164 C 
ATOM     16  C   UNL     1      32.339 -22.903 -14.929  0.00  0.00    +0.128 C 
ATOM     17  C   UNL     1      30.846 -23.201 -16.854  0.00  0.00    +0.017 C 
ATOM     18  C   UNL     1      35.722 -23.418 -15.978  0.00  0.00    +0.084 C 
ATOM     19  C   UNL     1      31.241 -22.626 -14.097  0.00  0.00    +0.086 C 
ATOM     20  C   UNL     1      29.766 -22.924 -16.010  0.00  0.00    -0.003 C 
ATOM     21  C   UNL     1      29.957 -22.641 -14.656  0.00  0.00    -0.019 C 
ENDBRANCH  11  12
ENDBRANCH   3  11
BRANCH   6  22
ATOM     22  C   UNL     1      34.062 -17.522 -22.103  0.00  0.00    +0.164 C 
BRANCH  22  23
ATOM     23  N   UNL     1      34.411 -16.289 -21.406  0.00  0.00    -0.326 N 
ATOM     24  H   UNL     1      35.187 -16.299 -20.800  0.00  0.00    +0.147 HD
BRANCH  23  25
ATOM     25  C   UNL     1      33.708 -15.113 -21.553  0.00  0.00    +0.045 C 
ATOM     26  C   UNL     1      32.938 -14.586 -20.495  0.00  0.00    +0.014 C 
ATOM     27  C   UNL     1      33.733 -14.396 -22.768  0.00  0.00    +0.014 C 
ATOM     28  C   UNL     1      32.225 -13.397 -20.645  0.00  0.00    +0.004 C 
ATOM     29  C   UNL     1      33.020 -13.207 -22.918  0.00  0.00    +0.004 C 
ATOM     30  C   UNL     1      32.265 -12.708 -21.857  0.00  0.00    +0.031 C 
BRANCH  30  33
ATOM     31  N   UNL     1      32.052 -10.387 -22.712  0.00  0.00    -0.343 N 
ATOM     32  N   UNL     1      30.316 -11.353 -21.484  0.00  0.00    -0.285 NA
ATOM     33  C   UNL     1      31.521 -11.468 -22.014  0.00  0.00    +0.117 C 
ATOM     34  H   UNL     1      31.530  -9.556 -22.806  0.00  0.00    +0.144 HD
ATOM     35  H   UNL     1      32.950 -10.452 -23.112  0.00  0.00    +0.144 HD
ATOM     36  H   UNL     1      29.810 -10.515 -21.589  0.00  0.00    +0.188 HD
ENDBRANCH  30  33
ENDBRANCH  23  25
ENDBRANCH  22  23
ENDBRANCH   6  22
TORSDOF 6
ENDMDL
