MODEL 1
REMARK VINA RESULT:      -9.1      0.000      0.000
REMARK  Name = 10950142
REMARK  8 active torsions:
REMARK  status: ('A' for Active; 'I' for Inactive)
REMARK    1  A    between atoms: C_6  and  O_24
REMARK    2  A    between atoms: C_6  and  C_35
REMARK    3  A    between atoms: C_17  and  C_27
REMARK    4  A    between atoms: N_26  and  C_27
REMARK    5  A    between atoms: N_26  and  O_28
REMARK    6  A    between atoms: O_28  and  C_29
REMARK    7  A    between atoms: C_29  and  C_30
REMARK    8  A    between atoms: C_30  and  N_31
REMARK                            x       y       z     vdW  Elec       q    Type
REMARK                         _______ _______ _______ _____ _____    ______ ____
ROOT
ATOM      1  O   UNL     1      36.052 -19.509 -22.192  0.00  0.00    -0.442 OA
ATOM      2  O   UNL     1      37.115 -21.698 -18.730  0.00  0.00    -0.270 OA
ATOM      3  O   UNL     1      34.407 -19.133 -23.673  0.00  0.00    -0.247 OA
ATOM      4  N   UNL     1      34.891 -22.055 -18.206  0.00  0.00    -0.249 N 
ATOM      5  N   UNL     1      31.427 -22.563 -17.378  0.00  0.00    -0.405 NA
ATOM      6  C   UNL     1      33.734 -19.435 -21.374  0.00  0.00    +0.196 C 
ATOM      7  C   UNL     1      34.164 -20.374 -20.281  0.00  0.00    +0.017 C 
ATOM      8  C   UNL     1      33.550 -21.806 -18.450  0.00  0.00    +0.084 C 
ATOM      9  C   UNL     1      35.060 -22.973 -17.061  0.00  0.00    +0.127 C 
ATOM     10  C   UNL     1      35.474 -20.590 -20.058  0.00  0.00    +0.074 C 
ATOM     11  C   UNL     1      33.648 -23.235 -16.655  0.00  0.00    +0.023 C 
ATOM     12  C   UNL     1      32.763 -22.546 -17.474  0.00  0.00    +0.142 C 
ATOM     13  C   UNL     1      33.156 -20.998 -19.439  0.00  0.00    +0.016 C 
ATOM     14  C   UNL     1      35.921 -21.497 -18.942  0.00  0.00    +0.252 C 
ATOM     15  C   UNL     1      36.517 -19.927 -20.891  0.00  0.00    +0.239 C 
ATOM     16  C   UNL     1      34.745 -19.361 -22.513  0.00  0.00    +0.346 C 
ATOM     17  C   UNL     1      33.133 -24.014 -15.646  0.00  0.00    -0.014 C 
ATOM     18  C   UNL     1      31.738 -24.070 -15.495  0.00  0.00    +0.094 C 
ATOM     19  C   UNL     1      30.917 -23.325 -16.389  0.00  0.00    +0.116 C 
ATOM     20  C   UNL     1      31.153 -24.849 -14.484  0.00  0.00    -0.015 C 
ATOM     21  C   UNL     1      29.538 -23.398 -16.221  0.00  0.00    +0.028 C 
ATOM     22  C   UNL     1      29.769 -24.899 -14.344  0.00  0.00    -0.004 C 
ATOM     23  C   UNL     1      28.962 -24.173 -15.213  0.00  0.00    +0.002 C 
ENDROOT
BRANCH   6  24
ATOM     24  O   UNL     1      32.539 -19.924 -21.988  0.00  0.00    -0.373 OA
ATOM     25  H   UNL     1      31.877 -19.216 -22.016  0.00  0.00    +0.211 HD
ENDBRANCH   6  24
BRANCH   6  26
ATOM     26  C   UNL     1      33.475 -18.026 -20.837  0.00  0.00    +0.042 C 
ATOM     27  C   UNL     1      34.571 -17.068 -21.258  0.00  0.00    +0.003 C 
ENDBRANCH   6  26
BRANCH  17  28
ATOM     28  C   UNL     1      34.058 -24.738 -14.781  0.00  0.00    +0.144 C 
BRANCH  28  29
ATOM     29  N   UNL     1      34.666 -24.178 -13.777  0.00  0.00    -0.079 NA
BRANCH  29  30
ATOM     30  O   UNL     1      36.052 -24.261 -13.974  0.00  0.00    -0.268 OA
BRANCH  30  31
ATOM     31  C   UNL     1      36.327 -25.463 -14.676  0.00  0.00    +0.145 C 
BRANCH  31  32
ATOM     32  C   UNL     1      37.232 -26.333 -13.819  0.00  0.00    -0.051 C 
BRANCH  32  33
ATOM     33  N   UNL     1      36.888 -26.201 -12.411  0.00  0.00    +0.382 N 
ATOM     34  H   UNL     1      36.965 -25.223 -12.133  0.00  0.00    -0.089 HD
ATOM     35  H   UNL     1      37.527 -26.766 -11.850  0.00  0.00    -0.089 HD
ATOM     36  H   UNL     1      35.931 -26.523 -12.263  0.00  0.00    -0.089 HD
ENDBRANCH  32  33
ENDBRANCH  31  32
ENDBRANCH  30  31
ENDBRANCH  29  30
ENDBRANCH  28  29
ENDBRANCH  17  28
TORSDOF 8
ENDMDL
MODEL 2
REMARK VINA RESULT:      -8.9      6.486     11.949
REMARK  Name = 10950142
REMARK  8 active torsions:
REMARK  status: ('A' for Active; 'I' for Inactive)
REMARK    1  A    between atoms: C_6  and  O_24
REMARK    2  A    between atoms: C_6  and  C_35
REMARK    3  A    between atoms: C_17  and  C_27
REMARK    4  A    between atoms: N_26  and  C_27
REMARK    5  A    between atoms: N_26  and  O_28
REMARK    6  A    between atoms: O_28  and  C_29
REMARK    7  A    between atoms: C_29  and  C_30
REMARK    8  A    between atoms: C_30  and  N_31
REMARK                            x       y       z     vdW  Elec       q    Type
REMARK                         _______ _______ _______ _____ _____    ______ ____
ROOT
ATOM      1  O   UNL     1      35.529 -19.730 -23.398  0.00  0.00    -0.442 OA
ATOM      2  O   UNL     1      34.619 -16.274 -25.665  0.00  0.00    -0.270 OA
ATOM      3  O   UNL     1      35.942 -20.491 -21.327  0.00  0.00    -0.247 OA
ATOM      4  N   UNL     1      33.851 -15.174 -23.781  0.00  0.00    -0.249 N 
ATOM      5  N   UNL     1      32.616 -13.492 -20.851  0.00  0.00    -0.405 NA
ATOM      6  C   UNL     1      34.252 -18.778 -21.525  0.00  0.00    +0.196 C 
ATOM      7  C   UNL     1      34.144 -17.514 -22.333  0.00  0.00    +0.017 C 
ATOM      8  C   UNL     1      33.514 -15.197 -22.437  0.00  0.00    +0.084 C 
ATOM      9  C   UNL     1      33.622 -13.836 -24.363  0.00  0.00    +0.127 C 
ATOM     10  C   UNL     1      34.468 -17.522 -23.639  0.00  0.00    +0.074 C 
ATOM     11  C   UNL     1      33.102 -13.068 -23.194  0.00  0.00    +0.023 C 
ATOM     12  C   UNL     1      33.039 -13.872 -22.064  0.00  0.00    +0.142 C 
ATOM     13  C   UNL     1      33.636 -16.306 -21.703  0.00  0.00    +0.016 C 
ATOM     14  C   UNL     1      34.328 -16.274 -24.471  0.00  0.00    +0.252 C 
ATOM     15  C   UNL     1      34.955 -18.764 -24.305  0.00  0.00    +0.239 C 
ATOM     16  C   UNL     1      35.320 -19.725 -22.061  0.00  0.00    +0.346 C 
ATOM     17  C   UNL     1      32.700 -11.757 -23.087  0.00  0.00    -0.014 C 
ATOM     18  C   UNL     1      32.246 -11.301 -21.838  0.00  0.00    +0.094 C 
ATOM     19  C   UNL     1      32.221 -12.207 -20.740  0.00  0.00    +0.116 C 
ATOM     20  C   UNL     1      31.823  -9.974 -21.666  0.00  0.00    -0.015 C 
ATOM     21  C   UNL     1      31.768 -11.732 -19.514  0.00  0.00    +0.028 C 
ATOM     22  C   UNL     1      31.376  -9.531 -20.424  0.00  0.00    -0.004 C 
ATOM     23  C   UNL     1      31.349 -10.410 -19.349  0.00  0.00    +0.002 C 
ENDROOT
BRANCH   6  24
ATOM     24  O   UNL     1      34.684 -18.467 -20.198  0.00  0.00    -0.373 OA
ATOM     25  H   UNL     1      35.543 -18.019 -20.234  0.00  0.00    +0.211 HD
ENDBRANCH   6  24
BRANCH   6  26
ATOM     26  C   UNL     1      32.914 -19.517 -21.452  0.00  0.00    +0.042 C 
ATOM     27  C   UNL     1      32.812 -20.345 -20.187  0.00  0.00    +0.003 C 
ENDBRANCH   6  26
BRANCH  17  28
ATOM     28  C   UNL     1      32.761 -10.909 -24.272  0.00  0.00    +0.144 C 
BRANCH  28  29
ATOM     29  N   UNL     1      33.882 -10.497 -24.785  0.00  0.00    -0.079 NA
BRANCH  29  30
ATOM     30  O   UNL     1      34.650  -9.886 -23.783  0.00  0.00    -0.268 OA
BRANCH  30  31
ATOM     31  C   UNL     1      34.861  -8.532 -24.152  0.00  0.00    +0.145 C 
BRANCH  31  32
ATOM     32  C   UNL     1      34.332  -7.636 -23.045  0.00  0.00    -0.051 C 
BRANCH  32  33
ATOM     33  N   UNL     1      33.069  -7.025 -23.436  0.00  0.00    +0.382 N 
ATOM     34  H   UNL     1      32.882  -7.232 -24.418  0.00  0.00    -0.089 HD
ATOM     35  H   UNL     1      33.124  -6.016 -23.305  0.00  0.00    -0.089 HD
ATOM     36  H   UNL     1      32.316  -7.403 -22.861  0.00  0.00    -0.089 HD
ENDBRANCH  32  33
ENDBRANCH  31  32
ENDBRANCH  30  31
ENDBRANCH  29  30
ENDBRANCH  28  29
ENDBRANCH  17  28
TORSDOF 8
ENDMDL
MODEL 3
REMARK VINA RESULT:      -7.9      2.011      7.474
REMARK  Name = 10950142
REMARK  8 active torsions:
REMARK  status: ('A' for Active; 'I' for Inactive)
REMARK    1  A    between atoms: C_6  and  O_24
REMARK    2  A    between atoms: C_6  and  C_35
REMARK    3  A    between atoms: C_17  and  C_27
REMARK    4  A    between atoms: N_26  and  C_27
REMARK    5  A    between atoms: N_26  and  O_28
REMARK    6  A    between atoms: O_28  and  C_29
REMARK    7  A    between atoms: C_29  and  C_30
REMARK    8  A    between atoms: C_30  and  N_31
REMARK                            x       y       z     vdW  Elec       q    Type
REMARK                         _______ _______ _______ _____ _____    ______ ____
ROOT
ATOM      1  O   UNL     1      39.200 -24.337 -13.193  0.00  0.00    -0.442 OA
ATOM      2  O   UNL     1      37.457 -22.633 -16.653  0.00  0.00    -0.270 OA
ATOM      3  O   UNL     1      38.793 -24.990 -11.085  0.00  0.00    -0.247 OA
ATOM      4  N   UNL     1      35.337 -23.225 -15.943  0.00  0.00    -0.249 N 
ATOM      5  N   UNL     1      32.049 -24.191 -14.848  0.00  0.00    -0.405 NA
ATOM      6  C   UNL     1      37.045 -25.411 -12.697  0.00  0.00    +0.196 C 
ATOM      7  C   UNL     1      36.465 -24.613 -13.832  0.00  0.00    +0.017 C 
ATOM      8  C   UNL     1      34.520 -23.894 -15.046  0.00  0.00    +0.084 C 
ATOM      9  C   UNL     1      34.539 -22.551 -16.988  0.00  0.00    +0.127 C 
ATOM     10  C   UNL     1      37.282 -23.982 -14.695  0.00  0.00    +0.074 C 
ATOM     11  C   UNL     1      33.143 -22.909 -16.599  0.00  0.00    +0.023 C 
ATOM     12  C   UNL     1      33.136 -23.699 -15.457  0.00  0.00    +0.142 C 
ATOM     13  C   UNL     1      35.023 -24.579 -14.017  0.00  0.00    +0.016 C 
ATOM     14  C   UNL     1      36.718 -23.211 -15.859  0.00  0.00    +0.252 C 
ATOM     15  C   UNL     1      38.763 -24.040 -14.537  0.00  0.00    +0.239 C 
ATOM     16  C   UNL     1      38.404 -24.886 -12.247  0.00  0.00    +0.346 C 
ATOM     17  C   UNL     1      31.938 -22.586 -17.178  0.00  0.00    -0.014 C 
ATOM     18  C   UNL     1      30.763 -23.075 -16.584  0.00  0.00    +0.094 C 
ATOM     19  C   UNL     1      30.865 -23.878 -15.412  0.00  0.00    +0.116 C 
ATOM     20  C   UNL     1      29.504 -22.778 -17.128  0.00  0.00    -0.015 C 
ATOM     21  C   UNL     1      29.688 -24.349 -14.841  0.00  0.00    +0.028 C 
ATOM     22  C   UNL     1      28.345 -23.266 -16.530  0.00  0.00    -0.004 C 
ATOM     23  C   UNL     1      28.437 -24.051 -15.388  0.00  0.00    +0.002 C 
ENDROOT
BRANCH   6  24
ATOM     24  O   UNL     1      36.212 -25.283 -11.541  0.00  0.00    -0.373 OA
ATOM     25  H   UNL     1      35.378 -25.755 -11.691  0.00  0.00    +0.211 HD
ENDBRANCH   6  24
BRANCH   6  26
ATOM     26  C   UNL     1      37.171 -26.893 -13.055  0.00  0.00    +0.042 C 
ATOM     27  C   UNL     1      37.159 -27.099 -14.556  0.00  0.00    +0.003 C 
ENDBRANCH   6  26
BRANCH  17  28
ATOM     28  C   UNL     1      31.940 -21.758 -18.379  0.00  0.00    +0.144 C 
BRANCH  28  29
ATOM     29  N   UNL     1      32.694 -22.013 -19.407  0.00  0.00    -0.079 NA
BRANCH  29  30
ATOM     30  O   UNL     1      32.872 -20.837 -20.150  0.00  0.00    -0.268 OA
BRANCH  30  31
ATOM     31  C   UNL     1      34.266 -20.613 -20.296  0.00  0.00    +0.145 C 
BRANCH  31  32
ATOM     32  C   UNL     1      34.475 -19.361 -21.130  0.00  0.00    -0.051 C 
BRANCH  32  33
ATOM     33  N   UNL     1      35.688 -18.667 -20.721  0.00  0.00    +0.382 N 
ATOM     34  H   UNL     1      36.029 -19.066 -19.847  0.00  0.00    -0.089 HD
ATOM     35  H   UNL     1      35.485 -17.677 -20.588  0.00  0.00    -0.089 HD
ATOM     36  H   UNL     1      36.400 -18.774 -21.444  0.00  0.00    -0.089 HD
ENDBRANCH  32  33
ENDBRANCH  31  32
ENDBRANCH  30  31
ENDBRANCH  29  30
ENDBRANCH  28  29
ENDBRANCH  17  28
TORSDOF 8
ENDMDL
MODEL 4
REMARK VINA RESULT:      -7.7      7.257     12.592
REMARK  Name = 10950142
REMARK  8 active torsions:
REMARK  status: ('A' for Active; 'I' for Inactive)
REMARK    1  A    between atoms: C_6  and  O_24
REMARK    2  A    between atoms: C_6  and  C_35
REMARK    3  A    between atoms: C_17  and  C_27
REMARK    4  A    between atoms: N_26  and  C_27
REMARK    5  A    between atoms: N_26  and  O_28
REMARK    6  A    between atoms: O_28  and  C_29
REMARK    7  A    between atoms: C_29  and  C_30
REMARK    8  A    between atoms: C_30  and  N_31
REMARK                            x       y       z     vdW  Elec       q    Type
REMARK                         _______ _______ _______ _____ _____    ______ ____
ROOT
ATOM      1  O   UNL     1      33.802 -19.315 -22.104  0.00  0.00    -0.442 OA
ATOM      2  O   UNL     1      31.738 -16.150 -20.197  0.00  0.00    -0.270 OA
ATOM      3  O   UNL     1      34.870 -19.918 -23.984  0.00  0.00    -0.247 OA
ATOM      4  N   UNL     1      32.709 -14.595 -21.606  0.00  0.00    -0.249 N 
ATOM      5  N   UNL     1      34.263 -12.181 -23.774  0.00  0.00    -0.405 NA
ATOM      6  C   UNL     1      35.211 -17.647 -23.236  0.00  0.00    +0.196 C 
ATOM      7  C   UNL     1      34.302 -16.594 -22.666  0.00  0.00    +0.017 C 
ATOM      8  C   UNL     1      33.626 -14.289 -22.598  0.00  0.00    +0.084 C 
ATOM      9  C   UNL     1      31.965 -13.392 -21.182  0.00  0.00    +0.127 C 
ATOM     10  C   UNL     1      33.428 -16.916 -21.695  0.00  0.00    +0.074 C 
ATOM     11  C   UNL     1      32.560 -12.331 -22.048  0.00  0.00    +0.023 C 
ATOM     12  C   UNL     1      33.537 -12.862 -22.878  0.00  0.00    +0.142 C 
ATOM     13  C   UNL     1      34.417 -15.222 -23.134  0.00  0.00    +0.016 C 
ATOM     14  C   UNL     1      32.537 -15.865 -21.086  0.00  0.00    +0.252 C 
ATOM     15  C   UNL     1      33.326 -18.312 -21.180  0.00  0.00    +0.239 C 
ATOM     16  C   UNL     1      34.609 -19.046 -23.158  0.00  0.00    +0.346 C 
ATOM     17  C   UNL     1      32.292 -10.984 -22.131  0.00  0.00    -0.014 C 
ATOM     18  C   UNL     1      33.023 -10.217 -23.052  0.00  0.00    +0.094 C 
ATOM     19  C   UNL     1      34.005 -10.859 -23.860  0.00  0.00    +0.116 C 
ATOM     20  C   UNL     1      32.795  -8.838 -23.184  0.00  0.00    -0.015 C 
ATOM     21  C   UNL     1      34.716 -10.079 -24.765  0.00  0.00    +0.028 C 
ATOM     22  C   UNL     1      33.525  -8.087 -24.102  0.00  0.00    -0.004 C 
ATOM     23  C   UNL     1      34.484  -8.708 -24.892  0.00  0.00    +0.002 C 
ENDROOT
BRANCH   6  24
ATOM     24  O   UNL     1      35.399 -17.417 -24.635  0.00  0.00    -0.373 OA
ATOM     25  H   UNL     1      35.046 -18.168 -25.136  0.00  0.00    +0.211 HD
ENDBRANCH   6  24
BRANCH   6  26
ATOM     26  C   UNL     1      36.577 -17.648 -22.546  0.00  0.00    +0.042 C 
ATOM     27  C   UNL     1      36.642 -18.698 -21.456  0.00  0.00    +0.003 C 
ENDBRANCH   6  26
BRANCH  17  28
ATOM     28  C   UNL     1      31.269 -10.421 -21.258  0.00  0.00    +0.144 C 
BRANCH  28  29
ATOM     29  N   UNL     1      31.417 -10.326 -19.970  0.00  0.00    -0.079 NA
BRANCH  29  30
ATOM     30  O   UNL     1      32.329  -9.300 -19.686  0.00  0.00    -0.268 OA
BRANCH  30  31
ATOM     31  C   UNL     1      31.645  -8.060 -19.787  0.00  0.00    +0.145 C 
BRANCH  31  32
ATOM     32  C   UNL     1      32.638  -6.986 -20.195  0.00  0.00    -0.051 C 
BRANCH  32  33
ATOM     33  N   UNL     1      31.968  -5.913 -20.915  0.00  0.00    +0.382 N 
ATOM     34  H   UNL     1      32.292  -5.898 -21.882  0.00  0.00    -0.089 HD
ATOM     35  H   UNL     1      32.180  -5.020 -20.471  0.00  0.00    -0.089 HD
ATOM     36  H   UNL     1      30.960  -6.070 -20.898  0.00  0.00    -0.089 HD
ENDBRANCH  32  33
ENDBRANCH  31  32
ENDBRANCH  30  31
ENDBRANCH  29  30
ENDBRANCH  28  29
ENDBRANCH  17  28
TORSDOF 8
ENDMDL
MODEL 5
REMARK VINA RESULT:      -7.7      7.665     11.851
REMARK  Name = 10950142
REMARK  8 active torsions:
REMARK  status: ('A' for Active; 'I' for Inactive)
REMARK    1  A    between atoms: C_6  and  O_24
REMARK    2  A    between atoms: C_6  and  C_35
REMARK    3  A    between atoms: C_17  and  C_27
REMARK    4  A    between atoms: N_26  and  C_27
REMARK    5  A    between atoms: N_26  and  O_28
REMARK    6  A    between atoms: O_28  and  C_29
REMARK    7  A    between atoms: C_29  and  C_30
REMARK    8  A    between atoms: C_30  and  N_31
REMARK                            x       y       z     vdW  Elec       q    Type
REMARK                         _______ _______ _______ _____ _____    ______ ____
ROOT
ATOM      1  O   UNL     1      31.820  -6.860 -20.446  0.00  0.00    -0.442 OA
ATOM      2  O   UNL     1      31.821 -10.795 -18.888  0.00  0.00    -0.270 OA
ATOM      3  O   UNL     1      32.560  -5.568 -22.126  0.00  0.00    -0.247 OA
ATOM      4  N   UNL     1      32.367 -11.672 -20.957  0.00  0.00    -0.249 N 
ATOM      5  N   UNL     1      33.170 -13.028 -24.191  0.00  0.00    -0.405 NA
ATOM      6  C   UNL     1      31.880  -7.810 -22.712  0.00  0.00    +0.196 C 
ATOM      7  C   UNL     1      32.071  -9.155 -22.068  0.00  0.00    +0.017 C 
ATOM      8  C   UNL     1      32.564 -11.494 -22.317  0.00  0.00    +0.084 C 
ATOM      9  C   UNL     1      32.573 -13.083 -20.571  0.00  0.00    +0.127 C 
ATOM     10  C   UNL     1      31.863  -9.302 -20.747  0.00  0.00    +0.074 C 
ATOM     11  C   UNL     1      32.915 -13.721 -21.876  0.00  0.00    +0.023 C 
ATOM     12  C   UNL     1      32.908 -12.783 -22.900  0.00  0.00    +0.142 C 
ATOM     13  C   UNL     1      32.427 -10.298 -22.894  0.00  0.00    +0.016 C 
ATOM     14  C   UNL     1      32.012 -10.651 -20.093  0.00  0.00    +0.252 C 
ATOM     15  C   UNL     1      31.461  -8.146 -19.896  0.00  0.00    +0.239 C 
ATOM     16  C   UNL     1      32.133  -6.657 -21.747  0.00  0.00    +0.346 C 
ATOM     17  C   UNL     1      33.217 -15.026 -22.186  0.00  0.00    -0.014 C 
ATOM     18  C   UNL     1      33.500 -15.343 -23.525  0.00  0.00    +0.094 C 
ATOM     19  C   UNL     1      33.466 -14.306 -24.502  0.00  0.00    +0.116 C 
ATOM     20  C   UNL     1      33.815 -16.657 -23.904  0.00  0.00    -0.015 C 
ATOM     21  C   UNL     1      33.751 -14.644 -25.820  0.00  0.00    +0.028 C 
ATOM     22  C   UNL     1      34.096 -16.960 -25.233  0.00  0.00    -0.004 C 
ATOM     23  C   UNL     1      34.064 -15.953 -26.190  0.00  0.00    +0.002 C 
ENDROOT
BRANCH   6  24
ATOM     24  O   UNL     1      32.850  -7.628 -23.748  0.00  0.00    -0.373 OA
ATOM     25  H   UNL     1      33.737  -7.790 -23.391  0.00  0.00    +0.211 HD
ENDBRANCH   6  24
BRANCH   6  26
ATOM     26  C   UNL     1      30.480  -7.666 -23.314  0.00  0.00    +0.042 C 
ATOM     27  C   UNL     1      30.526  -6.952 -24.649  0.00  0.00    +0.003 C 
ENDBRANCH   6  26
BRANCH  17  28
ATOM     28  C   UNL     1      33.223 -16.015 -21.115  0.00  0.00    +0.144 C 
BRANCH  28  29
ATOM     29  N   UNL     1      34.217 -16.149 -20.287  0.00  0.00    -0.079 NA
BRANCH  29  30
ATOM     30  O   UNL     1      35.071 -17.158 -20.754  0.00  0.00    -0.268 OA
BRANCH  30  31
ATOM     31  C   UNL     1      34.290 -18.316 -21.009  0.00  0.00    +0.145 C 
BRANCH  31  32
ATOM     32  C   UNL     1      35.219 -19.506 -21.176  0.00  0.00    -0.051 C 
BRANCH  32  33
ATOM     33  N   UNL     1      36.390 -19.368 -20.322  0.00  0.00    +0.382 N 
ATOM     34  H   UNL     1      36.370 -18.458 -19.863  0.00  0.00    -0.089 HD
ATOM     35  H   UNL     1      37.235 -19.445 -20.888  0.00  0.00    -0.089 HD
ATOM     36  H   UNL     1      36.385 -20.105 -19.617  0.00  0.00    -0.089 HD
ENDBRANCH  32  33
ENDBRANCH  31  32
ENDBRANCH  30  31
ENDBRANCH  29  30
ENDBRANCH  28  29
ENDBRANCH  17  28
TORSDOF 8
ENDMDL
MODEL 6
REMARK VINA RESULT:      -7.6      3.133      8.079
REMARK  Name = 10950142
REMARK  8 active torsions:
REMARK  status: ('A' for Active; 'I' for Inactive)
REMARK    1  A    between atoms: C_6  and  O_24
REMARK    2  A    between atoms: C_6  and  C_35
REMARK    3  A    between atoms: C_17  and  C_27
REMARK    4  A    between atoms: N_26  and  C_27
REMARK    5  A    between atoms: N_26  and  O_28
REMARK    6  A    between atoms: O_28  and  C_29
REMARK    7  A    between atoms: C_29  and  C_30
REMARK    8  A    between atoms: C_30  and  N_31
REMARK                            x       y       z     vdW  Elec       q    Type
REMARK                         _______ _______ _______ _____ _____    ______ ____
ROOT
ATOM      1  O   UNL     1      37.019 -26.043 -11.660  0.00  0.00    -0.442 OA
ATOM      2  O   UNL     1      33.216 -24.826 -13.061  0.00  0.00    -0.270 OA
ATOM      3  O   UNL     1      39.144 -26.435 -12.271  0.00  0.00    -0.247 OA
ATOM      4  N   UNL     1      34.161 -23.821 -14.917  0.00  0.00    -0.249 N 
ATOM      5  N   UNL     1      35.647 -22.219 -17.775  0.00  0.00    -0.405 NA
ATOM      6  C   UNL     1      38.053 -24.553 -13.320  0.00  0.00    +0.196 C 
ATOM      7  C   UNL     1      36.673 -24.329 -13.875  0.00  0.00    +0.017 C 
ATOM      8  C   UNL     1      35.287 -23.415 -15.613  0.00  0.00    +0.084 C 
ATOM      9  C   UNL     1      32.927 -23.454 -15.643  0.00  0.00    +0.127 C 
ATOM     10  C   UNL     1      35.595 -24.723 -13.173  0.00  0.00    +0.074 C 
ATOM     11  C   UNL     1      33.467 -22.776 -16.859  0.00  0.00    +0.023 C 
ATOM     12  C   UNL     1      34.854 -22.754 -16.837  0.00  0.00    +0.142 C 
ATOM     13  C   UNL     1      36.518 -23.636 -15.144  0.00  0.00    +0.016 C 
ATOM     14  C   UNL     1      34.206 -24.472 -13.697  0.00  0.00    +0.252 C 
ATOM     15  C   UNL     1      35.740 -25.401 -11.854  0.00  0.00    +0.239 C 
ATOM     16  C   UNL     1      38.122 -25.761 -12.393  0.00  0.00    +0.346 C 
ATOM     17  C   UNL     1      32.820 -22.205 -17.930  0.00  0.00    -0.014 C 
ATOM     18  C   UNL     1      33.600 -21.627 -18.945  0.00  0.00    +0.094 C 
ATOM     19  C   UNL     1      35.019 -21.657 -18.828  0.00  0.00    +0.116 C 
ATOM     20  C   UNL     1      32.998 -21.030 -20.064  0.00  0.00    -0.015 C 
ATOM     21  C   UNL     1      35.769 -21.080 -19.846  0.00  0.00    +0.028 C 
ATOM     22  C   UNL     1      33.780 -20.461 -21.066  0.00  0.00    -0.004 C 
ATOM     23  C   UNL     1      35.165 -20.487 -20.956  0.00  0.00    +0.002 C 
ENDROOT
BRANCH   6  24
ATOM     24  O   UNL     1      38.956 -24.867 -14.383  0.00  0.00    -0.373 OA
ATOM     25  H   UNL     1      39.869 -24.761 -14.074  0.00  0.00    +0.211 HD
ENDBRANCH   6  24
BRANCH   6  26
ATOM     26  C   UNL     1      38.570 -23.319 -12.579  0.00  0.00    +0.042 C 
ATOM     27  C   UNL     1      37.506 -22.737 -11.671  0.00  0.00    +0.003 C 
ENDBRANCH   6  26
BRANCH  17  28
ATOM     28  C   UNL     1      31.362 -22.223 -17.956  0.00  0.00    +0.144 C 
BRANCH  28  29
ATOM     29  N   UNL     1      30.642 -22.419 -16.892  0.00  0.00    -0.079 NA
BRANCH  29  30
ATOM     30  O   UNL     1      29.286 -22.415 -17.247  0.00  0.00    -0.268 OA
BRANCH  30  31
ATOM     31  C   UNL     1      28.529 -22.799 -16.108  0.00  0.00    +0.145 C 
BRANCH  31  32
ATOM     32  C   UNL     1      28.644 -24.303 -15.930  0.00  0.00    -0.051 C 
BRANCH  32  33
ATOM     33  N   UNL     1      29.568 -24.624 -14.852  0.00  0.00    +0.382 N 
ATOM     34  H   UNL     1      29.380 -25.568 -14.514  0.00  0.00    -0.089 HD
ATOM     35  H   UNL     1      29.446 -23.958 -14.090  0.00  0.00    -0.089 HD
ATOM     36  H   UNL     1      30.526 -24.572 -15.199  0.00  0.00    -0.089 HD
ENDBRANCH  32  33
ENDBRANCH  31  32
ENDBRANCH  30  31
ENDBRANCH  29  30
ENDBRANCH  28  29
ENDBRANCH  17  28
TORSDOF 8
ENDMDL
MODEL 7
REMARK VINA RESULT:      -7.4      2.727      8.784
REMARK  Name = 10950142
REMARK  8 active torsions:
REMARK  status: ('A' for Active; 'I' for Inactive)
REMARK    1  A    between atoms: C_6  and  O_24
REMARK    2  A    between atoms: C_6  and  C_35
REMARK    3  A    between atoms: C_17  and  C_27
REMARK    4  A    between atoms: N_26  and  C_27
REMARK    5  A    between atoms: N_26  and  O_28
REMARK    6  A    between atoms: O_28  and  C_29
REMARK    7  A    between atoms: C_29  and  C_30
REMARK    8  A    between atoms: C_30  and  N_31
REMARK                            x       y       z     vdW  Elec       q    Type
REMARK                         _______ _______ _______ _____ _____    ______ ____
ROOT
ATOM      1  O   UNL     1      35.694 -25.461 -13.757  0.00  0.00    -0.442 OA
ATOM      2  O   UNL     1      32.661 -23.772 -16.177  0.00  0.00    -0.270 OA
ATOM      3  O   UNL     1      37.886 -25.936 -13.654  0.00  0.00    -0.247 OA
ATOM      4  N   UNL     1      34.226 -22.608 -17.421  0.00  0.00    -0.249 N 
ATOM      5  N   UNL     1      36.666 -20.767 -19.317  0.00  0.00    -0.405 NA
ATOM      6  C   UNL     1      37.287 -23.852 -14.716  0.00  0.00    +0.196 C 
ATOM      7  C   UNL     1      36.197 -23.448 -15.670  0.00  0.00    +0.017 C 
ATOM      8  C   UNL     1      35.536 -22.205 -17.618  0.00  0.00    +0.084 C 
ATOM      9  C   UNL     1      33.337 -22.053 -18.462  0.00  0.00    +0.127 C 
ATOM     10  C   UNL     1      34.930 -23.844 -15.449  0.00  0.00    +0.074 C 
ATOM     11  C   UNL     1      34.288 -21.265 -19.301  0.00  0.00    +0.023 C 
ATOM     12  C   UNL     1      35.579 -21.356 -18.801  0.00  0.00    +0.142 C 
ATOM     13  C   UNL     1      36.517 -22.583 -16.794  0.00  0.00    +0.016 C 
ATOM     14  C   UNL     1      33.821 -23.416 -16.373  0.00  0.00    +0.252 C 
ATOM     15  C   UNL     1      34.583 -24.700 -14.278  0.00  0.00    +0.239 C 
ATOM     16  C   UNL     1      36.992 -25.173 -14.015  0.00  0.00    +0.346 C 
ATOM     17  C   UNL     1      34.075 -20.508 -20.429  0.00  0.00    -0.014 C 
ATOM     18  C   UNL     1      35.177 -19.865 -21.015  0.00  0.00    +0.094 C 
ATOM     19  C   UNL     1      36.464 -20.023 -20.424  0.00  0.00    +0.116 C 
ATOM     20  C   UNL     1      35.024 -19.079 -22.168  0.00  0.00    -0.015 C 
ATOM     21  C   UNL     1      37.540 -19.378 -21.023  0.00  0.00    +0.028 C 
ATOM     22  C   UNL     1      36.124 -18.447 -22.743  0.00  0.00    -0.004 C 
ATOM     23  C   UNL     1      37.381 -18.597 -22.170  0.00  0.00    +0.002 C 
ENDROOT
BRANCH   6  24
ATOM     24  O   UNL     1      38.497 -24.093 -15.439  0.00  0.00    -0.373 OA
ATOM     25  H   UNL     1      39.212 -24.288 -14.814  0.00  0.00    +0.211 HD
ENDBRANCH   6  24
BRANCH   6  26
ATOM     26  C   UNL     1      37.545 -22.771 -13.664  0.00  0.00    +0.042 C 
ATOM     27  C   UNL     1      37.453 -23.335 -12.261  0.00  0.00    +0.003 C 
ENDBRANCH   6  26
BRANCH  17  28
ATOM     28  C   UNL     1      32.719 -20.406 -20.957  0.00  0.00    +0.144 C 
BRANCH  28  29
ATOM     29  N   UNL     1      31.924 -19.419 -20.668  0.00  0.00    -0.079 NA
BRANCH  29  30
ATOM     30  O   UNL     1      32.664 -18.229 -20.627  0.00  0.00    -0.268 OA
BRANCH  30  31
ATOM     31  C   UNL     1      31.757 -17.141 -20.727  0.00  0.00    +0.145 C 
BRANCH  31  32
ATOM     32  C   UNL     1      32.530 -15.844 -20.559  0.00  0.00    -0.051 C 
BRANCH  32  33
ATOM     33  N   UNL     1      32.666 -15.158 -21.835  0.00  0.00    +0.382 N 
ATOM     34  H   UNL     1      33.601 -15.320 -22.210  0.00  0.00    -0.089 HD
ATOM     35  H   UNL     1      32.522 -14.157 -21.701  0.00  0.00    -0.089 HD
ATOM     36  H   UNL     1      31.971 -15.516 -22.490  0.00  0.00    -0.089 HD
ENDBRANCH  32  33
ENDBRANCH  31  32
ENDBRANCH  30  31
ENDBRANCH  29  30
ENDBRANCH  28  29
ENDBRANCH  17  28
TORSDOF 8
ENDMDL
MODEL 8
REMARK VINA RESULT:      -7.3      1.942      4.775
REMARK  Name = 10950142
REMARK  8 active torsions:
REMARK  status: ('A' for Active; 'I' for Inactive)
REMARK    1  A    between atoms: C_6  and  O_24
REMARK    2  A    between atoms: C_6  and  C_35
REMARK    3  A    between atoms: C_17  and  C_27
REMARK    4  A    between atoms: N_26  and  C_27
REMARK    5  A    between atoms: N_26  and  O_28
REMARK    6  A    between atoms: O_28  and  C_29
REMARK    7  A    between atoms: C_29  and  C_30
REMARK    8  A    between atoms: C_30  and  N_31
REMARK                            x       y       z     vdW  Elec       q    Type
REMARK                         _______ _______ _______ _____ _____    ______ ____
ROOT
ATOM      1  O   UNL     1      33.392 -19.167 -21.115  0.00  0.00    -0.442 OA
ATOM      2  O   UNL     1      31.703 -21.985 -18.448  0.00  0.00    -0.270 OA
ATOM      3  O   UNL     1      35.181 -17.863 -21.492  0.00  0.00    -0.247 OA
ATOM      4  N   UNL     1      33.783 -22.474 -17.562  0.00  0.00    -0.249 N 
ATOM      5  N   UNL     1      37.029 -23.259 -16.224  0.00  0.00    -0.405 NA
ATOM      6  C   UNL     1      35.619 -20.045 -20.556  0.00  0.00    +0.196 C 
ATOM      7  C   UNL     1      34.949 -20.874 -19.495  0.00  0.00    +0.017 C 
ATOM      8  C   UNL     1      35.161 -22.334 -17.597  0.00  0.00    +0.084 C 
ATOM      9  C   UNL     1      33.368 -23.365 -16.459  0.00  0.00    +0.127 C 
ATOM     10  C   UNL     1      33.610 -21.003 -19.490  0.00  0.00    +0.074 C 
ATOM     11  C   UNL     1      34.677 -23.739 -15.846  0.00  0.00    +0.023 C 
ATOM     12  C   UNL     1      35.729 -23.131 -16.519  0.00  0.00    +0.142 C 
ATOM     13  C   UNL     1      35.764 -21.575 -18.516  0.00  0.00    +0.016 C 
ATOM     14  C   UNL     1      32.926 -21.861 -18.458  0.00  0.00    +0.252 C 
ATOM     15  C   UNL     1      32.766 -20.319 -20.511  0.00  0.00    +0.239 C 
ATOM     16  C   UNL     1      34.724 -18.927 -21.078  0.00  0.00    +0.346 C 
ATOM     17  C   UNL     1      34.969 -24.551 -14.775  0.00  0.00    -0.014 C 
ATOM     18  C   UNL     1      36.316 -24.724 -14.420  0.00  0.00    +0.094 C 
ATOM     19  C   UNL     1      37.321 -24.055 -15.175  0.00  0.00    +0.116 C 
ATOM     20  C   UNL     1      36.677 -25.541 -13.336  0.00  0.00    -0.015 C 
ATOM     21  C   UNL     1      38.648 -24.241 -14.803  0.00  0.00    +0.028 C 
ATOM     22  C   UNL     1      38.016 -25.704 -12.991  0.00  0.00    -0.004 C 
ATOM     23  C   UNL     1      39.000 -25.054 -13.724  0.00  0.00    +0.002 C 
ENDROOT
BRANCH   6  24
ATOM     24  O   UNL     1      36.748 -19.368 -19.998  0.00  0.00    -0.373 OA
ATOM     25  H   UNL     1      37.371 -19.141 -20.705  0.00  0.00    +0.211 HD
ENDBRANCH   6  24
BRANCH   6  26
ATOM     26  C   UNL     1      36.088 -20.906 -21.731  0.00  0.00    +0.042 C 
ATOM     27  C   UNL     1      35.638 -20.321 -23.054  0.00  0.00    +0.003 C 
ENDBRANCH   6  26
BRANCH  17  28
ATOM     28  C   UNL     1      33.868 -25.195 -14.067  0.00  0.00    +0.144 C 
BRANCH  28  29
ATOM     29  N   UNL     1      33.142 -24.575 -13.184  0.00  0.00    -0.079 NA
BRANCH  29  30
ATOM     30  O   UNL     1      31.858 -25.138 -13.168  0.00  0.00    -0.268 OA
BRANCH  30  31
ATOM     31  C   UNL     1      30.982 -24.262 -13.861  0.00  0.00    +0.145 C 
BRANCH  31  32
ATOM     32  C   UNL     1      30.217 -25.059 -14.903  0.00  0.00    -0.051 C 
BRANCH  32  33
ATOM     33  N   UNL     1      28.985 -25.592 -14.340  0.00  0.00    +0.382 N 
ATOM     34  H   UNL     1      28.994 -26.610 -14.407  0.00  0.00    -0.089 HD
ATOM     35  H   UNL     1      28.187 -25.224 -14.857  0.00  0.00    -0.089 HD
ATOM     36  H   UNL     1      28.912 -25.317 -13.360  0.00  0.00    -0.089 HD
ENDBRANCH  32  33
ENDBRANCH  31  32
ENDBRANCH  30  31
ENDBRANCH  29  30
ENDBRANCH  28  29
ENDBRANCH  17  28
TORSDOF 8
ENDMDL
MODEL 9
REMARK VINA RESULT:      -7.1      6.066     11.428
REMARK  Name = 10950142
REMARK  8 active torsions:
REMARK  status: ('A' for Active; 'I' for Inactive)
REMARK    1  A    between atoms: C_6  and  O_24
REMARK    2  A    between atoms: C_6  and  C_35
REMARK    3  A    between atoms: C_17  and  C_27
REMARK    4  A    between atoms: N_26  and  C_27
REMARK    5  A    between atoms: N_26  and  O_28
REMARK    6  A    between atoms: O_28  and  C_29
REMARK    7  A    between atoms: C_29  and  C_30
REMARK    8  A    between atoms: C_30  and  N_31
REMARK                            x       y       z     vdW  Elec       q    Type
REMARK                         _______ _______ _______ _____ _____    ______ ____
ROOT
ATOM      1  O   UNL     1      35.677 -20.172 -22.983  0.00  0.00    -0.442 OA
ATOM      2  O   UNL     1      34.865 -16.810 -25.423  0.00  0.00    -0.270 OA
ATOM      3  O   UNL     1      36.008 -20.847 -20.868  0.00  0.00    -0.247 OA
ATOM      4  N   UNL     1      34.027 -15.634 -23.617  0.00  0.00    -0.249 N 
ATOM      5  N   UNL     1      32.684 -13.831 -20.809  0.00  0.00    -0.405 NA
ATOM      6  C   UNL     1      34.331 -19.142 -21.202  0.00  0.00    +0.196 C 
ATOM      7  C   UNL     1      34.258 -17.912 -22.064  0.00  0.00    +0.017 C 
ATOM      8  C   UNL     1      33.638 -15.601 -22.288  0.00  0.00    +0.084 C 
ATOM      9  C   UNL     1      33.824 -14.320 -24.262  0.00  0.00    +0.127 C 
ATOM     10  C   UNL     1      34.632 -17.974 -23.355  0.00  0.00    +0.074 C 
ATOM     11  C   UNL     1      33.261 -13.504 -23.146  0.00  0.00    +0.023 C 
ATOM     12  C   UNL     1      33.152 -14.261 -21.988  0.00  0.00    +0.142 C 
ATOM     13  C   UNL     1      33.729 -16.679 -21.505  0.00  0.00    +0.016 C 
ATOM     14  C   UNL     1      34.528 -16.761 -24.242  0.00  0.00    +0.252 C 
ATOM     15  C   UNL     1      35.141 -19.242 -23.950  0.00  0.00    +0.239 C 
ATOM     16  C   UNL     1      35.416 -20.111 -21.656  0.00  0.00    +0.346 C 
ATOM     17  C   UNL     1      32.858 -12.190 -23.109  0.00  0.00    -0.014 C 
ATOM     18  C   UNL     1      32.357 -11.682 -21.899  0.00  0.00    +0.094 C 
ATOM     19  C   UNL     1      32.287 -12.542 -20.766  0.00  0.00    +0.116 C 
ATOM     20  C   UNL     1      31.932 -10.348 -21.798  0.00  0.00    -0.015 C 
ATOM     21  C   UNL     1      31.789 -12.017 -19.579  0.00  0.00    +0.028 C 
ATOM     22  C   UNL     1      31.438  -9.855 -20.593  0.00  0.00    -0.004 C 
ATOM     23  C   UNL     1      31.367 -10.689 -19.485  0.00  0.00    +0.002 C 
ENDROOT
BRANCH   6  24
ATOM     24  O   UNL     1      34.712 -18.777 -19.872  0.00  0.00    -0.373 OA
ATOM     25  H   UNL     1      35.223 -17.954 -19.897  0.00  0.00    +0.211 HD
ENDBRANCH   6  24
BRANCH   6  26
ATOM     26  C   UNL     1      32.990 -19.876 -21.150  0.00  0.00    +0.042 C 
ATOM     27  C   UNL     1      32.896 -20.765 -19.927  0.00  0.00    +0.003 C 
ENDBRANCH   6  26
BRANCH  17  28
ATOM     28  C   UNL     1      32.967 -11.391 -24.324  0.00  0.00    +0.144 C 
BRANCH  28  29
ATOM     29  N   UNL     1      34.082 -11.257 -24.980  0.00  0.00    -0.079 NA
BRANCH  29  30
ATOM     30  O   UNL     1      33.813 -11.288 -26.356  0.00  0.00    -0.268 OA
BRANCH  30  31
ATOM     31  C   UNL     1      33.946 -12.629 -26.802  0.00  0.00    +0.145 C 
BRANCH  31  32
ATOM     32  C   UNL     1      32.630 -13.070 -27.420  0.00  0.00    -0.051 C 
BRANCH  32  33
ATOM     33  N   UNL     1      32.130 -14.269 -26.764  0.00  0.00    +0.382 N 
ATOM     34  H   UNL     1      31.334 -14.027 -26.174  0.00  0.00    -0.089 HD
ATOM     35  H   UNL     1      32.868 -14.675 -26.189  0.00  0.00    -0.089 HD
ATOM     36  H   UNL     1      31.837 -14.946 -27.469  0.00  0.00    -0.089 HD
ENDBRANCH  32  33
ENDBRANCH  31  32
ENDBRANCH  30  31
ENDBRANCH  29  30
ENDBRANCH  28  29
ENDBRANCH  17  28
TORSDOF 8
ENDMDL
