MODEL 1
REMARK VINA RESULT:      -9.6      0.000      0.000
REMARK  Name = 5733
REMARK  5 active torsions:
REMARK  status: ('A' for Active; 'I' for Inactive)
REMARK    1  A    between atoms: C_2  and  C_9
REMARK    2  A    between atoms: C_3  and  C_17
REMARK    3  A    between atoms: C_9  and  C_11
REMARK    4  A    between atoms: C_17  and  C_19
REMARK    5  A    between atoms: C_19  and  O_20
REMARK                            x       y       z     vdW  Elec       q    Type
REMARK                         _______ _______ _______ _____ _____    ______ ____
ROOT
ATOM      1  N   UNL     1      34.678 -16.740 -23.292  0.00  0.00    -0.286 N 
ATOM      2  C   UNL     1      35.089 -18.020 -23.297  0.00  0.00    +0.087 C 
ATOM      3  C   UNL     1      34.078 -16.486 -24.498  0.00  0.00    +0.040 C 
ATOM      4  C   UNL     1      34.783 -18.624 -24.464  0.00  0.00    -0.004 C 
ATOM      5  C   UNL     1      34.129 -17.640 -25.247  0.00  0.00    +0.008 C 
ATOM      6  C   UNL     1      34.831 -15.782 -22.218  0.00  0.00    +0.117 C 
ATOM      7  C   UNL     1      35.054 -20.016 -24.875  0.00  0.00    +0.032 C 
ENDROOT
BRANCH   2   9
ATOM      8  O   UNL     1      36.979 -18.397 -21.906  0.00  0.00    -0.285 OA
ATOM      9  C   UNL     1      35.783 -18.638 -22.146  0.00  0.00    +0.209 C 
BRANCH   9  11
ATOM     10 CL   UNL     1      32.919 -22.329 -18.438  0.00  0.00    -0.082 Cl
ATOM     11  C   UNL     1      35.085 -19.538 -21.242  0.00  0.00    +0.040 C 
ATOM     12  C   UNL     1      33.694 -19.487 -21.144  0.00  0.00    +0.004 C 
ATOM     13  C   UNL     1      35.805 -20.451 -20.473  0.00  0.00    +0.004 C 
ATOM     14  C   UNL     1      33.024 -20.350 -20.276  0.00  0.00    +0.011 C 
ATOM     15  C   UNL     1      35.136 -21.313 -19.605  0.00  0.00    +0.011 C 
ATOM     16  C   UNL     1      33.745 -21.263 -19.507  0.00  0.00    +0.058 C 
ENDBRANCH   9  11
ENDBRANCH   2   9
BRANCH   3  17
ATOM     17  C   UNL     1      33.507 -15.165 -24.833  0.00  0.00    +0.150 C 
BRANCH  17  19
ATOM     18  O   UNL     1      33.745 -14.329 -27.093  0.00  0.00    -0.250 OA
ATOM     19  C   UNL     1      33.191 -15.094 -26.313  0.00  0.00    +0.320 C 
BRANCH  19  20
ATOM     20  O   UNL     1      32.193 -15.935 -26.682  0.00  0.00    -0.480 OA
ATOM     21  H   UNL     1      31.528 -16.174 -26.066  0.00  0.00    +0.295 HD
ENDBRANCH  19  20
ENDBRANCH  17  19
ENDBRANCH   3  17
TORSDOF 5
ENDMDL
MODEL 2
REMARK VINA RESULT:      -9.3      1.291      1.958
REMARK  Name = 5733
REMARK  5 active torsions:
REMARK  status: ('A' for Active; 'I' for Inactive)
REMARK    1  A    between atoms: C_2  and  C_9
REMARK    2  A    between atoms: C_3  and  C_17
REMARK    3  A    between atoms: C_9  and  C_11
REMARK    4  A    between atoms: C_17  and  C_19
REMARK    5  A    between atoms: C_19  and  O_20
REMARK                            x       y       z     vdW  Elec       q    Type
REMARK                         _______ _______ _______ _____ _____    ______ ____
ROOT
ATOM      1  N   UNL     1      34.630 -16.415 -22.052  0.00  0.00    -0.286 N 
ATOM      2  C   UNL     1      35.058 -17.579 -22.571  0.00  0.00    +0.087 C 
ATOM      3  C   UNL     1      33.959 -15.737 -23.037  0.00  0.00    +0.040 C 
ATOM      4  C   UNL     1      34.693 -17.697 -23.865  0.00  0.00    -0.004 C 
ATOM      5  C   UNL     1      33.983 -16.511 -24.175  0.00  0.00    +0.008 C 
ATOM      6  C   UNL     1      34.831 -15.940 -20.700  0.00  0.00    +0.117 C 
ATOM      7  C   UNL     1      34.959 -18.814 -24.795  0.00  0.00    +0.032 C 
ENDROOT
BRANCH   2   9
ATOM      8  O   UNL     1      37.067 -18.577 -21.788  0.00  0.00    -0.285 OA
ATOM      9  C   UNL     1      35.824 -18.569 -21.784  0.00  0.00    +0.209 C 
BRANCH   9  11
ATOM     10 CL   UNL     1      33.055 -22.630 -18.404  0.00  0.00    -0.082 Cl
ATOM     11  C   UNL     1      35.149 -19.559 -20.960  0.00  0.00    +0.040 C 
ATOM     12  C   UNL     1      35.894 -20.499 -20.247  0.00  0.00    +0.004 C 
ATOM     13  C   UNL     1      33.756 -19.570 -20.882  0.00  0.00    +0.004 C 
ATOM     14  C   UNL     1      35.247 -21.449 -19.457  0.00  0.00    +0.011 C 
ATOM     15  C   UNL     1      33.109 -20.520 -20.093  0.00  0.00    +0.011 C 
ATOM     16  C   UNL     1      33.854 -21.460 -19.380  0.00  0.00    +0.058 C 
ENDBRANCH   9  11
ENDBRANCH   2   9
BRANCH   3  17
ATOM     17  C   UNL     1      33.353 -14.409 -22.807  0.00  0.00    +0.150 C 
BRANCH  17  19
ATOM     18  O   UNL     1      32.754 -13.862 -25.088  0.00  0.00    -0.250 OA
ATOM     19  C   UNL     1      33.395 -13.590 -24.081  0.00  0.00    +0.320 C 
BRANCH  19  20
ATOM     20  O   UNL     1      34.256 -12.545 -24.011  0.00  0.00    -0.480 OA
ATOM     21  H   UNL     1      34.714 -12.366 -23.212  0.00  0.00    +0.295 HD
ENDBRANCH  19  20
ENDBRANCH  17  19
ENDBRANCH   3  17
TORSDOF 5
ENDMDL
MODEL 3
REMARK VINA RESULT:      -9.3      5.903      9.695
REMARK  Name = 5733
REMARK  5 active torsions:
REMARK  status: ('A' for Active; 'I' for Inactive)
REMARK    1  A    between atoms: C_2  and  C_9
REMARK    2  A    between atoms: C_3  and  C_17
REMARK    3  A    between atoms: C_9  and  C_11
REMARK    4  A    between atoms: C_17  and  C_19
REMARK    5  A    between atoms: C_19  and  O_20
REMARK                            x       y       z     vdW  Elec       q    Type
REMARK                         _______ _______ _______ _____ _____    ______ ____
ROOT
ATOM      1  N   UNL     1      32.467 -23.192 -16.306  0.00  0.00    -0.286 N 
ATOM      2  C   UNL     1      33.661 -23.165 -16.924  0.00  0.00    +0.087 C 
ATOM      3  C   UNL     1      32.690 -23.120 -14.955  0.00  0.00    +0.040 C 
ATOM      4  C   UNL     1      34.668 -23.078 -16.030  0.00  0.00    -0.004 C 
ATOM      5  C   UNL     1      34.050 -23.048 -14.755  0.00  0.00    +0.008 C 
ATOM      6  C   UNL     1      31.166 -23.281 -16.934  0.00  0.00    +0.117 C 
ATOM      7  C   UNL     1      36.121 -23.022 -16.288  0.00  0.00    +0.032 C 
ENDROOT
BRANCH   2   9
ATOM      8  O   UNL     1      33.713 -24.303 -19.009  0.00  0.00    -0.285 OA
ATOM      9  C   UNL     1      33.799 -23.226 -18.395  0.00  0.00    +0.209 C 
BRANCH   9  11
ATOM     10 CL   UNL     1      34.714 -18.288 -21.612  0.00  0.00    -0.082 Cl
ATOM     11  C   UNL     1      34.022 -22.022 -19.179  0.00  0.00    +0.040 C 
ATOM     12  C   UNL     1      32.939 -21.236 -19.574  0.00  0.00    +0.004 C 
ATOM     13  C   UNL     1      35.318 -21.654 -19.538  0.00  0.00    +0.004 C 
ATOM     14  C   UNL     1      33.153 -20.081 -20.326  0.00  0.00    +0.011 C 
ATOM     15  C   UNL     1      35.532 -20.500 -20.291  0.00  0.00    +0.011 C 
ATOM     16  C   UNL     1      34.449 -19.713 -20.685  0.00  0.00    +0.058 C 
ENDBRANCH   9  11
ENDBRANCH   2   9
BRANCH   3  17
ATOM     17  C   UNL     1      31.587 -23.126 -13.972  0.00  0.00    +0.150 C 
BRANCH  17  19
ATOM     18  O   UNL     1      31.715 -25.539 -14.118  0.00  0.00    -0.250 OA
ATOM     19  C   UNL     1      31.268 -24.548 -13.555  0.00  0.00    +0.320 C 
BRANCH  19  20
ATOM     20  O   UNL     1      30.396 -24.613 -12.519  0.00  0.00    -0.480 OA
ATOM     21  H   UNL     1      29.535 -24.252 -12.606  0.00  0.00    +0.295 HD
ENDBRANCH  19  20
ENDBRANCH  17  19
ENDBRANCH   3  17
TORSDOF 5
ENDMDL
MODEL 4
REMARK VINA RESULT:      -9.3      5.607      9.542
REMARK  Name = 5733
REMARK  5 active torsions:
REMARK  status: ('A' for Active; 'I' for Inactive)
REMARK    1  A    between atoms: C_2  and  C_9
REMARK    2  A    between atoms: C_3  and  C_17
REMARK    3  A    between atoms: C_9  and  C_11
REMARK    4  A    between atoms: C_17  and  C_19
REMARK    5  A    between atoms: C_19  and  O_20
REMARK                            x       y       z     vdW  Elec       q    Type
REMARK                         _______ _______ _______ _____ _____    ______ ____
ROOT
ATOM      1  N   UNL     1      32.966 -23.125 -16.560  0.00  0.00    -0.286 N 
ATOM      2  C   UNL     1      34.081 -22.935 -17.288  0.00  0.00    +0.087 C 
ATOM      3  C   UNL     1      33.315 -23.079 -15.235  0.00  0.00    +0.040 C 
ATOM      4  C   UNL     1      35.157 -22.764 -16.492  0.00  0.00    -0.004 C 
ATOM      5  C   UNL     1      34.672 -22.856 -15.164  0.00  0.00    +0.008 C 
ATOM      6  C   UNL     1      31.626 -23.342 -17.063  0.00  0.00    +0.117 C 
ATOM      7  C   UNL     1      36.561 -22.528 -16.886  0.00  0.00    +0.032 C 
ENDROOT
BRANCH   2   9
ATOM      8  O   UNL     1      33.990 -23.975 -19.422  0.00  0.00    -0.285 OA
ATOM      9  C   UNL     1      34.074 -22.923 -18.766  0.00  0.00    +0.209 C 
BRANCH   9  11
ATOM     10 CL   UNL     1      34.375 -17.801 -21.810  0.00  0.00    -0.082 Cl
ATOM     11  C   UNL     1      34.148 -21.674 -19.508  0.00  0.00    +0.040 C 
ATOM     12  C   UNL     1      35.384 -21.180 -19.923  0.00  0.00    +0.004 C 
ATOM     13  C   UNL     1      32.981 -20.969 -19.805  0.00  0.00    +0.004 C 
ATOM     14  C   UNL     1      35.456 -19.983 -20.634  0.00  0.00    +0.011 C 
ATOM     15  C   UNL     1      33.052 -19.772 -20.516  0.00  0.00    +0.011 C 
ATOM     16  C   UNL     1      34.289 -19.278 -20.931  0.00  0.00    +0.058 C 
ENDBRANCH   9  11
ENDBRANCH   2   9
BRANCH   3  17
ATOM     17  C   UNL     1      32.326 -23.252 -14.152  0.00  0.00    +0.150 C 
BRANCH  17  19
ATOM     18  O   UNL     1      31.416 -25.495 -14.100  0.00  0.00    -0.250 OA
ATOM     19  C   UNL     1      32.272 -24.704 -13.722  0.00  0.00    +0.320 C 
BRANCH  19  20
ATOM     20  O   UNL     1      33.244 -25.031 -12.835  0.00  0.00    -0.480 OA
ATOM     21  H   UNL     1      34.109 -25.227 -13.137  0.00  0.00    +0.295 HD
ENDBRANCH  19  20
ENDBRANCH  17  19
ENDBRANCH   3  17
TORSDOF 5
ENDMDL
MODEL 5
REMARK VINA RESULT:      -9.1      0.976      2.152
REMARK  Name = 5733
REMARK  5 active torsions:
REMARK  status: ('A' for Active; 'I' for Inactive)
REMARK    1  A    between atoms: C_2  and  C_9
REMARK    2  A    between atoms: C_3  and  C_17
REMARK    3  A    between atoms: C_9  and  C_11
REMARK    4  A    between atoms: C_17  and  C_19
REMARK    5  A    between atoms: C_19  and  O_20
REMARK                            x       y       z     vdW  Elec       q    Type
REMARK                         _______ _______ _______ _____ _____    ______ ____
ROOT
ATOM      1  N   UNL     1      34.420 -16.993 -24.166  0.00  0.00    -0.286 N 
ATOM      2  C   UNL     1      34.821 -16.993 -22.883  0.00  0.00    +0.087 C 
ATOM      3  C   UNL     1      33.715 -15.838 -24.387  0.00  0.00    +0.040 C 
ATOM      4  C   UNL     1      34.408 -15.878 -22.246  0.00  0.00    -0.004 C 
ATOM      5  C   UNL     1      33.692 -15.125 -23.210  0.00  0.00    +0.008 C 
ATOM      6  C   UNL     1      34.672 -18.019 -25.156  0.00  0.00    +0.117 C 
ATOM      7  C   UNL     1      34.635 -15.488 -20.839  0.00  0.00    +0.032 C 
ENDROOT
BRANCH   2   9
ATOM      8  O   UNL     1      36.831 -18.205 -22.511  0.00  0.00    -0.285 OA
ATOM      9  C   UNL     1      35.611 -18.096 -22.296  0.00  0.00    +0.209 C 
BRANCH   9  11
ATOM     10 CL   UNL     1      33.074 -22.151 -18.733  0.00  0.00    -0.082 Cl
ATOM     11  C   UNL     1      34.992 -19.085 -21.427  0.00  0.00    +0.040 C 
ATOM     12  C   UNL     1      33.604 -19.136 -21.306  0.00  0.00    +0.004 C 
ATOM     13  C   UNL     1      35.788 -19.981 -20.714  0.00  0.00    +0.004 C 
ATOM     14  C   UNL     1      33.010 -20.084 -20.473  0.00  0.00    +0.011 C 
ATOM     15  C   UNL     1      35.194 -20.929 -19.880  0.00  0.00    +0.011 C 
ATOM     16  C   UNL     1      33.805 -20.981 -19.759  0.00  0.00    +0.058 C 
ENDBRANCH   9  11
ENDBRANCH   2   9
BRANCH   3  17
ATOM     17  C   UNL     1      33.124 -15.513 -25.702  0.00  0.00    +0.150 C 
BRANCH  17  19
ATOM     18  O   UNL     1      33.382 -13.138 -25.314  0.00  0.00    -0.250 OA
ATOM     19  C   UNL     1      33.458 -14.086 -26.085  0.00  0.00    +0.320 C 
BRANCH  19  20
ATOM     20  O   UNL     1      33.807 -13.955 -27.389  0.00  0.00    -0.480 OA
ATOM     21  H   UNL     1      33.626 -14.647 -27.995  0.00  0.00    +0.295 HD
ENDBRANCH  19  20
ENDBRANCH  17  19
ENDBRANCH   3  17
TORSDOF 5
ENDMDL
MODEL 6
REMARK VINA RESULT:      -8.8      1.864      3.034
REMARK  Name = 5733
REMARK  5 active torsions:
REMARK  status: ('A' for Active; 'I' for Inactive)
REMARK    1  A    between atoms: C_2  and  C_9
REMARK    2  A    between atoms: C_3  and  C_17
REMARK    3  A    between atoms: C_9  and  C_11
REMARK    4  A    between atoms: C_17  and  C_19
REMARK    5  A    between atoms: C_19  and  O_20
REMARK                            x       y       z     vdW  Elec       q    Type
REMARK                         _______ _______ _______ _____ _____    ______ ____
ROOT
ATOM      1  N   UNL     1      34.186 -16.039 -23.768  0.00  0.00    -0.286 N 
ATOM      2  C   UNL     1      34.631 -16.638 -22.649  0.00  0.00    +0.087 C 
ATOM      3  C   UNL     1      33.750 -14.784 -23.429  0.00  0.00    +0.040 C 
ATOM      4  C   UNL     1      34.507 -15.824 -21.581  0.00  0.00    -0.004 C 
ATOM      5  C   UNL     1      33.939 -14.624 -22.074  0.00  0.00    +0.008 C 
ATOM      6  C   UNL     1      34.159 -16.600 -25.102  0.00  0.00    +0.117 C 
ATOM      7  C   UNL     1      34.876 -16.092 -20.176  0.00  0.00    +0.032 C 
ENDROOT
BRANCH   2   9
ATOM      8  O   UNL     1      36.066 -18.358 -23.441  0.00  0.00    -0.285 OA
ATOM      9  C   UNL     1      35.177 -18.012 -22.645  0.00  0.00    +0.209 C 
BRANCH   9  11
ATOM     10 CL   UNL     1      33.238 -22.087 -18.744  0.00  0.00    -0.082 Cl
ATOM     11  C   UNL     1      34.704 -19.006 -21.694  0.00  0.00    +0.040 C 
ATOM     12  C   UNL     1      35.619 -19.788 -20.989  0.00  0.00    +0.004 C 
ATOM     13  C   UNL     1      33.336 -19.178 -21.487  0.00  0.00    +0.004 C 
ATOM     14  C   UNL     1      35.166 -20.741 -20.077  0.00  0.00    +0.011 C 
ATOM     15  C   UNL     1      32.882 -20.131 -20.576  0.00  0.00    +0.011 C 
ATOM     16  C   UNL     1      33.798 -20.913 -19.870  0.00  0.00    +0.058 C 
ENDBRANCH   9  11
ENDBRANCH   2   9
BRANCH   3  17
ATOM     17  C   UNL     1      33.193 -13.846 -24.425  0.00  0.00    +0.150 C 
BRANCH  17  19
ATOM     18  O   UNL     1      32.665 -11.842 -23.175  0.00  0.00    -0.250 OA
ATOM     19  C   UNL     1      33.400 -12.417 -23.968  0.00  0.00    +0.320 C 
BRANCH  19  20
ATOM     20  O   UNL     1      34.461 -11.819 -24.565  0.00  0.00    -0.480 OA
ATOM     21  H   UNL     1      35.145 -12.340 -24.938  0.00  0.00    +0.295 HD
ENDBRANCH  19  20
ENDBRANCH  17  19
ENDBRANCH   3  17
TORSDOF 5
ENDMDL
MODEL 7
REMARK VINA RESULT:      -8.8      5.880      9.872
REMARK  Name = 5733
REMARK  5 active torsions:
REMARK  status: ('A' for Active; 'I' for Inactive)
REMARK    1  A    between atoms: C_2  and  C_9
REMARK    2  A    between atoms: C_3  and  C_17
REMARK    3  A    between atoms: C_9  and  C_11
REMARK    4  A    between atoms: C_17  and  C_19
REMARK    5  A    between atoms: C_19  and  O_20
REMARK                            x       y       z     vdW  Elec       q    Type
REMARK                         _______ _______ _______ _____ _____    ______ ____
ROOT
ATOM      1  N   UNL     1      34.746 -23.233 -16.095  0.00  0.00    -0.286 N 
ATOM      2  C   UNL     1      33.670 -23.230 -16.901  0.00  0.00    +0.087 C 
ATOM      3  C   UNL     1      34.302 -23.197 -14.799  0.00  0.00    +0.040 C 
ATOM      4  C   UNL     1      32.528 -23.195 -16.184  0.00  0.00    -0.004 C 
ATOM      5  C   UNL     1      32.926 -23.173 -14.825  0.00  0.00    +0.008 C 
ATOM      6  C   UNL     1      36.135 -23.266 -16.501  0.00  0.00    +0.117 C 
ATOM      7  C   UNL     1      31.135 -23.181 -16.677  0.00  0.00    +0.032 C 
ENDROOT
BRANCH   2   9
ATOM      8  O   UNL     1      33.703 -24.332 -19.006  0.00  0.00    -0.285 OA
ATOM      9  C   UNL     1      33.778 -23.263 -18.375  0.00  0.00    +0.209 C 
BRANCH   9  11
ATOM     10 CL   UNL     1      34.516 -18.254 -21.528  0.00  0.00    -0.082 Cl
ATOM     11  C   UNL     1      33.958 -22.042 -19.144  0.00  0.00    +0.040 C 
ATOM     12  C   UNL     1      32.850 -21.276 -19.506  0.00  0.00    +0.004 C 
ATOM     13  C   UNL     1      35.238 -21.637 -19.520  0.00  0.00    +0.004 C 
ATOM     14  C   UNL     1      33.022 -20.104 -20.243  0.00  0.00    +0.011 C 
ATOM     15  C   UNL     1      35.410 -20.466 -20.258  0.00  0.00    +0.011 C 
ATOM     16  C   UNL     1      34.302 -19.699 -20.619  0.00  0.00    +0.058 C 
ENDBRANCH   9  11
ENDBRANCH   2   9
BRANCH   3  17
ATOM     17  C   UNL     1      35.228 -23.189 -13.647  0.00  0.00    +0.150 C 
BRANCH  17  19
ATOM     18  O   UNL     1      34.812 -24.732 -11.830  0.00  0.00    -0.250 OA
ATOM     19  C   UNL     1      35.225 -24.542 -12.967  0.00  0.00    +0.320 C 
BRANCH  19  20
ATOM     20  O   UNL     1      35.773 -25.520 -13.730  0.00  0.00    -0.480 OA
ATOM     21  H   UNL     1      36.257 -25.298 -14.502  0.00  0.00    +0.295 HD
ENDBRANCH  19  20
ENDBRANCH  17  19
ENDBRANCH   3  17
TORSDOF 5
ENDMDL
MODEL 8
REMARK VINA RESULT:      -8.7      5.318      9.095
REMARK  Name = 5733
REMARK  5 active torsions:
REMARK  status: ('A' for Active; 'I' for Inactive)
REMARK    1  A    between atoms: C_2  and  C_9
REMARK    2  A    between atoms: C_3  and  C_17
REMARK    3  A    between atoms: C_9  and  C_11
REMARK    4  A    between atoms: C_17  and  C_19
REMARK    5  A    between atoms: C_19  and  O_20
REMARK                            x       y       z     vdW  Elec       q    Type
REMARK                         _______ _______ _______ _____ _____    ______ ____
ROOT
ATOM      1  N   UNL     1      35.743 -22.504 -17.096  0.00  0.00    -0.286 N 
ATOM      2  C   UNL     1      34.522 -22.743 -17.606  0.00  0.00    +0.087 C 
ATOM      3  C   UNL     1      35.672 -22.673 -15.737  0.00  0.00    +0.040 C 
ATOM      4  C   UNL     1      33.644 -23.066 -16.633  0.00  0.00    -0.004 C 
ATOM      5  C   UNL     1      34.378 -23.024 -15.422  0.00  0.00    +0.008 C 
ATOM      6  C   UNL     1      36.933 -22.130 -17.830  0.00  0.00    +0.117 C 
ATOM      7  C   UNL     1      32.212 -23.401 -16.765  0.00  0.00    +0.032 C 
ENDROOT
BRANCH   2   9
ATOM      8  O   UNL     1      33.987 -23.664 -19.730  0.00  0.00    -0.285 OA
ATOM      9  C   UNL     1      34.231 -22.650 -19.053  0.00  0.00    +0.209 C 
BRANCH   9  11
ATOM     10 CL   UNL     1      34.110 -17.380 -21.844  0.00  0.00    -0.082 Cl
ATOM     11  C   UNL     1      34.201 -21.366 -19.733  0.00  0.00    +0.040 C 
ATOM     12  C   UNL     1      32.989 -20.702 -19.919  0.00  0.00    +0.004 C 
ATOM     13  C   UNL     1      35.386 -20.797 -20.201  0.00  0.00    +0.004 C 
ATOM     14  C   UNL     1      32.960 -19.470 -20.572  0.00  0.00    +0.011 C 
ATOM     15  C   UNL     1      35.357 -19.565 -20.854  0.00  0.00    +0.011 C 
ATOM     16  C   UNL     1      34.144 -18.901 -21.040  0.00  0.00    +0.058 C 
ENDBRANCH   9  11
ENDBRANCH   2   9
BRANCH   3  17
ATOM     17  C   UNL     1      36.844 -22.487 -14.857  0.00  0.00    +0.150 C 
BRANCH  17  19
ATOM     18  O   UNL     1      37.208 -24.674 -13.883  0.00  0.00    -0.250 OA
ATOM     19  C   UNL     1      37.568 -23.805 -14.668  0.00  0.00    +0.320 C 
BRANCH  19  20
ATOM     20  O   UNL     1      38.689 -23.906 -15.424  0.00  0.00    -0.480 OA
ATOM     21  H   UNL     1      39.189 -24.700 -15.419  0.00  0.00    +0.295 HD
ENDBRANCH  19  20
ENDBRANCH  17  19
ENDBRANCH   3  17
TORSDOF 5
ENDMDL
MODEL 9
REMARK VINA RESULT:      -8.5      9.314     12.119
REMARK  Name = 5733
REMARK  5 active torsions:
REMARK  status: ('A' for Active; 'I' for Inactive)
REMARK    1  A    between atoms: C_2  and  C_9
REMARK    2  A    between atoms: C_3  and  C_17
REMARK    3  A    between atoms: C_9  and  C_11
REMARK    4  A    between atoms: C_17  and  C_19
REMARK    5  A    between atoms: C_19  and  O_20
REMARK                            x       y       z     vdW  Elec       q    Type
REMARK                         _______ _______ _______ _____ _____    ______ ____
ROOT
ATOM      1  N   UNL     1      37.298 -25.432 -13.823  0.00  0.00    -0.286 N 
ATOM      2  C   UNL     1      36.546 -24.543 -13.151  0.00  0.00    +0.087 C 
ATOM      3  C   UNL     1      38.577 -25.356 -13.335  0.00  0.00    +0.040 C 
ATOM      4  C   UNL     1      37.280 -23.881 -12.233  0.00  0.00    -0.004 C 
ATOM      5  C   UNL     1      38.594 -24.400 -12.344  0.00  0.00    +0.008 C 
ATOM      6  C   UNL     1      36.859 -26.319 -14.880  0.00  0.00    +0.117 C 
ATOM      7  C   UNL     1      36.842 -22.831 -11.291  0.00  0.00    +0.032 C 
ENDROOT
BRANCH   2   9
ATOM      8  O   UNL     1      34.246 -24.612 -12.560  0.00  0.00    -0.285 OA
ATOM      9  C   UNL     1      35.104 -24.354 -13.421  0.00  0.00    +0.209 C 
BRANCH   9  11
ATOM     10 CL   UNL     1      33.196 -22.251 -18.667  0.00  0.00    -0.082 Cl
ATOM     11  C   UNL     1      34.639 -23.841 -14.700  0.00  0.00    +0.040 C 
ATOM     12  C   UNL     1      35.545 -23.269 -15.593  0.00  0.00    +0.004 C 
ATOM     13  C   UNL     1      33.287 -23.921 -15.033  0.00  0.00    +0.004 C 
ATOM     14  C   UNL     1      35.099 -22.777 -16.820  0.00  0.00    +0.011 C 
ATOM     15  C   UNL     1      32.841 -23.429 -16.259  0.00  0.00    +0.011 C 
ATOM     16  C   UNL     1      33.747 -22.857 -17.153  0.00  0.00    +0.058 C 
ENDBRANCH   9  11
ENDBRANCH   2   9
BRANCH   3  17
ATOM     17  C   UNL     1      39.671 -26.202 -13.854  0.00  0.00    +0.150 C 
BRANCH  17  19
ATOM     18  O   UNL     1      41.182 -24.466 -14.604  0.00  0.00    -0.250 OA
ATOM     19  C   UNL     1      40.484 -25.434 -14.877  0.00  0.00    +0.320 C 
BRANCH  19  20
ATOM     20  O   UNL     1      40.321 -25.900 -16.140  0.00  0.00    -0.480 OA
ATOM     21  H   UNL     1      40.674 -25.422 -16.865  0.00  0.00    +0.295 HD
ENDBRANCH  19  20
ENDBRANCH  17  19
ENDBRANCH   3  17
TORSDOF 5
ENDMDL
