MODEL 1
REMARK VINA RESULT:      -7.8      0.000      0.000
REMARK  Name = 446325
REMARK  6 active torsions:
REMARK  status: ('A' for Active; 'I' for Inactive)
REMARK    1  A    between atoms: C_1  and  N_13
REMARK    2  A    between atoms: C_2  and  N_8
REMARK    3  A    between atoms: C_4  and  C_22
REMARK    4  A    between atoms: C_14  and  C_16
REMARK    5  A    between atoms: C_16  and  N_17
REMARK    6  A    between atoms: C_22  and  O_23
REMARK                            x       y       z     vdW  Elec       q    Type
REMARK                         _______ _______ _______ _____ _____    ______ ____
ROOT
ATOM      1  C   UNL     1      33.807 -14.023 -22.714  0.00  0.00    +0.064 C 
ATOM      2  C   UNL     1      32.691 -14.010 -21.877  0.00  0.00    +0.064 C 
ATOM      3  C   UNL     1      34.686 -15.106 -22.689  0.00  0.00    +0.022 C 
ATOM      4  C   UNL     1      34.449 -16.176 -21.827  0.00  0.00    +0.077 C 
ATOM      5  C   UNL     1      32.454 -15.081 -21.015  0.00  0.00    +0.016 C 
ATOM      6  C   UNL     1      33.333 -16.164 -20.990  0.00  0.00    +0.008 C 
ENDROOT
BRANCH   2   8
ATOM      7  O   UNL     1      31.992 -12.034 -19.715  0.00  0.00    -0.275 OA
ATOM      8  N   UNL     1      31.797 -12.937 -21.884  0.00  0.00    -0.283 N 
ATOM      9  C   UNL     1      31.509 -12.047 -20.843  0.00  0.00    +0.227 C 
ATOM     10  C   UNL     1      30.481 -11.023 -21.253  0.00  0.00    +0.095 C 
ATOM     11  H   UNL     1      31.308 -12.788 -22.726  0.00  0.00    +0.155 HD
ENDBRANCH   2   8
BRANCH   1  13
ATOM     12  O   UNL     1      33.057 -13.648 -25.600  0.00  0.00    -0.277 OA
ATOM     13  N   UNL     1      34.065 -12.961 -23.587  0.00  0.00    -0.285 N 
ATOM     14  C   UNL     1      33.692 -12.838 -24.933  0.00  0.00    +0.204 C 
ATOM     15  H   UNL     1      34.573 -12.208 -23.210  0.00  0.00    +0.155 HD
BRANCH  14  16
ATOM     16  C   UNL     1      34.174 -11.527 -25.511  0.00  0.00    +0.001 C 
BRANCH  16  17
ATOM     17  N   UNL     1      34.899 -10.720 -24.500  0.00  0.00    +0.386 N 
ATOM     18  H   UNL     1      35.448 -10.000 -24.971  0.00  0.00    -0.089 HD
ATOM     19  H   UNL     1      35.521 -11.326 -23.965  0.00  0.00    -0.089 HD
ATOM     20  H   UNL     1      34.228 -10.280 -23.872  0.00  0.00    -0.089 HD
ENDBRANCH  16  17
ENDBRANCH  14  16
ENDBRANCH   1  13
BRANCH   4  22
ATOM     21  O   UNL     1      35.600 -18.013 -20.816  0.00  0.00    -0.245 OA
ATOM     22  C   UNL     1      35.365 -17.306 -21.800  0.00  0.00    +0.338 C 
BRANCH  22  23
ATOM     23  O   UNL     1      35.962 -17.520 -23.005  0.00  0.00    -0.477 OA
ATOM     24  H   UNL     1      36.045 -18.392 -23.338  0.00  0.00    +0.295 HD
ENDBRANCH  22  23
ENDBRANCH   4  22
TORSDOF 6
ENDMDL
MODEL 2
REMARK VINA RESULT:      -7.6     11.072     13.526
REMARK  Name = 446325
REMARK  6 active torsions:
REMARK  status: ('A' for Active; 'I' for Inactive)
REMARK    1  A    between atoms: C_1  and  N_13
REMARK    2  A    between atoms: C_2  and  N_8
REMARK    3  A    between atoms: C_4  and  C_22
REMARK    4  A    between atoms: C_14  and  C_16
REMARK    5  A    between atoms: C_16  and  N_17
REMARK    6  A    between atoms: C_22  and  O_23
REMARK                            x       y       z     vdW  Elec       q    Type
REMARK                         _______ _______ _______ _____ _____    ______ ____
ROOT
ATOM      1  C   UNL     1      35.145 -24.216 -15.055  0.00  0.00    +0.064 C 
ATOM      2  C   UNL     1      34.217 -24.113 -14.019  0.00  0.00    +0.064 C 
ATOM      3  C   UNL     1      34.788 -23.843 -16.351  0.00  0.00    +0.022 C 
ATOM      4  C   UNL     1      33.503 -23.367 -16.610  0.00  0.00    +0.077 C 
ATOM      5  C   UNL     1      32.933 -23.638 -14.277  0.00  0.00    +0.016 C 
ATOM      6  C   UNL     1      32.575 -23.264 -15.574  0.00  0.00    +0.008 C 
ENDROOT
BRANCH   2   8
ATOM      7  O   UNL     1      36.320 -23.022 -12.159  0.00  0.00    -0.275 OA
ATOM      8  N   UNL     1      34.553 -24.481 -12.712  0.00  0.00    -0.283 N 
ATOM      9  C   UNL     1      35.547 -23.937 -11.892  0.00  0.00    +0.227 C 
ATOM     10  C   UNL     1      35.591 -24.615 -10.545  0.00  0.00    +0.095 C 
ATOM     11  H   UNL     1      34.024 -25.214 -12.322  0.00  0.00    +0.155 HD
ENDBRANCH   2   8
BRANCH   1  13
ATOM     12  O   UNL     1      36.383 -26.887 -15.661  0.00  0.00    -0.277 OA
ATOM     13  N   UNL     1      36.440 -24.689 -14.820  0.00  0.00    -0.285 N 
ATOM     14  C   UNL     1      36.968 -25.953 -15.122  0.00  0.00    +0.204 C 
ATOM     15  H   UNL     1      37.057 -24.058 -14.386  0.00  0.00    +0.155 HD
BRANCH  14  16
ATOM     16  C   UNL     1      38.415 -26.052 -14.697  0.00  0.00    +0.001 C 
BRANCH  16  17
ATOM     17  N   UNL     1      39.250 -25.025 -15.365  0.00  0.00    +0.386 N 
ATOM     18  H   UNL     1      38.924 -24.892 -16.322  0.00  0.00    -0.089 HD
ATOM     19  H   UNL     1      40.223 -25.332 -15.377  0.00  0.00    -0.089 HD
ATOM     20  H   UNL     1      39.177 -24.144 -14.856  0.00  0.00    -0.089 HD
ENDBRANCH  16  17
ENDBRANCH  14  16
ENDBRANCH   1  13
BRANCH   4  22
ATOM     21  O   UNL     1      32.248 -22.164 -18.253  0.00  0.00    -0.245 OA
ATOM     22  C   UNL     1      33.129 -22.978 -17.961  0.00  0.00    +0.338 C 
BRANCH  22  23
ATOM     23  O   UNL     1      33.868 -23.616 -18.909  0.00  0.00    -0.477 OA
ATOM     24  H   UNL     1      34.774 -23.406 -19.018  0.00  0.00    +0.295 HD
ENDBRANCH  22  23
ENDBRANCH   4  22
TORSDOF 6
ENDMDL
MODEL 3
REMARK VINA RESULT:      -7.6     10.188     12.881
REMARK  Name = 446325
REMARK  6 active torsions:
REMARK  status: ('A' for Active; 'I' for Inactive)
REMARK    1  A    between atoms: C_1  and  N_13
REMARK    2  A    between atoms: C_2  and  N_8
REMARK    3  A    between atoms: C_4  and  C_22
REMARK    4  A    between atoms: C_14  and  C_16
REMARK    5  A    between atoms: C_16  and  N_17
REMARK    6  A    between atoms: C_22  and  O_23
REMARK                            x       y       z     vdW  Elec       q    Type
REMARK                         _______ _______ _______ _____ _____    ______ ____
ROOT
ATOM      1  C   UNL     1      33.864 -23.783 -15.280  0.00  0.00    +0.064 C 
ATOM      2  C   UNL     1      33.446 -23.248 -16.499  0.00  0.00    +0.064 C 
ATOM      3  C   UNL     1      32.923 -24.254 -14.365  0.00  0.00    +0.022 C 
ATOM      4  C   UNL     1      31.563 -24.191 -14.669  0.00  0.00    +0.077 C 
ATOM      5  C   UNL     1      32.086 -23.186 -16.803  0.00  0.00    +0.016 C 
ATOM      6  C   UNL     1      31.144 -23.657 -15.888  0.00  0.00    +0.008 C 
ENDROOT
BRANCH   2   8
ATOM      7  O   UNL     1      33.068 -22.380 -19.358  0.00  0.00    -0.275 OA
ATOM      8  N   UNL     1      34.371 -22.770 -17.431  0.00  0.00    -0.283 N 
ATOM      9  C   UNL     1      34.137 -22.381 -18.755  0.00  0.00    +0.227 C 
ATOM     10  C   UNL     1      35.404 -21.922 -19.432  0.00  0.00    +0.095 C 
ATOM     11  H   UNL     1      35.301 -22.698 -17.119  0.00  0.00    +0.155 HD
ENDBRANCH   2   8
BRANCH   1  13
ATOM     12  O   UNL     1      35.806 -26.063 -15.531  0.00  0.00    -0.277 OA
ATOM     13  N   UNL     1      35.222 -23.857 -14.954  0.00  0.00    -0.285 N 
ATOM     14  C   UNL     1      36.086 -24.953 -15.090  0.00  0.00    +0.204 C 
ATOM     15  H   UNL     1      35.620 -23.038 -14.581  0.00  0.00    +0.155 HD
BRANCH  14  16
ATOM     16  C   UNL     1      37.479 -24.607 -14.615  0.00  0.00    +0.001 C 
BRANCH  16  17
ATOM     17  N   UNL     1      38.514 -25.337 -15.387  0.00  0.00    +0.386 N 
ATOM     18  H   UNL     1      38.583 -26.294 -15.041  0.00  0.00    -0.089 HD
ATOM     19  H   UNL     1      39.414 -24.869 -15.275  0.00  0.00    -0.089 HD
ATOM     20  H   UNL     1      38.256 -25.349 -16.373  0.00  0.00    -0.089 HD
ENDBRANCH  16  17
ENDBRANCH  14  16
ENDBRANCH   1  13
BRANCH   4  22
ATOM     21  O   UNL     1      30.517 -24.363 -12.525  0.00  0.00    -0.245 OA
ATOM     22  C   UNL     1      30.581 -24.683 -13.716  0.00  0.00    +0.338 C 
BRANCH  22  23
ATOM     23  O   UNL     1      29.704 -25.560 -14.277  0.00  0.00    -0.477 OA
ATOM     24  H   UNL     1      30.013 -26.220 -14.865  0.00  0.00    +0.295 HD
ENDBRANCH  22  23
ENDBRANCH   4  22
TORSDOF 6
ENDMDL
MODEL 4
REMARK VINA RESULT:      -7.5      9.585     12.163
REMARK  Name = 446325
REMARK  6 active torsions:
REMARK  status: ('A' for Active; 'I' for Inactive)
REMARK    1  A    between atoms: C_1  and  N_13
REMARK    2  A    between atoms: C_2  and  N_8
REMARK    3  A    between atoms: C_4  and  C_22
REMARK    4  A    between atoms: C_14  and  C_16
REMARK    5  A    between atoms: C_16  and  N_17
REMARK    6  A    between atoms: C_22  and  O_23
REMARK                            x       y       z     vdW  Elec       q    Type
REMARK                         _______ _______ _______ _____ _____    ______ ____
ROOT
ATOM      1  C   UNL     1      32.307 -23.117 -16.252  0.00  0.00    +0.064 C 
ATOM      2  C   UNL     1      33.106 -23.391 -15.143  0.00  0.00    +0.064 C 
ATOM      3  C   UNL     1      30.980 -23.549 -16.280  0.00  0.00    +0.022 C 
ATOM      4  C   UNL     1      30.454 -24.254 -15.199  0.00  0.00    +0.077 C 
ATOM      5  C   UNL     1      32.580 -24.097 -14.061  0.00  0.00    +0.016 C 
ATOM      6  C   UNL     1      31.253 -24.528 -14.089  0.00  0.00    +0.008 C 
ENDROOT
BRANCH   2   8
ATOM      7  O   UNL     1      35.651 -24.871 -15.779  0.00  0.00    -0.275 OA
ATOM      8  N   UNL     1      34.438 -22.969 -15.092  0.00  0.00    -0.283 N 
ATOM      9  C   UNL     1      35.588 -23.705 -15.399  0.00  0.00    +0.227 C 
ATOM     10  C   UNL     1      36.840 -22.885 -15.216  0.00  0.00    +0.095 C 
ATOM     11  H   UNL     1      34.585 -22.040 -14.804  0.00  0.00    +0.155 HD
ENDBRANCH   2   8
BRANCH   1  13
ATOM     12  O   UNL     1      33.778 -24.089 -18.686  0.00  0.00    -0.277 OA
ATOM     13  N   UNL     1      32.812 -22.411 -17.348  0.00  0.00    -0.285 N 
ATOM     14  C   UNL     1      33.497 -22.916 -18.463  0.00  0.00    +0.204 C 
ATOM     15  H   UNL     1      32.671 -21.437 -17.335  0.00  0.00    +0.155 HD
BRANCH  14  16
ATOM     16  C   UNL     1      33.871 -21.806 -19.418  0.00  0.00    +0.001 C 
BRANCH  16  17
ATOM     17  N   UNL     1      32.767 -20.828 -19.575  0.00  0.00    +0.386 N 
ATOM     18  H   UNL     1      32.608 -20.351 -18.688  0.00  0.00    -0.089 HD
ATOM     19  H   UNL     1      31.917 -21.317 -19.856  0.00  0.00    -0.089 HD
ATOM     20  H   UNL     1      33.019 -20.144 -20.289  0.00  0.00    -0.089 HD
ENDBRANCH  16  17
ENDBRANCH  14  16
ENDBRANCH   1  13
BRANCH   4  22
ATOM     21  O   UNL     1      28.213 -24.329 -16.031  0.00  0.00    -0.245 OA
ATOM     22  C   UNL     1      29.071 -24.704 -15.227  0.00  0.00    +0.338 C 
BRANCH  22  23
ATOM     23  O   UNL     1      28.800 -25.611 -14.249  0.00  0.00    -0.477 OA
ATOM     24  H   UNL     1      29.310 -25.621 -13.463  0.00  0.00    +0.295 HD
ENDBRANCH  22  23
ENDBRANCH   4  22
TORSDOF 6
ENDMDL
MODEL 5
REMARK VINA RESULT:      -7.3      2.239      4.385
REMARK  Name = 446325
REMARK  6 active torsions:
REMARK  status: ('A' for Active; 'I' for Inactive)
REMARK    1  A    between atoms: C_1  and  N_13
REMARK    2  A    between atoms: C_2  and  N_8
REMARK    3  A    between atoms: C_4  and  C_22
REMARK    4  A    between atoms: C_14  and  C_16
REMARK    5  A    between atoms: C_16  and  N_17
REMARK    6  A    between atoms: C_22  and  O_23
REMARK                            x       y       z     vdW  Elec       q    Type
REMARK                         _______ _______ _______ _____ _____    ______ ____
ROOT
ATOM      1  C   UNL     1      34.229 -15.910 -22.693  0.00  0.00    +0.064 C 
ATOM      2  C   UNL     1      34.405 -16.108 -24.062  0.00  0.00    +0.064 C 
ATOM      3  C   UNL     1      34.612 -16.901 -21.789  0.00  0.00    +0.022 C 
ATOM      4  C   UNL     1      35.171 -18.090 -22.255  0.00  0.00    +0.077 C 
ATOM      5  C   UNL     1      34.964 -17.297 -24.528  0.00  0.00    +0.016 C 
ATOM      6  C   UNL     1      35.347 -18.289 -23.625  0.00  0.00    +0.008 C 
ENDROOT
BRANCH   2   8
ATOM      7  O   UNL     1      32.697 -16.308 -26.535  0.00  0.00    -0.275 OA
ATOM      8  N   UNL     1      34.029 -15.129 -24.987  0.00  0.00    -0.283 N 
ATOM      9  C   UNL     1      33.230 -15.281 -26.126  0.00  0.00    +0.227 C 
ATOM     10  C   UNL     1      33.059 -13.977 -26.864  0.00  0.00    +0.095 C 
ATOM     11  H   UNL     1      34.369 -14.221 -24.816  0.00  0.00    +0.155 HD
ENDBRANCH   2   8
BRANCH   1  13
ATOM     12  O   UNL     1      31.799 -15.462 -20.982  0.00  0.00    -0.277 OA
ATOM     13  N   UNL     1      33.671 -14.725 -22.203  0.00  0.00    -0.285 N 
ATOM     14  C   UNL     1      32.527 -14.571 -21.406  0.00  0.00    +0.204 C 
ATOM     15  H   UNL     1      34.139 -13.895 -22.448  0.00  0.00    +0.155 HD
BRANCH  14  16
ATOM     16  C   UNL     1      32.272 -13.113 -21.098  0.00  0.00    +0.001 C 
BRANCH  16  17
ATOM     17  N   UNL     1      31.605 -12.427 -22.231  0.00  0.00    +0.386 N 
ATOM     18  H   UNL     1      30.594 -12.535 -22.145  0.00  0.00    -0.089 HD
ATOM     19  H   UNL     1      31.917 -12.839 -23.110  0.00  0.00    -0.089 HD
ATOM     20  H   UNL     1      31.844 -11.436 -22.215  0.00  0.00    -0.089 HD
ENDBRANCH  16  17
ENDBRANCH  14  16
ENDBRANCH   1  13
BRANCH   4  22
ATOM     21  O   UNL     1      36.562 -19.079 -20.580  0.00  0.00    -0.245 OA
ATOM     22  C   UNL     1      35.570 -19.125 -21.314  0.00  0.00    +0.338 C 
BRANCH  22  23
ATOM     23  O   UNL     1      34.719 -20.187 -21.316  0.00  0.00    -0.477 OA
ATOM     24  H   UNL     1      33.820 -20.068 -21.080  0.00  0.00    +0.295 HD
ENDBRANCH  22  23
ENDBRANCH   4  22
TORSDOF 6
ENDMDL
MODEL 6
REMARK VINA RESULT:      -7.3     10.387     12.923
REMARK  Name = 446325
REMARK  6 active torsions:
REMARK  status: ('A' for Active; 'I' for Inactive)
REMARK    1  A    between atoms: C_1  and  N_13
REMARK    2  A    between atoms: C_2  and  N_8
REMARK    3  A    between atoms: C_4  and  C_22
REMARK    4  A    between atoms: C_14  and  C_16
REMARK    5  A    between atoms: C_16  and  N_17
REMARK    6  A    between atoms: C_22  and  O_23
REMARK                            x       y       z     vdW  Elec       q    Type
REMARK                         _______ _______ _______ _____ _____    ______ ____
ROOT
ATOM      1  C   UNL     1      33.647 -23.579 -15.406  0.00  0.00    +0.064 C 
ATOM      2  C   UNL     1      34.872 -23.231 -14.839  0.00  0.00    +0.064 C 
ATOM      3  C   UNL     1      33.411 -23.342 -16.761  0.00  0.00    +0.022 C 
ATOM      4  C   UNL     1      34.402 -22.755 -17.547  0.00  0.00    +0.077 C 
ATOM      5  C   UNL     1      35.863 -22.644 -15.626  0.00  0.00    +0.016 C 
ATOM      6  C   UNL     1      35.628 -22.405 -16.981  0.00  0.00    +0.008 C 
ENDROOT
BRANCH   2   8
ATOM      7  O   UNL     1      36.398 -25.448 -13.488  0.00  0.00    -0.275 OA
ATOM      8  N   UNL     1      35.131 -23.459 -13.485  0.00  0.00    -0.283 N 
ATOM      9  C   UNL     1      35.849 -24.514 -12.910  0.00  0.00    +0.227 C 
ATOM     10  C   UNL     1      35.901 -24.399 -11.408  0.00  0.00    +0.095 C 
ATOM     11  H   UNL     1      34.762 -22.797 -12.857  0.00  0.00    +0.155 HD
ENDBRANCH   2   8
BRANCH   1  13
ATOM     12  O   UNL     1      30.935 -22.547 -14.625  0.00  0.00    -0.277 OA
ATOM     13  N   UNL     1      32.639 -24.170 -14.637  0.00  0.00    -0.285 N 
ATOM     14  C   UNL     1      31.385 -23.640 -14.299  0.00  0.00    +0.204 C 
ATOM     15  H   UNL     1      32.834 -25.069 -14.289  0.00  0.00    +0.155 HD
BRANCH  14  16
ATOM     16  C   UNL     1      30.598 -24.610 -13.448  0.00  0.00    +0.001 C 
BRANCH  16  17
ATOM     17  N   UNL     1      29.690 -25.445 -14.272  0.00  0.00    +0.386 N 
ATOM     18  H   UNL     1      29.811 -26.426 -14.022  0.00  0.00    -0.089 HD
ATOM     19  H   UNL     1      29.911 -25.315 -15.259  0.00  0.00    -0.089 HD
ATOM     20  H   UNL     1      28.724 -25.167 -14.099  0.00  0.00    -0.089 HD
ENDBRANCH  16  17
ENDBRANCH  14  16
ENDBRANCH   1  13
BRANCH   4  22
ATOM     21  O   UNL     1      33.047 -22.352 -19.477  0.00  0.00    -0.245 OA
ATOM     22  C   UNL     1      34.158 -22.506 -18.960  0.00  0.00    +0.338 C 
BRANCH  22  23
ATOM     23  O   UNL     1      35.308 -22.457 -19.686  0.00  0.00    -0.477 OA
ATOM     24  H   UNL     1      35.858 -21.701 -19.643  0.00  0.00    +0.295 HD
ENDBRANCH  22  23
ENDBRANCH   4  22
TORSDOF 6
ENDMDL
MODEL 7
REMARK VINA RESULT:      -7.1     10.393     12.723
REMARK  Name = 446325
REMARK  6 active torsions:
REMARK  status: ('A' for Active; 'I' for Inactive)
REMARK    1  A    between atoms: C_1  and  N_13
REMARK    2  A    between atoms: C_2  and  N_8
REMARK    3  A    between atoms: C_4  and  C_22
REMARK    4  A    between atoms: C_14  and  C_16
REMARK    5  A    between atoms: C_16  and  N_17
REMARK    6  A    between atoms: C_22  and  O_23
REMARK                            x       y       z     vdW  Elec       q    Type
REMARK                         _______ _______ _______ _____ _____    ______ ____
ROOT
ATOM      1  C   UNL     1      33.500 -23.407 -15.171  0.00  0.00    +0.064 C 
ATOM      2  C   UNL     1      33.476 -24.410 -14.203  0.00  0.00    +0.064 C 
ATOM      3  C   UNL     1      32.307 -22.941 -15.724  0.00  0.00    +0.022 C 
ATOM      4  C   UNL     1      31.090 -23.480 -15.308  0.00  0.00    +0.077 C 
ATOM      5  C   UNL     1      32.260 -24.949 -13.787  0.00  0.00    +0.016 C 
ATOM      6  C   UNL     1      31.065 -24.484 -14.339  0.00  0.00    +0.008 C 
ENDROOT
BRANCH   2   8
ATOM      7  O   UNL     1      34.831 -23.699 -11.609  0.00  0.00    -0.275 OA
ATOM      8  N   UNL     1      34.659 -24.892 -13.635  0.00  0.00    -0.283 N 
ATOM      9  C   UNL     1      35.246 -24.522 -12.420  0.00  0.00    +0.227 C 
ATOM     10  C   UNL     1      36.526 -25.278 -12.166  0.00  0.00    +0.095 C 
ATOM     11  H   UNL     1      35.140 -25.577 -14.155  0.00  0.00    +0.155 HD
ENDBRANCH   2   8
BRANCH   1  13
ATOM     12  O   UNL     1      34.658 -23.171 -17.935  0.00  0.00    -0.277 OA
ATOM     13  N   UNL     1      34.708 -22.851 -15.604  0.00  0.00    -0.285 N 
ATOM     14  C   UNL     1      35.204 -22.769 -16.913  0.00  0.00    +0.204 C 
ATOM     15  H   UNL     1      35.284 -22.471 -14.901  0.00  0.00    +0.155 HD
BRANCH  14  16
ATOM     16  C   UNL     1      36.555 -22.090 -16.940  0.00  0.00    +0.001 C 
BRANCH  16  17
ATOM     17  N   UNL     1      36.692 -21.198 -18.116  0.00  0.00    +0.386 N 
ATOM     18  H   UNL     1      35.959 -21.412 -18.792  0.00  0.00    -0.089 HD
ATOM     19  H   UNL     1      37.605 -21.342 -18.547  0.00  0.00    -0.089 HD
ATOM     20  H   UNL     1      36.606 -20.227 -17.817  0.00  0.00    -0.089 HD
ENDBRANCH  16  17
ENDBRANCH  14  16
ENDBRANCH   1  13
BRANCH   4  22
ATOM     21  O   UNL     1      28.731 -23.088 -15.358  0.00  0.00    -0.245 OA
ATOM     22  C   UNL     1      29.845 -22.996 -15.883  0.00  0.00    +0.338 C 
BRANCH  22  23
ATOM     23  O   UNL     1      30.026 -22.409 -17.097  0.00  0.00    -0.477 OA
ATOM     24  H   UNL     1      30.826 -21.960 -17.287  0.00  0.00    +0.295 HD
ENDBRANCH  22  23
ENDBRANCH   4  22
TORSDOF 6
ENDMDL
MODEL 8
REMARK VINA RESULT:      -7.1     10.956     13.731
REMARK  Name = 446325
REMARK  6 active torsions:
REMARK  status: ('A' for Active; 'I' for Inactive)
REMARK    1  A    between atoms: C_1  and  N_13
REMARK    2  A    between atoms: C_2  and  N_8
REMARK    3  A    between atoms: C_4  and  C_22
REMARK    4  A    between atoms: C_14  and  C_16
REMARK    5  A    between atoms: C_16  and  N_17
REMARK    6  A    between atoms: C_22  and  O_23
REMARK                            x       y       z     vdW  Elec       q    Type
REMARK                         _______ _______ _______ _____ _____    ______ ____
ROOT
ATOM      1  C   UNL     1      33.794 -24.341 -14.171  0.00  0.00    +0.064 C 
ATOM      2  C   UNL     1      34.475 -23.503 -15.054  0.00  0.00    +0.064 C 
ATOM      3  C   UNL     1      34.329 -24.610 -12.911  0.00  0.00    +0.022 C 
ATOM      4  C   UNL     1      35.545 -24.040 -12.535  0.00  0.00    +0.077 C 
ATOM      5  C   UNL     1      35.691 -22.934 -14.678  0.00  0.00    +0.016 C 
ATOM      6  C   UNL     1      36.227 -23.202 -13.418  0.00  0.00    +0.008 C 
ENDROOT
BRANCH   2   8
ATOM      7  O   UNL     1      35.842 -22.498 -17.542  0.00  0.00    -0.275 OA
ATOM      8  N   UNL     1      33.958 -23.219 -16.322  0.00  0.00    -0.283 N 
ATOM      9  C   UNL     1      34.645 -22.750 -17.447  0.00  0.00    +0.227 C 
ATOM     10  C   UNL     1      33.723 -22.569 -18.627  0.00  0.00    +0.095 C 
ATOM     11  H   UNL     1      32.992 -23.367 -16.437  0.00  0.00    +0.155 HD
ENDBRANCH   2   8
BRANCH   1  13
ATOM     12  O   UNL     1      31.032 -23.893 -13.075  0.00  0.00    -0.277 OA
ATOM     13  N   UNL     1      32.573 -24.922 -14.526  0.00  0.00    -0.285 N 
ATOM     14  C   UNL     1      31.305 -24.678 -13.977  0.00  0.00    +0.204 C 
ATOM     15  H   UNL     1      32.607 -25.587 -15.251  0.00  0.00    +0.155 HD
BRANCH  14  16
ATOM     16  C   UNL     1      30.250 -25.523 -14.653  0.00  0.00    +0.001 C 
BRANCH  16  17
ATOM     17  N   UNL     1      28.888 -25.173 -14.181  0.00  0.00    +0.386 N 
ATOM     18  H   UNL     1      28.250 -25.942 -14.386  0.00  0.00    -0.089 HD
ATOM     19  H   UNL     1      28.570 -24.330 -14.658  0.00  0.00    -0.089 HD
ATOM     20  H   UNL     1      28.909 -25.008 -13.175  0.00  0.00    -0.089 HD
ENDBRANCH  16  17
ENDBRANCH  14  16
ENDBRANCH   1  13
BRANCH   4  22
ATOM     21  O   UNL     1      37.211 -23.948 -10.821  0.00  0.00    -0.245 OA
ATOM     22  C   UNL     1      36.104 -24.320 -11.221  0.00  0.00    +0.338 C 
BRANCH  22  23
ATOM     23  O   UNL     1      35.264 -25.057 -10.445  0.00  0.00    -0.477 OA
ATOM     24  H   UNL     1      35.408 -25.977 -10.339  0.00  0.00    +0.295 HD
ENDBRANCH  22  23
ENDBRANCH   4  22
TORSDOF 6
ENDMDL
MODEL 9
REMARK VINA RESULT:      -7.0     10.461     12.870
REMARK  Name = 446325
REMARK  6 active torsions:
REMARK  status: ('A' for Active; 'I' for Inactive)
REMARK    1  A    between atoms: C_1  and  N_13
REMARK    2  A    between atoms: C_2  and  N_8
REMARK    3  A    between atoms: C_4  and  C_22
REMARK    4  A    between atoms: C_14  and  C_16
REMARK    5  A    between atoms: C_16  and  N_17
REMARK    6  A    between atoms: C_22  and  O_23
REMARK                            x       y       z     vdW  Elec       q    Type
REMARK                         _______ _______ _______ _____ _____    ______ ____
ROOT
ATOM      1  C   UNL     1      35.001 -24.087 -15.126  0.00  0.00    +0.064 C 
ATOM      2  C   UNL     1      34.383 -24.016 -13.878  0.00  0.00    +0.064 C 
ATOM      3  C   UNL     1      36.307 -24.566 -15.233  0.00  0.00    +0.022 C 
ATOM      4  C   UNL     1      36.995 -24.972 -14.090  0.00  0.00    +0.077 C 
ATOM      5  C   UNL     1      35.071 -24.422 -12.735  0.00  0.00    +0.016 C 
ATOM      6  C   UNL     1      36.378 -24.901 -12.841  0.00  0.00    +0.008 C 
ENDROOT
BRANCH   2   8
ATOM      7  O   UNL     1      31.751 -25.472 -14.016  0.00  0.00    -0.275 OA
ATOM      8  N   UNL     1      33.076 -23.540 -13.747  0.00  0.00    -0.283 N 
ATOM      9  C   UNL     1      31.882 -24.267 -13.823  0.00  0.00    +0.227 C 
ATOM     10  C   UNL     1      30.677 -23.382 -13.627  0.00  0.00    +0.095 C 
ATOM     11  H   UNL     1      32.982 -22.574 -13.582  0.00  0.00    +0.155 HD
ENDBRANCH   2   8
BRANCH   1  13
ATOM     12  O   UNL     1      35.920 -22.363 -17.410  0.00  0.00    -0.277 OA
ATOM     13  N   UNL     1      34.331 -23.686 -16.286  0.00  0.00    -0.285 N 
ATOM     14  C   UNL     1      34.808 -22.874 -17.325  0.00  0.00    +0.204 C 
ATOM     15  H   UNL     1      33.408 -24.014 -16.385  0.00  0.00    +0.155 HD
BRANCH  14  16
ATOM     16  C   UNL     1      33.755 -22.686 -18.394  0.00  0.00    +0.001 C 
BRANCH  16  17
ATOM     17  N   UNL     1      32.387 -22.725 -17.823  0.00  0.00    +0.386 N 
ATOM     18  H   UNL     1      32.132 -21.795 -17.491  0.00  0.00    -0.089 HD
ATOM     19  H   UNL     1      32.362 -23.383 -17.044  0.00  0.00    -0.089 HD
ATOM     20  H   UNL     1      31.728 -23.022 -18.542  0.00  0.00    -0.089 HD
ENDBRANCH  16  17
ENDBRANCH  14  16
ENDBRANCH   1  13
BRANCH   4  22
ATOM     21  O   UNL     1      39.248 -25.310 -13.359  0.00  0.00    -0.245 OA
ATOM     22  C   UNL     1      38.357 -25.471 -14.199  0.00  0.00    +0.338 C 
BRANCH  22  23
ATOM     23  O   UNL     1      38.569 -26.157 -15.355  0.00  0.00    -0.477 OA
ATOM     24  H   UNL     1      38.849 -25.704 -16.126  0.00  0.00    +0.295 HD
ENDBRANCH  22  23
ENDBRANCH   4  22
TORSDOF 6
ENDMDL
