MODEL 1
REMARK VINA RESULT:      -7.7      0.000      0.000
REMARK  Name = 5504
REMARK  2 active torsions:
REMARK  status: ('A' for Active; 'I' for Inactive)
REMARK    1  A    between atoms: C_1  and  C_4
REMARK    2  A    between atoms: C_1  and  C_8
REMARK                            x       y       z     vdW  Elec       q    Type
REMARK                         _______ _______ _______ _____ _____    ______ ____
ROOT
ATOM      1  C   UNL     1      36.078 -18.647 -21.727  0.00  0.00    +0.088 C 
ENDROOT
BRANCH   1   4
ATOM      2  N   UNL     1      35.362 -16.869 -23.313  0.00  0.00    -0.299 N 
ATOM      3  N   UNL     1      35.061 -19.040 -23.924  0.00  0.00    -0.232 NA
ATOM      4  C   UNL     1      35.477 -18.194 -23.017  0.00  0.00    +0.113 C 
ATOM      5  C   UNL     1      34.796 -16.705 -24.618  0.00  0.00    +0.084 C 
ATOM      6  C   UNL     1      34.550 -18.166 -25.024  0.00  0.00    +0.116 C 
ATOM      7  H   UNL     1      35.629 -16.133 -22.717  0.00  0.00    +0.153 HD
ENDBRANCH   1   4
BRANCH   1   8
ATOM      8  C   UNL     1      35.147 -19.566 -20.990  0.00  0.00    -0.015 C 
ATOM      9  C   UNL     1      35.664 -20.652 -20.291  0.00  0.00    -0.004 C 
ATOM     10  C   UNL     1      33.779 -19.322 -21.012  0.00  0.00    -0.004 C 
ATOM     11  C   UNL     1      34.800 -21.505 -19.605  0.00  0.00    -0.000 C 
ATOM     12  C   UNL     1      32.915 -20.175 -20.325  0.00  0.00    -0.000 C 
ATOM     13  C   UNL     1      33.426 -21.267 -19.622  0.00  0.00    -0.000 C 
ENDBRANCH   1   8
TORSDOF 2
ENDMDL
MODEL 2
REMARK VINA RESULT:      -7.7      1.667      2.552
REMARK  Name = 5504
REMARK  2 active torsions:
REMARK  status: ('A' for Active; 'I' for Inactive)
REMARK    1  A    between atoms: C_1  and  C_4
REMARK    2  A    between atoms: C_1  and  C_8
REMARK                            x       y       z     vdW  Elec       q    Type
REMARK                         _______ _______ _______ _____ _____    ______ ____
ROOT
ATOM      1  C   UNL     1      35.850 -18.622 -21.736  0.00  0.00    +0.088 C 
ENDROOT
BRANCH   1   4
ATOM      2  N   UNL     1      34.848 -16.566 -22.714  0.00  0.00    -0.299 N 
ATOM      3  N   UNL     1      35.145 -16.650 -20.459  0.00  0.00    -0.232 NA
ATOM      4  C   UNL     1      35.279 -17.247 -21.616  0.00  0.00    +0.113 C 
ATOM      5  C   UNL     1      34.311 -15.297 -22.325  0.00  0.00    +0.084 C 
ATOM      6  C   UNL     1      34.544 -15.326 -20.807  0.00  0.00    +0.116 C 
ATOM      7  H   UNL     1      34.899 -16.897 -23.639  0.00  0.00    +0.153 HD
ENDBRANCH   1   4
BRANCH   1   8
ATOM      8  C   UNL     1      35.034 -19.617 -20.961  0.00  0.00    -0.015 C 
ATOM      9  C   UNL     1      33.646 -19.550 -21.006  0.00  0.00    -0.004 C 
ATOM     10  C   UNL     1      35.674 -20.595 -20.210  0.00  0.00    -0.004 C 
ATOM     11  C   UNL     1      32.887 -20.475 -20.288  0.00  0.00    -0.000 C 
ATOM     12  C   UNL     1      34.916 -21.519 -19.492  0.00  0.00    -0.000 C 
ATOM     13  C   UNL     1      33.522 -21.459 -19.531  0.00  0.00    -0.000 C 
ENDBRANCH   1   8
TORSDOF 2
ENDMDL
MODEL 3
REMARK VINA RESULT:      -7.0      1.663      4.873
REMARK  Name = 5504
REMARK  2 active torsions:
REMARK  status: ('A' for Active; 'I' for Inactive)
REMARK    1  A    between atoms: C_1  and  C_4
REMARK    2  A    between atoms: C_1  and  C_8
REMARK                            x       y       z     vdW  Elec       q    Type
REMARK                         _______ _______ _______ _____ _____    ______ ____
ROOT
ATOM      1  C   UNL     1      35.932 -18.659 -21.570  0.00  0.00    +0.088 C 
ENDROOT
BRANCH   1   4
ATOM      2  N   UNL     1      35.328 -20.644 -20.197  0.00  0.00    -0.299 N 
ATOM      3  N   UNL     1      33.647 -19.322 -20.975  0.00  0.00    -0.232 NA
ATOM      4  C   UNL     1      34.933 -19.555 -20.914  0.00  0.00    +0.113 C 
ATOM      5  C   UNL     1      34.187 -21.305 -19.640  0.00  0.00    +0.084 C 
ATOM      6  C   UNL     1      33.041 -20.444 -20.194  0.00  0.00    +0.116 C 
ATOM      7  H   UNL     1      36.261 -20.933 -20.079  0.00  0.00    +0.153 HD
ENDBRANCH   1   4
BRANCH   1   8
ATOM      8  C   UNL     1      35.362 -18.028 -22.809  0.00  0.00    -0.015 C 
ATOM      9  C   UNL     1      35.156 -16.654 -22.846  0.00  0.00    -0.004 C 
ATOM     10  C   UNL     1      35.049 -18.824 -23.903  0.00  0.00    -0.004 C 
ATOM     11  C   UNL     1      34.628 -16.067 -23.997  0.00  0.00    -0.000 C 
ATOM     12  C   UNL     1      34.522 -18.237 -25.054  0.00  0.00    -0.000 C 
ATOM     13  C   UNL     1      34.311 -16.859 -25.100  0.00  0.00    -0.000 C 
ENDBRANCH   1   8
TORSDOF 2
ENDMDL
MODEL 4
REMARK VINA RESULT:      -6.7      2.339      4.741
REMARK  Name = 5504
REMARK  2 active torsions:
REMARK  status: ('A' for Active; 'I' for Inactive)
REMARK    1  A    between atoms: C_1  and  C_4
REMARK    2  A    between atoms: C_1  and  C_8
REMARK                            x       y       z     vdW  Elec       q    Type
REMARK                         _______ _______ _______ _____ _____    ______ ____
ROOT
ATOM      1  C   UNL     1      35.388 -18.616 -22.501  0.00  0.00    +0.088 C 
ENDROOT
BRANCH   1   4
ATOM      2  N   UNL     1      33.478 -19.647 -21.286  0.00  0.00    -0.299 N 
ATOM      3  N   UNL     1      35.588 -20.252 -20.686  0.00  0.00    -0.232 NA
ATOM      4  C   UNL     1      34.824 -19.523 -21.458  0.00  0.00    +0.113 C 
ATOM      5  C   UNL     1      33.201 -20.604 -20.258  0.00  0.00    +0.084 C 
ATOM      6  C   UNL     1      34.621 -20.989 -19.815  0.00  0.00    +0.116 C 
ATOM      7  H   UNL     1      32.797 -19.153 -21.795  0.00  0.00    +0.153 HD
ENDBRANCH   1   4
BRANCH   1   8
ATOM      8  C   UNL     1      35.022 -17.185 -22.231  0.00  0.00    -0.015 C 
ATOM      9  C   UNL     1      34.868 -16.751 -20.919  0.00  0.00    -0.004 C 
ATOM     10  C   UNL     1      34.842 -16.309 -23.295  0.00  0.00    -0.004 C 
ATOM     11  C   UNL     1      34.529 -15.422 -20.668  0.00  0.00    -0.000 C 
ATOM     12  C   UNL     1      34.502 -14.980 -23.043  0.00  0.00    -0.000 C 
ATOM     13  C   UNL     1      34.346 -14.536 -21.730  0.00  0.00    -0.000 C 
ENDBRANCH   1   8
TORSDOF 2
ENDMDL
MODEL 5
REMARK VINA RESULT:      -6.7      2.339      4.820
REMARK  Name = 5504
REMARK  2 active torsions:
REMARK  status: ('A' for Active; 'I' for Inactive)
REMARK    1  A    between atoms: C_1  and  C_4
REMARK    2  A    between atoms: C_1  and  C_8
REMARK                            x       y       z     vdW  Elec       q    Type
REMARK                         _______ _______ _______ _____ _____    ______ ____
ROOT
ATOM      1  C   UNL     1      35.445 -18.589 -22.478  0.00  0.00    +0.088 C 
ENDROOT
BRANCH   1   4
ATOM      2  N   UNL     1      33.506 -19.621 -21.310  0.00  0.00    -0.299 N 
ATOM      3  N   UNL     1      35.601 -20.246 -20.677  0.00  0.00    -0.232 NA
ATOM      4  C   UNL     1      34.855 -19.504 -21.455  0.00  0.00    +0.113 C 
ATOM      5  C   UNL     1      33.203 -20.586 -20.297  0.00  0.00    +0.084 C 
ATOM      6  C   UNL     1      34.612 -20.987 -19.833  0.00  0.00    +0.116 C 
ATOM      7  H   UNL     1      32.837 -19.116 -21.825  0.00  0.00    +0.153 HD
ENDBRANCH   1   4
BRANCH   1   8
ATOM      8  C   UNL     1      35.049 -17.163 -22.222  0.00  0.00    -0.015 C 
ATOM      9  C   UNL     1      34.856 -16.301 -23.296  0.00  0.00    -0.004 C 
ATOM     10  C   UNL     1      34.878 -16.721 -20.916  0.00  0.00    -0.004 C 
ATOM     11  C   UNL     1      34.487 -14.977 -23.059  0.00  0.00    -0.000 C 
ATOM     12  C   UNL     1      34.509 -15.397 -20.680  0.00  0.00    -0.000 C 
ATOM     13  C   UNL     1      34.314 -14.525 -21.751  0.00  0.00    -0.000 C 
ENDBRANCH   1   8
TORSDOF 2
ENDMDL
MODEL 6
REMARK VINA RESULT:      -6.7      2.842      4.093
REMARK  Name = 5504
REMARK  2 active torsions:
REMARK  status: ('A' for Active; 'I' for Inactive)
REMARK    1  A    between atoms: C_1  and  C_4
REMARK    2  A    between atoms: C_1  and  C_8
REMARK                            x       y       z     vdW  Elec       q    Type
REMARK                         _______ _______ _______ _____ _____    ______ ____
ROOT
ATOM      1  C   UNL     1      34.578 -15.662 -21.226  0.00  0.00    +0.088 C 
ENDROOT
BRANCH   1   4
ATOM      2  N   UNL     1      34.525 -13.783 -22.856  0.00  0.00    -0.299 N 
ATOM      3  N   UNL     1      32.553 -14.498 -21.973  0.00  0.00    -0.232 NA
ATOM      4  C   UNL     1      33.854 -14.626 -22.022  0.00  0.00    +0.113 C 
ATOM      5  C   UNL     1      33.601 -12.920 -23.527  0.00  0.00    +0.084 C 
ATOM      6  C   UNL     1      32.268 -13.366 -22.908  0.00  0.00    +0.116 C 
ATOM      7  H   UNL     1      35.501 -13.769 -22.979  0.00  0.00    +0.153 HD
ENDBRANCH   1   4
BRANCH   1   8
ATOM      8  C   UNL     1      34.678 -16.955 -21.984  0.00  0.00    -0.015 C 
ATOM      9  C   UNL     1      34.446 -18.157 -21.324  0.00  0.00    -0.004 C 
ATOM     10  C   UNL     1      34.999 -16.937 -23.335  0.00  0.00    -0.004 C 
ATOM     11  C   UNL     1      34.537 -19.358 -22.027  0.00  0.00    -0.000 C 
ATOM     12  C   UNL     1      35.089 -18.138 -24.038  0.00  0.00    -0.000 C 
ATOM     13  C   UNL     1      34.859 -19.349 -23.384  0.00  0.00    -0.000 C 
ENDBRANCH   1   8
TORSDOF 2
ENDMDL
MODEL 7
REMARK VINA RESULT:      -6.6      1.943      5.008
REMARK  Name = 5504
REMARK  2 active torsions:
REMARK  status: ('A' for Active; 'I' for Inactive)
REMARK    1  A    between atoms: C_1  and  C_4
REMARK    2  A    between atoms: C_1  and  C_8
REMARK                            x       y       z     vdW  Elec       q    Type
REMARK                         _______ _______ _______ _____ _____    ______ ____
ROOT
ATOM      1  C   UNL     1      34.986 -16.631 -21.425  0.00  0.00    +0.088 C 
ENDROOT
BRANCH   1   4
ATOM      2  N   UNL     1      33.698 -18.727 -21.050  0.00  0.00    -0.299 N 
ATOM      3  N   UNL     1      35.960 -18.794 -20.806  0.00  0.00    -0.232 NA
ATOM      4  C   UNL     1      34.898 -18.081 -21.076  0.00  0.00    +0.113 C 
ATOM      5  C   UNL     1      33.893 -20.109 -20.730  0.00  0.00    +0.084 C 
ATOM      6  C   UNL     1      35.414 -20.158 -20.522  0.00  0.00    +0.116 C 
ATOM      7  H   UNL     1      32.827 -18.306 -21.226  0.00  0.00    +0.153 HD
ENDBRANCH   1   4
BRANCH   1   8
ATOM      8  C   UNL     1      34.598 -16.394 -22.857  0.00  0.00    -0.015 C 
ATOM      9  C   UNL     1      34.960 -17.320 -23.829  0.00  0.00    -0.004 C 
ATOM     10  C   UNL     1      33.883 -15.252 -23.194  0.00  0.00    -0.004 C 
ATOM     11  C   UNL     1      34.600 -17.101 -25.158  0.00  0.00    -0.000 C 
ATOM     12  C   UNL     1      33.522 -15.033 -24.524  0.00  0.00    -0.000 C 
ATOM     13  C   UNL     1      33.881 -15.957 -25.506  0.00  0.00    -0.000 C 
ENDBRANCH   1   8
TORSDOF 2
ENDMDL
MODEL 8
REMARK VINA RESULT:      -6.6      2.337      4.829
REMARK  Name = 5504
REMARK  2 active torsions:
REMARK  status: ('A' for Active; 'I' for Inactive)
REMARK    1  A    between atoms: C_1  and  C_4
REMARK    2  A    between atoms: C_1  and  C_8
REMARK                            x       y       z     vdW  Elec       q    Type
REMARK                         _______ _______ _______ _____ _____    ______ ____
ROOT
ATOM      1  C   UNL     1      35.418 -18.647 -22.482  0.00  0.00    +0.088 C 
ENDROOT
BRANCH   1   4
ATOM      2  N   UNL     1      35.613 -20.308 -20.640  0.00  0.00    -0.299 N 
ATOM      3  N   UNL     1      33.529 -19.671 -21.299  0.00  0.00    -0.232 NA
ATOM      4  C   UNL     1      34.823 -19.563 -21.463  0.00  0.00    +0.113 C 
ATOM      5  C   UNL     1      34.802 -21.064 -19.735  0.00  0.00    +0.084 C 
ATOM      6  C   UNL     1      33.390 -20.673 -20.198  0.00  0.00    +0.116 C 
ATOM      7  H   UNL     1      36.596 -20.324 -20.665  0.00  0.00    +0.153 HD
ENDBRANCH   1   4
BRANCH   1   8
ATOM      8  C   UNL     1      35.042 -17.218 -22.212  0.00  0.00    -0.015 C 
ATOM      9  C   UNL     1      34.863 -16.342 -23.276  0.00  0.00    -0.004 C 
ATOM     10  C   UNL     1      34.876 -16.788 -20.901  0.00  0.00    -0.004 C 
ATOM     11  C   UNL     1      34.513 -15.015 -23.025  0.00  0.00    -0.000 C 
ATOM     12  C   UNL     1      34.526 -15.461 -20.651  0.00  0.00    -0.000 C 
ATOM     13  C   UNL     1      34.345 -14.575 -21.713  0.00  0.00    -0.000 C 
ENDBRANCH   1   8
TORSDOF 2
ENDMDL
MODEL 9
REMARK VINA RESULT:      -6.6      4.129      6.642
REMARK  Name = 5504
REMARK  2 active torsions:
REMARK  status: ('A' for Active; 'I' for Inactive)
REMARK    1  A    between atoms: C_1  and  C_4
REMARK    2  A    between atoms: C_1  and  C_8
REMARK                            x       y       z     vdW  Elec       q    Type
REMARK                         _______ _______ _______ _____ _____    ______ ____
ROOT
ATOM      1  C   UNL     1      33.791 -23.201 -18.718  0.00  0.00    +0.088 C 
ENDROOT
BRANCH   1   4
ATOM      2  N   UNL     1      33.127 -23.249 -16.321  0.00  0.00    -0.299 N 
ATOM      3  N   UNL     1      35.315 -22.874 -16.824  0.00  0.00    -0.232 NA
ATOM      4  C   UNL     1      34.101 -23.094 -17.261  0.00  0.00    +0.113 C 
ATOM      5  C   UNL     1      33.690 -23.142 -15.009  0.00  0.00    +0.084 C 
ATOM      6  C   UNL     1      35.162 -22.847 -15.337  0.00  0.00    +0.116 C 
ATOM      7  H   UNL     1      32.177 -23.412 -16.515  0.00  0.00    +0.153 HD
ENDBRANCH   1   4
BRANCH   1   8
ATOM      8  C   UNL     1      34.155 -21.938 -19.443  0.00  0.00    -0.015 C 
ATOM      9  C   UNL     1      35.492 -21.652 -19.697  0.00  0.00    -0.004 C 
ATOM     10  C   UNL     1      33.152 -21.068 -19.854  0.00  0.00    -0.004 C 
ATOM     11  C   UNL     1      35.830 -20.479 -20.372  0.00  0.00    -0.000 C 
ATOM     12  C   UNL     1      33.490 -19.895 -20.529  0.00  0.00    -0.000 C 
ATOM     13  C   UNL     1      34.829 -19.601 -20.788  0.00  0.00    -0.000 C 
ENDBRANCH   1   8
TORSDOF 2
ENDMDL
