MODEL 1
REMARK VINA RESULT:      -6.4      0.000      0.000
REMARK  Name = 16259
REMARK  4 active torsions:
REMARK  status: ('A' for Active; 'I' for Inactive)
REMARK    1  A    between atoms: C_1  and  C_2
REMARK    2  A    between atoms: C_1  and  C_8
REMARK    3  A    between atoms: C_8  and  C_9
REMARK    4  A    between atoms: C_9  and  N_10
REMARK                            x       y       z     vdW  Elec       q    Type
REMARK                         _______ _______ _______ _____ _____    ______ ____
ROOT
ATOM      1  C   UNL     1      34.517 -18.583 -21.975  0.00  0.00    +0.024 C 
ENDROOT
BRANCH   1   2
ATOM      2  C   UNL     1      34.501 -19.730 -20.996  0.00  0.00    -0.022 C 
ATOM      3  C   UNL     1      35.699 -20.309 -20.607  0.00  0.00    -0.004 C 
ATOM      4  C   UNL     1      33.289 -20.187 -20.501  0.00  0.00    -0.004 C 
ATOM      5  C   UNL     1      35.686 -21.369 -19.702  0.00  0.00    -0.000 C 
ATOM      6  C   UNL     1      33.275 -21.247 -19.595  0.00  0.00    -0.000 C 
ATOM      7  C   UNL     1      34.474 -21.839 -19.195  0.00  0.00    -0.000 C 
ENDBRANCH   1   2
BRANCH   1   8
ATOM      8  C   UNL     1      34.867 -19.051 -23.390  0.00  0.00    -0.019 C 
BRANCH   8   9
ATOM      9  C   UNL     1      34.947 -17.869 -24.356  0.00  0.00    -0.086 C 
BRANCH   9  10
ATOM     10  N   UNL     1      35.468 -16.692 -23.672  0.00  0.00    +0.380 N 
ATOM     11  H   UNL     1      36.422 -16.875 -23.359  0.00  0.00    -0.089 HD
ATOM     12  H   UNL     1      34.881 -16.479 -22.866  0.00  0.00    -0.089 HD
ATOM     13  H   UNL     1      35.468 -15.899 -24.314  0.00  0.00    -0.089 HD
ENDBRANCH   9  10
ENDBRANCH   8   9
ENDBRANCH   1   8
TORSDOF 4
ENDMDL
MODEL 2
REMARK VINA RESULT:      -6.4      0.531      1.589
REMARK  Name = 16259
REMARK  4 active torsions:
REMARK  status: ('A' for Active; 'I' for Inactive)
REMARK    1  A    between atoms: C_1  and  C_2
REMARK    2  A    between atoms: C_1  and  C_8
REMARK    3  A    between atoms: C_8  and  C_9
REMARK    4  A    between atoms: C_9  and  N_10
REMARK                            x       y       z     vdW  Elec       q    Type
REMARK                         _______ _______ _______ _____ _____    ______ ____
ROOT
ATOM      1  C   UNL     1      35.244 -18.542 -22.180  0.00  0.00    +0.024 C 
ENDROOT
BRANCH   1   2
ATOM      2  C   UNL     1      34.725 -19.567 -21.204  0.00  0.00    -0.022 C 
ATOM      3  C   UNL     1      33.364 -19.634 -20.946  0.00  0.00    -0.004 C 
ATOM      4  C   UNL     1      35.617 -20.426 -20.579  0.00  0.00    -0.004 C 
ATOM      5  C   UNL     1      32.883 -20.582 -20.044  0.00  0.00    -0.000 C 
ATOM      6  C   UNL     1      35.136 -21.375 -19.676  0.00  0.00    -0.000 C 
ATOM      7  C   UNL     1      33.769 -21.453 -19.409  0.00  0.00    -0.000 C 
ENDBRANCH   1   2
BRANCH   1   8
ATOM      8  C   UNL     1      34.991 -18.962 -23.630  0.00  0.00    -0.019 C 
BRANCH   8   9
ATOM      9  C   UNL     1      34.744 -17.744 -24.520  0.00  0.00    -0.086 C 
BRANCH   9  10
ATOM     10  N   UNL     1      35.433 -16.577 -23.983  0.00  0.00    +0.380 N 
ATOM     11  H   UNL     1      36.399 -16.824 -23.764  0.00  0.00    -0.089 HD
ATOM     12  H   UNL     1      34.962 -16.265 -23.134  0.00  0.00    -0.089 HD
ATOM     13  H   UNL     1      35.422 -15.828 -24.675  0.00  0.00    -0.089 HD
ENDBRANCH   9  10
ENDBRANCH   8   9
ENDBRANCH   1   8
TORSDOF 4
ENDMDL
MODEL 3
REMARK VINA RESULT:      -6.1      3.455      5.218
REMARK  Name = 16259
REMARK  4 active torsions:
REMARK  status: ('A' for Active; 'I' for Inactive)
REMARK    1  A    between atoms: C_1  and  C_2
REMARK    2  A    between atoms: C_1  and  C_8
REMARK    3  A    between atoms: C_8  and  C_9
REMARK    4  A    between atoms: C_9  and  N_10
REMARK                            x       y       z     vdW  Elec       q    Type
REMARK                         _______ _______ _______ _____ _____    ______ ____
ROOT
ATOM      1  C   UNL     1      35.263 -22.186 -18.616  0.00  0.00    +0.024 C 
ENDROOT
BRANCH   1   2
ATOM      2  C   UNL     1      34.773 -21.185 -19.632  0.00  0.00    -0.022 C 
ATOM      3  C   UNL     1      35.693 -20.478 -20.390  0.00  0.00    -0.004 C 
ATOM      4  C   UNL     1      33.409 -20.986 -19.789  0.00  0.00    -0.004 C 
ATOM      5  C   UNL     1      35.240 -19.552 -21.330  0.00  0.00    -0.000 C 
ATOM      6  C   UNL     1      32.956 -20.060 -20.728  0.00  0.00    -0.000 C 
ATOM      7  C   UNL     1      33.871 -19.343 -21.499  0.00  0.00    -0.000 C 
ENDBRANCH   1   2
BRANCH   1   8
ATOM      8  C   UNL     1      36.598 -21.760 -17.999  0.00  0.00    -0.019 C 
BRANCH   8   9
ATOM      9  C   UNL     1      36.664 -22.136 -16.520  0.00  0.00    -0.086 C 
BRANCH   9  10
ATOM     10  N   UNL     1      37.884 -22.883 -16.242  0.00  0.00    +0.380 N 
ATOM     11  H   UNL     1      37.671 -23.662 -15.618  0.00  0.00    -0.089 HD
ATOM     12  H   UNL     1      38.565 -22.269 -15.796  0.00  0.00    -0.089 HD
ATOM     13  H   UNL     1      38.269 -23.242 -17.115  0.00  0.00    -0.089 HD
ENDBRANCH   9  10
ENDBRANCH   8   9
ENDBRANCH   1   8
TORSDOF 4
ENDMDL
MODEL 4
REMARK VINA RESULT:      -6.0      2.426      5.117
REMARK  Name = 16259
REMARK  4 active torsions:
REMARK  status: ('A' for Active; 'I' for Inactive)
REMARK    1  A    between atoms: C_1  and  C_2
REMARK    2  A    between atoms: C_1  and  C_8
REMARK    3  A    between atoms: C_8  and  C_9
REMARK    4  A    between atoms: C_9  and  N_10
REMARK                            x       y       z     vdW  Elec       q    Type
REMARK                         _______ _______ _______ _____ _____    ______ ____
ROOT
ATOM      1  C   UNL     1      35.192 -19.391 -21.549  0.00  0.00    +0.024 C 
ENDROOT
BRANCH   1   2
ATOM      2  C   UNL     1      35.002 -18.489 -22.742  0.00  0.00    -0.022 C 
ATOM      3  C   UNL     1      35.154 -17.120 -22.592  0.00  0.00    -0.004 C 
ATOM      4  C   UNL     1      34.676 -19.045 -23.971  0.00  0.00    -0.004 C 
ATOM      5  C   UNL     1      34.979 -16.285 -23.695  0.00  0.00    -0.000 C 
ATOM      6  C   UNL     1      34.501 -18.210 -25.075  0.00  0.00    -0.000 C 
ATOM      7  C   UNL     1      34.652 -16.830 -24.937  0.00  0.00    -0.000 C 
ENDBRANCH   1   2
BRANCH   1   8
ATOM      8  C   UNL     1      33.852 -19.827 -20.949  0.00  0.00    -0.019 C 
BRANCH   8   9
ATOM      9  C   UNL     1      34.049 -20.923 -19.903  0.00  0.00    -0.086 C 
BRANCH   9  10
ATOM     10  N   UNL     1      32.854 -21.751 -19.807  0.00  0.00    +0.380 N 
ATOM     11  H   UNL     1      33.049 -22.565 -19.223  0.00  0.00    -0.089 HD
ATOM     12  H   UNL     1      32.579 -22.061 -20.739  0.00  0.00    -0.089 HD
ATOM     13  H   UNL     1      32.097 -21.209 -19.391  0.00  0.00    -0.089 HD
ENDBRANCH   9  10
ENDBRANCH   8   9
ENDBRANCH   1   8
TORSDOF 4
ENDMDL
MODEL 5
REMARK VINA RESULT:      -6.0      2.457      5.068
REMARK  Name = 16259
REMARK  4 active torsions:
REMARK  status: ('A' for Active; 'I' for Inactive)
REMARK    1  A    between atoms: C_1  and  C_2
REMARK    2  A    between atoms: C_1  and  C_8
REMARK    3  A    between atoms: C_8  and  C_9
REMARK    4  A    between atoms: C_9  and  N_10
REMARK                            x       y       z     vdW  Elec       q    Type
REMARK                         _______ _______ _______ _____ _____    ______ ____
ROOT
ATOM      1  C   UNL     1      34.888 -19.069 -21.053  0.00  0.00    +0.024 C 
ENDROOT
BRANCH   1   2
ATOM      2  C   UNL     1      34.835 -18.421 -22.414  0.00  0.00    -0.022 C 
ATOM      3  C   UNL     1      34.627 -19.207 -23.536  0.00  0.00    -0.004 C 
ATOM      4  C   UNL     1      34.996 -17.046 -22.520  0.00  0.00    -0.004 C 
ATOM      5  C   UNL     1      34.578 -18.607 -24.794  0.00  0.00    -0.000 C 
ATOM      6  C   UNL     1      34.947 -16.447 -23.778  0.00  0.00    -0.000 C 
ATOM      7  C   UNL     1      34.737 -17.227 -24.915  0.00  0.00    -0.000 C 
ENDBRANCH   1   2
BRANCH   1   8
ATOM      8  C   UNL     1      33.670 -19.963 -20.805  0.00  0.00    -0.019 C 
BRANCH   8   9
ATOM      9  C   UNL     1      34.015 -21.112 -19.859  0.00  0.00    -0.086 C 
BRANCH   9  10
ATOM     10  N   UNL     1      32.798 -21.719 -19.335  0.00  0.00    +0.380 N 
ATOM     11  H   UNL     1      32.763 -22.702 -19.609  0.00  0.00    -0.089 HD
ATOM     12  H   UNL     1      31.986 -21.233 -19.712  0.00  0.00    -0.089 HD
ATOM     13  H   UNL     1      32.795 -21.650 -18.317  0.00  0.00    -0.089 HD
ENDBRANCH   9  10
ENDBRANCH   8   9
ENDBRANCH   1   8
TORSDOF 4
ENDMDL
MODEL 6
REMARK VINA RESULT:      -6.0      3.165      4.939
REMARK  Name = 16259
REMARK  4 active torsions:
REMARK  status: ('A' for Active; 'I' for Inactive)
REMARK    1  A    between atoms: C_1  and  C_2
REMARK    2  A    between atoms: C_1  and  C_8
REMARK    3  A    between atoms: C_8  and  C_9
REMARK    4  A    between atoms: C_9  and  N_10
REMARK                            x       y       z     vdW  Elec       q    Type
REMARK                         _______ _______ _______ _____ _____    ______ ____
ROOT
ATOM      1  C   UNL     1      33.363 -21.470 -19.592  0.00  0.00    +0.024 C 
ENDROOT
BRANCH   1   2
ATOM      2  C   UNL     1      34.386 -20.524 -20.167  0.00  0.00    -0.022 C 
ATOM      3  C   UNL     1      35.733 -20.753 -19.932  0.00  0.00    -0.004 C 
ATOM      4  C   UNL     1      33.963 -19.438 -20.921  0.00  0.00    -0.004 C 
ATOM      5  C   UNL     1      36.680 -19.878 -20.464  0.00  0.00    -0.000 C 
ATOM      6  C   UNL     1      34.911 -18.563 -21.453  0.00  0.00    -0.000 C 
ATOM      7  C   UNL     1      36.269 -18.783 -21.225  0.00  0.00    -0.000 C 
ENDBRANCH   1   2
BRANCH   1   8
ATOM      8  C   UNL     1      34.020 -22.698 -18.958  0.00  0.00    -0.019 C 
BRANCH   8   9
ATOM      9  C   UNL     1      33.293 -23.112 -17.680  0.00  0.00    -0.086 C 
BRANCH   9  10
ATOM     10  N   UNL     1      31.935 -22.581 -17.676  0.00  0.00    +0.380 N 
ATOM     11  H   UNL     1      31.883 -21.788 -17.036  0.00  0.00    -0.089 HD
ATOM     12  H   UNL     1      31.287 -23.306 -17.371  0.00  0.00    -0.089 HD
ATOM     13  H   UNL     1      31.688 -22.275 -18.617  0.00  0.00    -0.089 HD
ENDBRANCH   9  10
ENDBRANCH   8   9
ENDBRANCH   1   8
TORSDOF 4
ENDMDL
MODEL 7
REMARK VINA RESULT:      -6.0      3.411      5.560
REMARK  Name = 16259
REMARK  4 active torsions:
REMARK  status: ('A' for Active; 'I' for Inactive)
REMARK    1  A    between atoms: C_1  and  C_2
REMARK    2  A    between atoms: C_1  and  C_8
REMARK    3  A    between atoms: C_8  and  C_9
REMARK    4  A    between atoms: C_9  and  N_10
REMARK                            x       y       z     vdW  Elec       q    Type
REMARK                         _______ _______ _______ _____ _____    ______ ____
ROOT
ATOM      1  C   UNL     1      34.612 -22.444 -18.732  0.00  0.00    +0.024 C 
ENDROOT
BRANCH   1   2
ATOM      2  C   UNL     1      34.399 -21.272 -19.657  0.00  0.00    -0.022 C 
ATOM      3  C   UNL     1      33.112 -20.811 -19.887  0.00  0.00    -0.004 C 
ATOM      4  C   UNL     1      35.495 -20.675 -20.264  0.00  0.00    -0.004 C 
ATOM      5  C   UNL     1      32.915 -19.727 -20.743  0.00  0.00    -0.000 C 
ATOM      6  C   UNL     1      35.298 -19.591 -21.119  0.00  0.00    -0.000 C 
ATOM      7  C   UNL     1      34.008 -19.117 -21.358  0.00  0.00    -0.000 C 
ENDBRANCH   1   2
BRANCH   1   8
ATOM      8  C   UNL     1      33.319 -22.840 -18.013  0.00  0.00    -0.019 C 
BRANCH   8   9
ATOM      9  C   UNL     1      33.615 -23.417 -16.630  0.00  0.00    -0.086 C 
BRANCH   9  10
ATOM     10  N   UNL     1      34.918 -22.964 -16.160  0.00  0.00    +0.380 N 
ATOM     11  H   UNL     1      35.619 -23.138 -16.881  0.00  0.00    -0.089 HD
ATOM     12  H   UNL     1      35.169 -23.470 -15.312  0.00  0.00    -0.089 HD
ATOM     13  H   UNL     1      34.878 -21.964 -15.961  0.00  0.00    -0.089 HD
ENDBRANCH   9  10
ENDBRANCH   8   9
ENDBRANCH   1   8
TORSDOF 4
ENDMDL
MODEL 8
REMARK VINA RESULT:      -5.8      3.051      5.255
REMARK  Name = 16259
REMARK  4 active torsions:
REMARK  status: ('A' for Active; 'I' for Inactive)
REMARK    1  A    between atoms: C_1  and  C_2
REMARK    2  A    between atoms: C_1  and  C_8
REMARK    3  A    between atoms: C_8  and  C_9
REMARK    4  A    between atoms: C_9  and  N_10
REMARK                            x       y       z     vdW  Elec       q    Type
REMARK                         _______ _______ _______ _____ _____    ______ ____
ROOT
ATOM      1  C   UNL     1      35.258 -18.406 -21.081  0.00  0.00    +0.024 C 
ENDROOT
BRANCH   1   2
ATOM      2  C   UNL     1      34.951 -17.021 -21.593  0.00  0.00    -0.022 C 
ATOM      3  C   UNL     1      35.015 -16.768 -22.954  0.00  0.00    -0.004 C 
ATOM      4  C   UNL     1      34.610 -16.022 -20.692  0.00  0.00    -0.004 C 
ATOM      5  C   UNL     1      34.731 -15.488 -23.428  0.00  0.00    -0.000 C 
ATOM      6  C   UNL     1      34.326 -14.741 -21.166  0.00  0.00    -0.000 C 
ATOM      7  C   UNL     1      34.386 -14.474 -22.534  0.00  0.00    -0.000 C 
ENDBRANCH   1   2
BRANCH   1   8
ATOM      8  C   UNL     1      34.078 -19.360 -21.287  0.00  0.00    -0.019 C 
BRANCH   8   9
ATOM      9  C   UNL     1      34.101 -20.492 -20.262  0.00  0.00    -0.086 C 
BRANCH   9  10
ATOM     10  N   UNL     1      32.753 -20.765 -19.779  0.00  0.00    +0.380 N 
ATOM     11  H   UNL     1      32.242 -21.300 -20.481  0.00  0.00    -0.089 HD
ATOM     12  H   UNL     1      32.270 -19.884 -19.605  0.00  0.00    -0.089 HD
ATOM     13  H   UNL     1      32.805 -21.302 -18.913  0.00  0.00    -0.089 HD
ENDBRANCH   9  10
ENDBRANCH   8   9
ENDBRANCH   1   8
TORSDOF 4
ENDMDL
MODEL 9
REMARK VINA RESULT:      -5.6      2.578      4.901
REMARK  Name = 16259
REMARK  4 active torsions:
REMARK  status: ('A' for Active; 'I' for Inactive)
REMARK    1  A    between atoms: C_1  and  C_2
REMARK    2  A    between atoms: C_1  and  C_8
REMARK    3  A    between atoms: C_8  and  C_9
REMARK    4  A    between atoms: C_9  and  N_10
REMARK                            x       y       z     vdW  Elec       q    Type
REMARK                         _______ _______ _______ _____ _____    ______ ____
ROOT
ATOM      1  C   UNL     1      34.476 -19.940 -20.556  0.00  0.00    +0.024 C 
ENDROOT
BRANCH   1   2
ATOM      2  C   UNL     1      34.682 -18.904 -21.632  0.00  0.00    -0.022 C 
ATOM      3  C   UNL     1      34.723 -17.562 -21.286  0.00  0.00    -0.004 C 
ATOM      4  C   UNL     1      34.826 -19.310 -22.951  0.00  0.00    -0.004 C 
ATOM      5  C   UNL     1      34.914 -16.603 -22.280  0.00  0.00    -0.000 C 
ATOM      6  C   UNL     1      35.017 -18.351 -23.945  0.00  0.00    -0.000 C 
ATOM      7  C   UNL     1      35.061 -16.997 -23.610  0.00  0.00    -0.000 C 
ENDBRANCH   1   2
BRANCH   1   8
ATOM      8  C   UNL     1      35.791 -20.619 -20.165  0.00  0.00    -0.019 C 
BRANCH   8   9
ATOM      9  C   UNL     1      35.548 -21.760 -19.178  0.00  0.00    -0.086 C 
BRANCH   9  10
ATOM     10  N   UNL     1      36.575 -21.760 -18.143  0.00  0.00    +0.380 N 
ATOM     11  H   UNL     1      37.085 -22.644 -18.171  0.00  0.00    -0.089 HD
ATOM     12  H   UNL     1      36.137 -21.650 -17.229  0.00  0.00    -0.089 HD
ATOM     13  H   UNL     1      37.223 -20.989 -18.306  0.00  0.00    -0.089 HD
ENDBRANCH   9  10
ENDBRANCH   8   9
ENDBRANCH   1   8
TORSDOF 4
ENDMDL
