MODEL 1
REMARK VINA RESULT:      -9.8      0.000      0.000
REMARK  Name = 222528
REMARK  7 active torsions:
REMARK  status: ('A' for Active; 'I' for Inactive)
REMARK    1  A    between atoms: C_6  and  C_24
REMARK    2  A    between atoms: C_7  and  O_20
REMARK    3  A    between atoms: C_19  and  O_22
REMARK    4  A    between atoms: C_24  and  C_26
REMARK    5  A    between atoms: C_26  and  C_27
REMARK    6  A    between atoms: C_27  and  C_29
REMARK    7  A    between atoms: C_29  and  O_30
REMARK                            x       y       z     vdW  Elec       q    Type
REMARK                         _______ _______ _______ _____ _____    ______ ____
ROOT
ATOM      1  C   UNL     1      32.225 -23.498 -14.682  0.00  0.00    +0.025 C 
ATOM      2  C   UNL     1      33.365 -23.491 -15.728  0.00  0.00    +0.002 C 
ATOM      3  C   UNL     1      34.737 -23.182 -15.116  0.00  0.00    +0.000 C 
ATOM      4  C   UNL     1      35.063 -24.261 -14.032  0.00  0.00    +0.002 C 
ATOM      5  C   UNL     1      36.484 -24.036 -13.387  0.00  0.00    +0.000 C 
ATOM      6  C   UNL     1      31.030 -23.761 -15.636  0.00  0.00    +0.002 C 
ATOM      7  C   UNL     1      32.520 -24.601 -13.645  0.00  0.00    +0.110 C 
ATOM      8  C   UNL     1      33.908 -24.406 -13.000  0.00  0.00    +0.029 C 
ATOM      9  C   UNL     1      37.565 -23.971 -14.517  0.00  0.00    +0.002 C 
ATOM     10  C   UNL     1      32.834 -22.582 -16.835  0.00  0.00    +0.000 C 
ATOM     11  C   UNL     1      35.828 -23.127 -16.193  0.00  0.00    +0.000 C 
ATOM     12  C   UNL     1      31.319 -22.847 -16.849  0.00  0.00    +0.000 C 
ATOM     13  C   UNL     1      37.219 -22.934 -15.597  0.00  0.00    +0.000 C 
ATOM     14  C   UNL     1      36.874 -25.173 -12.397  0.00  0.00    +0.002 C 
ATOM     15  C   UNL     1      32.050 -22.144 -13.943  0.00  0.00    +0.002 C 
ATOM     16  C   UNL     1      37.832 -25.346 -15.167  0.00  0.00    +0.029 C 
ATOM     17  C   UNL     1      36.520 -22.722 -12.565  0.00  0.00    +0.000 C 
ATOM     18  C   UNL     1      37.107 -26.522 -13.062  0.00  0.00    +0.029 C 
ATOM     19  C   UNL     1      38.178 -26.418 -14.140  0.00  0.00    +0.111 C 
ENDROOT
BRANCH   7  20
ATOM     20  O   UNL     1      32.480 -25.889 -14.260  0.00  0.00    -0.384 OA
ATOM     21  H   UNL     1      33.376 -26.259 -14.296  0.00  0.00    +0.210 HD
ENDBRANCH   7  20
BRANCH  19  22
ATOM     22  O   UNL     1      38.304 -27.668 -14.811  0.00  0.00    -0.384 OA
ATOM     23  H   UNL     1      38.204 -28.390 -14.171  0.00  0.00    +0.210 HD
ENDBRANCH  19  22
BRANCH   6  24
ATOM     24  C   UNL     1      29.639 -23.550 -15.053  0.00  0.00    +0.001 C 
ATOM     25  C   UNL     1      28.857 -24.867 -15.071  0.00  0.00    +0.000 C 
BRANCH  24  26
ATOM     26  C   UNL     1      28.905 -22.431 -15.821  0.00  0.00    +0.012 C 
BRANCH  26  27
ATOM     27  C   UNL     1      27.727 -22.929 -16.660  0.00  0.00    +0.109 C 
BRANCH  27  29
ATOM     28  O   UNL     1      25.615 -22.050 -15.824  0.00  0.00    -0.250 OA
ATOM     29  C   UNL     1      26.554 -21.976 -16.605  0.00  0.00    +0.314 C 
BRANCH  29  30
ATOM     30  O   UNL     1      26.659 -21.006 -17.551  0.00  0.00    -0.480 OA
ATOM     31  H   UNL     1      26.284 -20.161 -17.399  0.00  0.00    +0.295 HD
ENDBRANCH  29  30
ENDBRANCH  27  29
ENDBRANCH  26  27
ENDBRANCH  24  26
ENDBRANCH   6  24
TORSDOF 7
ENDMDL
