MODEL 1
REMARK VINA RESULT:     -10.8      0.000      0.000
REMARK  Name = 446871
REMARK  8 active torsions:
REMARK  status: ('A' for Active; 'I' for Inactive)
REMARK    1  A    between atoms: C_3  and  C_22
REMARK    2  A    between atoms: C_8  and  C_19
REMARK    3  A    between atoms: C_9  and  N_11
REMARK    4  A    between atoms: C_12  and  C_15
REMARK    5  A    between atoms: C_15  and  O_16
REMARK    6  A    between atoms: C_19  and  O_20
REMARK    7  A    between atoms: C_22  and  O_23
REMARK    8  A    between atoms: O_23  and  C_28
REMARK                            x       y       z     vdW  Elec       q    Type
REMARK                         _______ _______ _______ _____ _____    ______ ____
ROOT
ATOM      1  S   UNL     1      35.896 -24.161 -15.731  0.00  0.00    -0.074 S 
ATOM      2  O   UNL     1      31.956 -23.667 -15.060  0.00  0.00    -0.347 OA
ATOM      3  C   UNL     1      33.084 -23.885 -15.941  0.00  0.00    +0.187 C 
ATOM      4  C   UNL     1      34.282 -24.416 -13.753  0.00  0.00    -0.007 A 
ATOM      5  C   UNL     1      34.313 -24.122 -15.103  0.00  0.00    +0.035 A 
ATOM      6  C   UNL     1      32.984 -24.476 -13.020  0.00  0.00    +0.059 C 
ATOM      7  C   UNL     1      31.840 -24.651 -14.023  0.00  0.00    +0.147 C 
ATOM      8  C   UNL     1      35.588 -24.626 -13.222  0.00  0.00    +0.091 A 
ATOM      9  C   UNL     1      36.560 -24.511 -14.192  0.00  0.00    +0.087 A 
ENDROOT
BRANCH   9  11
ATOM     10  O   UNL     1      38.288 -26.894 -14.736  0.00  0.00    -0.263 OA
ATOM     11  N   UNL     1      37.921 -24.636 -14.127  0.00  0.00    -0.270 N 
ATOM     12  C   UNL     1      38.667 -25.786 -14.396  0.00  0.00    +0.326 C 
ATOM     13  H   UNL     1      38.427 -23.833 -13.864  0.00  0.00    +0.156 HD
BRANCH  12  15
ATOM     14  O   UNL     1      40.624 -24.616 -13.623  0.00  0.00    -0.240 OA
ATOM     15  C   UNL     1      40.158 -25.564 -14.224  0.00  0.00    +0.393 C 
BRANCH  15  16
ATOM     16  O   UNL     1      40.846 -26.549 -14.821  0.00  0.00    -0.474 OA
ATOM     17  H   UNL     1      41.625 -26.351 -15.302  0.00  0.00    +0.296 HD
ENDBRANCH  15  16
ENDBRANCH  12  15
ENDBRANCH   9  11
BRANCH   8  19
ATOM     18  O   UNL     1      35.464 -24.303 -10.872  0.00  0.00    -0.245 OA
ATOM     19  C   UNL     1      35.896 -24.929 -11.848  0.00  0.00    +0.339 C 
BRANCH  19  20
ATOM     20  O   UNL     1      36.731 -25.999 -11.669  0.00  0.00    -0.477 OA
ATOM     21  H   UNL     1      37.145 -26.137 -10.840  0.00  0.00    +0.295 HD
ENDBRANCH  19  20
ENDBRANCH   8  19
BRANCH   3  22
ATOM     22  C   UNL     1      33.181 -22.653 -16.831  0.00  0.00    +0.241 C 
BRANCH  22  23
ATOM     23  O   UNL     1      33.596 -23.059 -18.124  0.00  0.00    -0.456 OA
BRANCH  23  28
ATOM     24  S   UNL     1      36.579 -21.244 -19.387  0.00  0.00    +0.103 S 
ATOM     25  O   UNL     1      37.165 -20.249 -18.512  0.00  0.00    -0.146 OA
ATOM     26  O   UNL     1      37.317 -21.861 -20.469  0.00  0.00    -0.146 OA
ATOM     27  N   UNL     1      35.772 -22.392 -18.503  0.00  0.00    -0.090 NA
ATOM     28  C   UNL     1      34.494 -22.270 -18.704  0.00  0.00    +0.245 C 
ATOM     29  C   UNL     1      34.030 -21.225 -19.604  0.00  0.00    +0.074 C 
ATOM     30  C   UNL     1      35.139 -20.542 -20.079  0.00  0.00    +0.134 C 
ATOM     31  C   UNL     1      32.755 -20.872 -19.995  0.00  0.00    +0.006 C 
ATOM     32  C   UNL     1      35.055 -19.486 -20.956  0.00  0.00    +0.021 C 
ATOM     33  C   UNL     1      32.634 -19.801 -20.889  0.00  0.00    +0.000 C 
ATOM     34  C   UNL     1      33.772 -19.116 -21.364  0.00  0.00    +0.001 C 
ENDBRANCH  23  28
ENDBRANCH  22  23
ENDBRANCH   3  22
TORSDOF 8
ENDMDL
MODEL 2
REMARK VINA RESULT:     -10.1      3.247      6.510
REMARK  Name = 446871
REMARK  8 active torsions:
REMARK  status: ('A' for Active; 'I' for Inactive)
REMARK    1  A    between atoms: C_3  and  C_22
REMARK    2  A    between atoms: C_8  and  C_19
REMARK    3  A    between atoms: C_9  and  N_11
REMARK    4  A    between atoms: C_12  and  C_15
REMARK    5  A    between atoms: C_15  and  O_16
REMARK    6  A    between atoms: C_19  and  O_20
REMARK    7  A    between atoms: C_22  and  O_23
REMARK    8  A    between atoms: O_23  and  C_28
REMARK                            x       y       z     vdW  Elec       q    Type
REMARK                         _______ _______ _______ _____ _____    ______ ____
ROOT
ATOM      1  S   UNL     1      31.017 -22.489 -16.906  0.00  0.00    -0.074 S 
ATOM      2  O   UNL     1      34.507 -24.374 -16.206  0.00  0.00    -0.347 OA
ATOM      3  C   UNL     1      33.709 -23.372 -16.881  0.00  0.00    +0.187 C 
ATOM      4  C   UNL     1      32.037 -23.916 -15.033  0.00  0.00    -0.007 A 
ATOM      5  C   UNL     1      32.342 -23.336 -16.251  0.00  0.00    +0.035 A 
ATOM      6  C   UNL     1      33.076 -24.668 -14.272  0.00  0.00    +0.059 C 
ATOM      7  C   UNL     1      34.467 -24.270 -14.776  0.00  0.00    +0.147 C 
ATOM      8  C   UNL     1      30.679 -23.698 -14.664  0.00  0.00    +0.091 A 
ATOM      9  C   UNL     1      30.008 -22.940 -15.599  0.00  0.00    +0.087 A 
ENDROOT
BRANCH   9  11
ATOM     10  O   UNL     1      27.930 -23.320 -17.720  0.00  0.00    -0.263 OA
ATOM     11  N   UNL     1      28.714 -22.497 -15.644  0.00  0.00    -0.270 N 
ATOM     12  C   UNL     1      27.793 -22.712 -16.672  0.00  0.00    +0.326 C 
ATOM     13  H   UNL     1      28.400 -21.972 -14.872  0.00  0.00    +0.156 HD
BRANCH  12  15
ATOM     14  O   UNL     1      25.758 -21.561 -17.248  0.00  0.00    -0.240 OA
ATOM     15  C   UNL     1      26.446 -22.075 -16.387  0.00  0.00    +0.393 C 
BRANCH  15  16
ATOM     16  O   UNL     1      26.155 -22.168 -15.081  0.00  0.00    -0.474 OA
ATOM     17  H   UNL     1      25.279 -22.012 -14.784  0.00  0.00    +0.296 HD
ENDBRANCH  15  16
ENDBRANCH  12  15
ENDBRANCH   9  11
BRANCH   8  19
ATOM     18  O   UNL     1      30.387 -23.892 -12.314  0.00  0.00    -0.245 OA
ATOM     19  C   UNL     1      30.047 -24.189 -13.465  0.00  0.00    +0.339 C 
BRANCH  19  20
ATOM     20  O   UNL     1      28.998 -25.043 -13.679  0.00  0.00    -0.477 OA
ATOM     21  H   UNL     1      28.123 -24.709 -13.721  0.00  0.00    +0.295 HD
ENDBRANCH  19  20
ENDBRANCH   8  19
BRANCH   3  22
ATOM     22  C   UNL     1      33.692 -23.755 -18.355  0.00  0.00    +0.241 C 
BRANCH  22  23
ATOM     23  O   UNL     1      33.396 -22.599 -19.120  0.00  0.00    -0.456 OA
BRANCH  23  28
ATOM     24  S   UNL     1      36.692 -20.963 -19.617  0.00  0.00    +0.103 S 
ATOM     25  O   UNL     1      37.227 -20.205 -18.505  0.00  0.00    -0.146 OA
ATOM     26  O   UNL     1      37.527 -21.473 -20.685  0.00  0.00    -0.146 OA
ATOM     27  N   UNL     1      35.656 -22.139 -19.075  0.00  0.00    -0.090 NA
ATOM     28  C   UNL     1      34.441 -21.836 -19.420  0.00  0.00    +0.245 C 
ATOM     29  C   UNL     1      34.219 -20.607 -20.167  0.00  0.00    +0.074 C 
ATOM     30  C   UNL     1      35.446 -19.990 -20.357  0.00  0.00    +0.134 C 
ATOM     31  C   UNL     1      33.058 -20.045 -20.656  0.00  0.00    +0.006 C 
ATOM     32  C   UNL     1      35.595 -18.800 -21.029  0.00  0.00    +0.021 C 
ATOM     33  C   UNL     1      33.174 -18.833 -21.346  0.00  0.00    +0.000 C 
ATOM     34  C   UNL     1      34.430 -18.217 -21.531  0.00  0.00    +0.001 C 
ENDBRANCH  23  28
ENDBRANCH  22  23
ENDBRANCH   3  22
TORSDOF 8
ENDMDL
MODEL 3
REMARK VINA RESULT:      -9.8      8.319     12.725
REMARK  Name = 446871
REMARK  8 active torsions:
REMARK  status: ('A' for Active; 'I' for Inactive)
REMARK    1  A    between atoms: C_3  and  C_22
REMARK    2  A    between atoms: C_8  and  C_19
REMARK    3  A    between atoms: C_9  and  N_11
REMARK    4  A    between atoms: C_12  and  C_15
REMARK    5  A    between atoms: C_15  and  O_16
REMARK    6  A    between atoms: C_19  and  O_20
REMARK    7  A    between atoms: C_22  and  O_23
REMARK    8  A    between atoms: O_23  and  C_28
REMARK                            x       y       z     vdW  Elec       q    Type
REMARK                         _______ _______ _______ _____ _____    ______ ____
ROOT
ATOM      1  S   UNL     1      34.622 -15.335 -21.879  0.00  0.00    -0.074 S 
ATOM      2  O   UNL     1      32.743 -13.114 -24.665  0.00  0.00    -0.347 OA
ATOM      3  C   UNL     1      33.496 -13.253 -23.436  0.00  0.00    +0.187 C 
ATOM      4  C   UNL     1      33.917 -15.603 -24.332  0.00  0.00    -0.007 A 
ATOM      5  C   UNL     1      33.939 -14.685 -23.299  0.00  0.00    +0.035 A 
ATOM      6  C   UNL     1      33.396 -15.218 -25.676  0.00  0.00    +0.059 C 
ATOM      7  C   UNL     1      33.396 -13.692 -25.805  0.00  0.00    +0.147 C 
ATOM      8  C   UNL     1      34.425 -16.872 -23.929  0.00  0.00    +0.091 A 
ATOM      9  C   UNL     1      34.838 -16.866 -22.615  0.00  0.00    +0.087 A 
ENDROOT
BRANCH   9  11
ATOM     10  O   UNL     1      33.501 -19.118 -21.164  0.00  0.00    -0.263 OA
ATOM     11  N   UNL     1      35.383 -17.849 -21.834  0.00  0.00    -0.270 N 
ATOM     12  C   UNL     1      34.696 -18.875 -21.183  0.00  0.00    +0.326 C 
ATOM     13  H   UNL     1      36.362 -17.829 -21.719  0.00  0.00    +0.156 HD
BRANCH  12  15
ATOM     14  O   UNL     1      35.247 -20.812 -19.863  0.00  0.00    -0.240 OA
ATOM     15  C   UNL     1      35.621 -19.789 -20.401  0.00  0.00    +0.393 C 
BRANCH  15  16
ATOM     16  O   UNL     1      36.870 -19.297 -20.404  0.00  0.00    -0.474 OA
ATOM     17  H   UNL     1      37.068 -18.523 -20.893  0.00  0.00    +0.296 HD
ENDBRANCH  15  16
ENDBRANCH  12  15
ENDBRANCH   9  11
BRANCH   8  19
ATOM     18  O   UNL     1      34.786 -18.030 -25.972  0.00  0.00    -0.245 OA
ATOM     19  C   UNL     1      34.516 -18.042 -24.765  0.00  0.00    +0.339 C 
BRANCH  19  20
ATOM     20  O   UNL     1      34.276 -19.227 -24.123  0.00  0.00    -0.477 OA
ATOM     21  H   UNL     1      34.891 -19.553 -23.496  0.00  0.00    +0.295 HD
ENDBRANCH  19  20
ENDBRANCH   8  19
BRANCH   3  22
ATOM     22  C   UNL     1      32.579 -12.787 -22.313  0.00  0.00    +0.241 C 
BRANCH  22  23
ATOM     23  O   UNL     1      31.752 -11.747 -22.805  0.00  0.00    -0.456 OA
BRANCH  23  28
ATOM     24  S   UNL     1      32.085  -8.460 -21.109  0.00  0.00    +0.103 S 
ATOM     25  O   UNL     1      31.124  -7.436 -21.462  0.00  0.00    -0.146 OA
ATOM     26  O   UNL     1      32.836  -8.430 -19.871  0.00  0.00    -0.146 OA
ATOM     27  N   UNL     1      31.447  -9.969 -21.367  0.00  0.00    -0.090 NA
ATOM     28  C   UNL     1      32.054 -10.529 -22.369  0.00  0.00    +0.245 C 
ATOM     29  C   UNL     1      33.112  -9.787 -23.041  0.00  0.00    +0.074 C 
ATOM     30  C   UNL     1      33.241  -8.558 -22.413  0.00  0.00    +0.134 C 
ATOM     31  C   UNL     1      33.912 -10.126 -24.112  0.00  0.00    +0.006 C 
ATOM     32  C   UNL     1      34.155  -7.607 -22.800  0.00  0.00    +0.021 C 
ATOM     33  C   UNL     1      34.854  -9.180 -24.532  0.00  0.00    +0.000 C 
ATOM     34  C   UNL     1      34.974  -7.934 -23.883  0.00  0.00    +0.001 C 
ENDBRANCH  23  28
ENDBRANCH  22  23
ENDBRANCH   3  22
TORSDOF 8
ENDMDL
MODEL 4
REMARK VINA RESULT:      -9.8      3.586      6.787
REMARK  Name = 446871
REMARK  8 active torsions:
REMARK  status: ('A' for Active; 'I' for Inactive)
REMARK    1  A    between atoms: C_3  and  C_22
REMARK    2  A    between atoms: C_8  and  C_19
REMARK    3  A    between atoms: C_9  and  N_11
REMARK    4  A    between atoms: C_12  and  C_15
REMARK    5  A    between atoms: C_15  and  O_16
REMARK    6  A    between atoms: C_19  and  O_20
REMARK    7  A    between atoms: C_22  and  O_23
REMARK    8  A    between atoms: O_23  and  C_28
REMARK                            x       y       z     vdW  Elec       q    Type
REMARK                         _______ _______ _______ _____ _____    ______ ____
ROOT
ATOM      1  S   UNL     1      31.194 -22.378 -16.797  0.00  0.00    -0.074 S 
ATOM      2  O   UNL     1      34.687 -24.271 -16.141  0.00  0.00    -0.347 OA
ATOM      3  C   UNL     1      33.899 -23.217 -16.743  0.00  0.00    +0.187 C 
ATOM      4  C   UNL     1      32.161 -23.976 -15.038  0.00  0.00    -0.007 A 
ATOM      5  C   UNL     1      32.506 -23.268 -16.174  0.00  0.00    +0.035 A 
ATOM      6  C   UNL     1      33.182 -24.787 -14.312  0.00  0.00    +0.059 C 
ATOM      7  C   UNL     1      34.584 -24.317 -14.710  0.00  0.00    +0.147 C 
ATOM      8  C   UNL     1      30.784 -23.819 -14.709  0.00  0.00    +0.091 A 
ATOM      9  C   UNL     1      30.138 -22.978 -15.589  0.00  0.00    +0.087 A 
ENDROOT
BRANCH   9  11
ATOM     10  O   UNL     1      28.122 -23.282 -17.781  0.00  0.00    -0.263 OA
ATOM     11  N   UNL     1      28.839 -22.553 -15.646  0.00  0.00    -0.270 N 
ATOM     12  C   UNL     1      27.949 -22.730 -16.707  0.00  0.00    +0.326 C 
ATOM     13  H   UNL     1      28.497 -22.073 -14.857  0.00  0.00    +0.156 HD
BRANCH  12  15
ATOM     14  O   UNL     1      25.863 -21.682 -17.297  0.00  0.00    -0.240 OA
ATOM     15  C   UNL     1      26.584 -22.128 -16.427  0.00  0.00    +0.393 C 
BRANCH  15  16
ATOM     16  O   UNL     1      26.320 -22.169 -15.112  0.00  0.00    -0.474 OA
ATOM     17  H   UNL     1      26.934 -21.813 -14.500  0.00  0.00    +0.296 HD
ENDBRANCH  15  16
ENDBRANCH  12  15
ENDBRANCH   9  11
BRANCH   8  19
ATOM     18  O   UNL     1      30.419 -24.288 -12.408  0.00  0.00    -0.245 OA
ATOM     19  C   UNL     1      30.112 -24.441 -13.597  0.00  0.00    +0.339 C 
BRANCH  19  20
ATOM     20  O   UNL     1      29.063 -25.252 -13.941  0.00  0.00    -0.477 OA
ATOM     21  H   UNL     1      29.209 -26.162 -14.107  0.00  0.00    +0.295 HD
ENDBRANCH  19  20
ENDBRANCH   8  19
BRANCH   3  22
ATOM     22  C   UNL     1      33.952 -23.445 -18.248  0.00  0.00    +0.241 C 
BRANCH  22  23
ATOM     23  O   UNL     1      34.860 -22.515 -18.816  0.00  0.00    -0.456 OA
BRANCH  23  28
ATOM     24  S   UNL     1      32.689 -20.105 -20.623  0.00  0.00    +0.103 S 
ATOM     25  O   UNL     1      32.173 -20.520 -21.911  0.00  0.00    -0.146 OA
ATOM     26  O   UNL     1      32.072 -19.056 -19.839  0.00  0.00    -0.146 OA
ATOM     27  N   UNL     1      33.017 -21.426 -19.676  0.00  0.00    -0.090 NA
ATOM     28  C   UNL     1      34.302 -21.543 -19.529  0.00  0.00    +0.245 C 
ATOM     29  C   UNL     1      35.166 -20.566 -20.176  0.00  0.00    +0.074 C 
ATOM     30  C   UNL     1      34.362 -19.662 -20.853  0.00  0.00    +0.134 C 
ATOM     31  C   UNL     1      36.540 -20.446 -20.191  0.00  0.00    +0.006 C 
ATOM     32  C   UNL     1      34.861 -18.604 -21.575  0.00  0.00    +0.021 C 
ATOM     33  C   UNL     1      37.081 -19.379 -20.918  0.00  0.00    +0.000 C 
ATOM     34  C   UNL     1      36.250 -18.468 -21.602  0.00  0.00    +0.001 C 
ENDBRANCH  23  28
ENDBRANCH  22  23
ENDBRANCH   3  22
TORSDOF 8
ENDMDL
MODEL 5
REMARK VINA RESULT:      -9.8      7.862     12.163
REMARK  Name = 446871
REMARK  8 active torsions:
REMARK  status: ('A' for Active; 'I' for Inactive)
REMARK    1  A    between atoms: C_3  and  C_22
REMARK    2  A    between atoms: C_8  and  C_19
REMARK    3  A    between atoms: C_9  and  N_11
REMARK    4  A    between atoms: C_12  and  C_15
REMARK    5  A    between atoms: C_15  and  O_16
REMARK    6  A    between atoms: C_19  and  O_20
REMARK    7  A    between atoms: C_22  and  O_23
REMARK    8  A    between atoms: O_23  and  C_28
REMARK                            x       y       z     vdW  Elec       q    Type
REMARK                         _______ _______ _______ _____ _____    ______ ____
ROOT
ATOM      1  S   UNL     1      34.858 -16.046 -21.838  0.00  0.00    -0.074 S 
ATOM      2  O   UNL     1      33.057 -13.833 -24.680  0.00  0.00    -0.347 OA
ATOM      3  C   UNL     1      33.834 -13.966 -23.466  0.00  0.00    +0.187 C 
ATOM      4  C   UNL     1      34.064 -16.380 -24.255  0.00  0.00    -0.007 A 
ATOM      5  C   UNL     1      34.180 -15.418 -23.269  0.00  0.00    +0.035 A 
ATOM      6  C   UNL     1      33.532 -16.023 -25.602  0.00  0.00    +0.059 C 
ATOM      7  C   UNL     1      33.634 -14.509 -25.806  0.00  0.00    +0.147 C 
ATOM      8  C   UNL     1      34.494 -17.661 -23.804  0.00  0.00    +0.091 A 
ATOM      9  C   UNL     1      34.945 -17.622 -22.502  0.00  0.00    +0.087 A 
ENDROOT
BRANCH   9  11
ATOM     10  O   UNL     1      33.508 -19.793 -21.024  0.00  0.00    -0.263 OA
ATOM     11  N   UNL     1      35.443 -18.603 -21.688  0.00  0.00    -0.270 N 
ATOM     12  C   UNL     1      34.710 -19.590 -21.026  0.00  0.00    +0.326 C 
ATOM     13  H   UNL     1      36.419 -18.613 -21.556  0.00  0.00    +0.156 HD
BRANCH  12  15
ATOM     14  O   UNL     1      35.266 -21.645 -19.901  0.00  0.00    -0.240 OA
ATOM     15  C   UNL     1      35.591 -20.514 -20.206  0.00  0.00    +0.393 C 
BRANCH  15  16
ATOM     16  O   UNL     1      36.740 -19.899 -19.887  0.00  0.00    -0.474 OA
ATOM     17  H   UNL     1      37.559 -20.332 -20.030  0.00  0.00    +0.296 HD
ENDBRANCH  15  16
ENDBRANCH  12  15
ENDBRANCH   9  11
BRANCH   8  19
ATOM     18  O   UNL     1      35.276 -19.809 -24.451  0.00  0.00    -0.245 OA
ATOM     19  C   UNL     1      34.478 -18.873 -24.583  0.00  0.00    +0.339 C 
BRANCH  19  20
ATOM     20  O   UNL     1      33.486 -18.938 -25.524  0.00  0.00    -0.477 OA
ATOM     21  H   UNL     1      33.687 -18.802 -26.428  0.00  0.00    +0.295 HD
ENDBRANCH  19  20
ENDBRANCH   8  19
BRANCH   3  22
ATOM     22  C   UNL     1      32.985 -13.384 -22.344  0.00  0.00    +0.241 C 
BRANCH  22  23
ATOM     23  O   UNL     1      32.001 -12.536 -22.913  0.00  0.00    -0.456 OA
BRANCH  23  28
ATOM     24  S   UNL     1      32.851  -8.935 -23.228  0.00  0.00    +0.103 S 
ATOM     25  O   UNL     1      34.250  -8.576 -23.126  0.00  0.00    -0.146 OA
ATOM     26  O   UNL     1      31.873  -8.080 -23.868  0.00  0.00    -0.146 OA
ATOM     27  N   UNL     1      32.689 -10.500 -23.752  0.00  0.00    -0.090 NA
ATOM     28  C   UNL     1      32.232 -11.234 -22.783  0.00  0.00    +0.245 C 
ATOM     29  C   UNL     1      31.963 -10.600 -21.500  0.00  0.00    +0.074 C 
ATOM     30  C   UNL     1      32.278  -9.255 -21.610  0.00  0.00    +0.134 C 
ATOM     31  C   UNL     1      31.483 -11.124 -20.318  0.00  0.00    +0.006 C 
ATOM     32  C   UNL     1      32.140  -8.361 -20.574  0.00  0.00    +0.021 C 
ATOM     33  C   UNL     1      31.330 -10.241 -19.242  0.00  0.00    +0.000 C 
ATOM     34  C   UNL     1      31.655  -8.875 -19.370  0.00  0.00    +0.001 C 
ENDBRANCH  23  28
ENDBRANCH  22  23
ENDBRANCH   3  22
TORSDOF 8
ENDMDL
MODEL 6
REMARK VINA RESULT:      -9.8      3.103      4.803
REMARK  Name = 446871
REMARK  8 active torsions:
REMARK  status: ('A' for Active; 'I' for Inactive)
REMARK    1  A    between atoms: C_3  and  C_22
REMARK    2  A    between atoms: C_8  and  C_19
REMARK    3  A    between atoms: C_9  and  N_11
REMARK    4  A    between atoms: C_12  and  C_15
REMARK    5  A    between atoms: C_15  and  O_16
REMARK    6  A    between atoms: C_19  and  O_20
REMARK    7  A    between atoms: C_22  and  O_23
REMARK    8  A    between atoms: O_23  and  C_28
REMARK                            x       y       z     vdW  Elec       q    Type
REMARK                         _______ _______ _______ _____ _____    ______ ____
ROOT
ATOM      1  S   UNL     1      37.144 -21.858 -17.632  0.00  0.00    -0.074 S 
ATOM      2  O   UNL     1      34.184 -20.957 -20.210  0.00  0.00    -0.347 OA
ATOM      3  C   UNL     1      35.584 -21.131 -19.882  0.00  0.00    +0.187 C 
ATOM      4  C   UNL     1      34.629 -22.321 -17.838  0.00  0.00    -0.007 A 
ATOM      5  C   UNL     1      35.687 -21.732 -18.505  0.00  0.00    +0.035 A 
ATOM      6  C   UNL     1      33.271 -22.356 -18.454  0.00  0.00    +0.059 C 
ATOM      7  C   UNL     1      33.389 -22.126 -19.964  0.00  0.00    +0.147 C 
ATOM      8  C   UNL     1      35.019 -22.837 -16.569  0.00  0.00    +0.091 A 
ATOM      9  C   UNL     1      36.362 -22.646 -16.328  0.00  0.00    +0.087 A 
ENDROOT
BRANCH   9  11
ATOM     10  O   UNL     1      37.270 -25.342 -15.395  0.00  0.00    -0.263 OA
ATOM     11  N   UNL     1      37.146 -22.982 -15.258  0.00  0.00    -0.270 N 
ATOM     12  C   UNL     1      37.533 -24.269 -14.879  0.00  0.00    +0.326 C 
ATOM     13  H   UNL     1      37.470 -22.239 -14.698  0.00  0.00    +0.156 HD
BRANCH  12  15
ATOM     14  O   UNL     1      39.468 -24.857 -13.571  0.00  0.00    -0.240 OA
ATOM     15  C   UNL     1      38.405 -24.270 -13.637  0.00  0.00    +0.393 C 
BRANCH  15  16
ATOM     16  O   UNL     1      37.830 -23.546 -12.665  0.00  0.00    -0.474 OA
ATOM     17  H   UNL     1      37.381 -22.751 -12.876  0.00  0.00    +0.296 HD
ENDBRANCH  15  16
ENDBRANCH  12  15
ENDBRANCH   9  11
BRANCH   8  19
ATOM     18  O   UNL     1      33.172 -22.958 -15.079  0.00  0.00    -0.245 OA
ATOM     19  C   UNL     1      34.147 -23.489 -15.625  0.00  0.00    +0.339 C 
BRANCH  19  20
ATOM     20  O   UNL     1      34.469 -24.792 -15.352  0.00  0.00    -0.477 OA
ATOM     21  H   UNL     1      33.886 -25.322 -14.846  0.00  0.00    +0.295 HD
ENDBRANCH  19  20
ENDBRANCH   8  19
BRANCH   3  22
ATOM     22  C   UNL     1      36.227 -19.756 -19.997  0.00  0.00    +0.241 C 
BRANCH  22  23
ATOM     23  O   UNL     1      36.087 -19.299 -21.332  0.00  0.00    -0.456 OA
BRANCH  23  28
ATOM     24  S   UNL     1      34.322 -16.048 -21.015  0.00  0.00    +0.103 S 
ATOM     25  O   UNL     1      32.928 -16.089 -20.623  0.00  0.00    -0.146 OA
ATOM     26  O   UNL     1      35.142 -14.865 -20.850  0.00  0.00    -0.146 OA
ATOM     27  N   UNL     1      35.121 -17.392 -20.464  0.00  0.00    -0.090 NA
ATOM     28  C   UNL     1      35.437 -18.149 -21.471  0.00  0.00    +0.245 C 
ATOM     29  C   UNL     1      35.061 -17.715 -22.809  0.00  0.00    +0.074 C 
ATOM     30  C   UNL     1      34.401 -16.501 -22.699  0.00  0.00    +0.134 C 
ATOM     31  C   UNL     1      35.263 -18.305 -24.039  0.00  0.00    +0.006 C 
ATOM     32  C   UNL     1      33.909 -15.810 -23.780  0.00  0.00    +0.021 C 
ATOM     33  C   UNL     1      34.775 -17.628 -25.162  0.00  0.00    +0.000 C 
ATOM     34  C   UNL     1      34.105 -16.393 -25.034  0.00  0.00    +0.001 C 
ENDBRANCH  23  28
ENDBRANCH  22  23
ENDBRANCH   3  22
TORSDOF 8
ENDMDL
MODEL 7
REMARK VINA RESULT:      -9.8     10.906     14.996
REMARK  Name = 446871
REMARK  8 active torsions:
REMARK  status: ('A' for Active; 'I' for Inactive)
REMARK    1  A    between atoms: C_3  and  C_22
REMARK    2  A    between atoms: C_8  and  C_19
REMARK    3  A    between atoms: C_9  and  N_11
REMARK    4  A    between atoms: C_12  and  C_15
REMARK    5  A    between atoms: C_15  and  O_16
REMARK    6  A    between atoms: C_19  and  O_20
REMARK    7  A    between atoms: C_22  and  O_23
REMARK    8  A    between atoms: O_23  and  C_28
REMARK                            x       y       z     vdW  Elec       q    Type
REMARK                         _______ _______ _______ _____ _____    ______ ____
ROOT
ATOM      1  S   UNL     1      32.874 -12.789 -24.018  0.00  0.00    -0.074 S 
ATOM      2  O   UNL     1      31.917 -10.089 -21.188  0.00  0.00    -0.347 OA
ATOM      3  C   UNL     1      32.029 -10.506 -22.569  0.00  0.00    +0.187 C 
ATOM      4  C   UNL     1      32.290 -12.816 -21.519  0.00  0.00    -0.007 A 
ATOM      5  C   UNL     1      32.391 -11.967 -22.606  0.00  0.00    +0.035 A 
ATOM      6  C   UNL     1      31.839 -12.299 -20.195  0.00  0.00    +0.059 C 
ATOM      7  C   UNL     1      31.110 -10.966 -20.388  0.00  0.00    +0.147 C 
ATOM      8  C   UNL     1      32.665 -14.150 -21.848  0.00  0.00    +0.091 A 
ATOM      9  C   UNL     1      33.011 -14.274 -23.176  0.00  0.00    +0.087 A 
ENDROOT
BRANCH   9  11
ATOM     10  O   UNL     1      35.482 -15.941 -22.898  0.00  0.00    -0.263 OA
ATOM     11  N   UNL     1      33.422 -15.356 -23.906  0.00  0.00    -0.270 N 
ATOM     12  C   UNL     1      34.594 -16.091 -23.721  0.00  0.00    +0.326 C 
ATOM     13  H   UNL     1      32.830 -15.645 -24.639  0.00  0.00    +0.156 HD
BRANCH  12  15
ATOM     14  O   UNL     1      34.701 -18.401 -24.394  0.00  0.00    -0.240 OA
ATOM     15  C   UNL     1      34.730 -17.229 -24.716  0.00  0.00    +0.393 C 
BRANCH  15  16
ATOM     16  O   UNL     1      34.882 -16.744 -25.957  0.00  0.00    -0.474 OA
ATOM     17  H   UNL     1      34.952 -17.331 -26.684  0.00  0.00    +0.296 HD
ENDBRANCH  15  16
ENDBRANCH  12  15
ENDBRANCH   9  11
BRANCH   8  19
ATOM     18  O   UNL     1      31.735 -16.024 -20.720  0.00  0.00    -0.245 OA
ATOM     19  C   UNL     1      32.688 -15.264 -20.934  0.00  0.00    +0.339 C 
BRANCH  19  20
ATOM     20  O   UNL     1      33.878 -15.446 -20.282  0.00  0.00    -0.477 OA
ATOM     21  H   UNL     1      34.143 -14.845 -19.613  0.00  0.00    +0.295 HD
ENDBRANCH  19  20
ENDBRANCH   8  19
BRANCH   3  22
ATOM     22  C   UNL     1      33.075  -9.602 -23.209  0.00  0.00    +0.241 C 
BRANCH  22  23
ATOM     23  O   UNL     1      33.138  -8.391 -22.475  0.00  0.00    -0.456 OA
BRANCH  23  28
ATOM     24  S   UNL     1      31.162  -5.503 -23.716  0.00  0.00    +0.103 S 
ATOM     25  O   UNL     1      30.047  -5.795 -24.592  0.00  0.00    -0.146 OA
ATOM     26  O   UNL     1      31.264  -4.265 -22.971  0.00  0.00    -0.146 OA
ATOM     27  N   UNL     1      31.487  -6.801 -22.737  0.00  0.00    -0.090 NA
ATOM     28  C   UNL     1      32.620  -7.331 -23.086  0.00  0.00    +0.245 C 
ATOM     29  C   UNL     1      33.352  -6.736 -24.195  0.00  0.00    +0.074 C 
ATOM     30  C   UNL     1      32.620  -5.656 -24.664  0.00  0.00    +0.134 C 
ATOM     31  C   UNL     1      34.557  -7.082 -24.770  0.00  0.00    +0.006 C 
ATOM     32  C   UNL     1      33.029  -4.867 -25.713  0.00  0.00    +0.021 C 
ATOM     33  C   UNL     1      35.003  -6.300 -25.842  0.00  0.00    +0.000 C 
ATOM     34  C   UNL     1      34.246  -5.204 -26.308  0.00  0.00    +0.001 C 
ENDBRANCH  23  28
ENDBRANCH  22  23
ENDBRANCH   3  22
TORSDOF 8
ENDMDL
MODEL 8
REMARK VINA RESULT:      -9.5      9.721     14.262
REMARK  Name = 446871
REMARK  8 active torsions:
REMARK  status: ('A' for Active; 'I' for Inactive)
REMARK    1  A    between atoms: C_3  and  C_22
REMARK    2  A    between atoms: C_8  and  C_19
REMARK    3  A    between atoms: C_9  and  N_11
REMARK    4  A    between atoms: C_12  and  C_15
REMARK    5  A    between atoms: C_15  and  O_16
REMARK    6  A    between atoms: C_19  and  O_20
REMARK    7  A    between atoms: C_22  and  O_23
REMARK    8  A    between atoms: O_23  and  C_28
REMARK                            x       y       z     vdW  Elec       q    Type
REMARK                         _______ _______ _______ _____ _____    ______ ____
ROOT
ATOM      1  S   UNL     1      33.686 -14.223 -22.181  0.00  0.00    -0.074 S 
ATOM      2  O   UNL     1      33.112 -11.215 -24.796  0.00  0.00    -0.347 OA
ATOM      3  C   UNL     1      33.447 -11.717 -23.481  0.00  0.00    +0.187 C 
ATOM      4  C   UNL     1      33.668 -13.930 -24.730  0.00  0.00    -0.007 A 
ATOM      5  C   UNL     1      33.564 -13.216 -23.550  0.00  0.00    +0.035 A 
ATOM      6  C   UNL     1      33.629 -13.227 -26.045  0.00  0.00    +0.059 C 
ATOM      7  C   UNL     1      33.943 -11.742 -25.840  0.00  0.00    +0.147 C 
ATOM      8  C   UNL     1      33.801 -15.329 -24.498  0.00  0.00    +0.091 A 
ATOM      9  C   UNL     1      33.819 -15.627 -23.153  0.00  0.00    +0.087 A 
ENDROOT
BRANCH   9  11
ATOM     10  O   UNL     1      36.218 -17.373 -22.757  0.00  0.00    -0.263 OA
ATOM     11  N   UNL     1      33.932 -16.820 -22.492  0.00  0.00    -0.270 N 
ATOM     12  C   UNL     1      35.090 -17.586 -22.345  0.00  0.00    +0.326 C 
ATOM     13  H   UNL     1      33.111 -17.174 -22.077  0.00  0.00    +0.156 HD
BRANCH  12  15
ATOM     14  O   UNL     1      33.932 -19.620 -21.779  0.00  0.00    -0.240 OA
ATOM     15  C   UNL     1      34.849 -18.856 -21.550  0.00  0.00    +0.393 C 
BRANCH  15  16
ATOM     16  O   UNL     1      35.779 -18.986 -20.591  0.00  0.00    -0.474 OA
ATOM     17  H   UNL     1      35.617 -18.647 -19.733  0.00  0.00    +0.296 HD
ENDBRANCH  15  16
ENDBRANCH  12  15
ENDBRANCH   9  11
BRANCH   8  19
ATOM     18  O   UNL     1      32.987 -16.700 -26.260  0.00  0.00    -0.245 OA
ATOM     19  C   UNL     1      33.910 -16.341 -25.518  0.00  0.00    +0.339 C 
BRANCH  19  20
ATOM     20  O   UNL     1      35.149 -16.913 -25.629  0.00  0.00    -0.477 OA
ATOM     21  H   UNL     1      35.346 -17.467 -26.357  0.00  0.00    +0.295 HD
ENDBRANCH  19  20
ENDBRANCH   8  19
BRANCH   3  22
ATOM     22  C   UNL     1      32.350 -11.233 -22.542  0.00  0.00    +0.241 C 
BRANCH  22  23
ATOM     23  O   UNL     1      31.846 -10.002 -23.030  0.00  0.00    -0.456 OA
BRANCH  23  28
ATOM     24  S   UNL     1      32.347  -7.623 -20.224  0.00  0.00    +0.103 S 
ATOM     25  O   UNL     1      31.287  -7.529 -19.242  0.00  0.00    -0.146 OA
ATOM     26  O   UNL     1      33.707  -7.210 -19.944  0.00  0.00    -0.146 OA
ATOM     27  N   UNL     1      32.329  -9.109 -20.958  0.00  0.00    -0.090 NA
ATOM     28  C   UNL     1      31.953  -8.975 -22.195  0.00  0.00    +0.245 C 
ATOM     29  C   UNL     1      31.638  -7.640 -22.682  0.00  0.00    +0.074 C 
ATOM     30  C   UNL     1      31.822  -6.745 -21.639  0.00  0.00    +0.134 C 
ATOM     31  C   UNL     1      31.222  -7.208 -23.924  0.00  0.00    +0.006 C 
ATOM     32  C   UNL     1      31.610  -5.392 -21.760  0.00  0.00    +0.021 C 
ATOM     33  C   UNL     1      30.996  -5.835 -24.082  0.00  0.00    +0.000 C 
ATOM     34  C   UNL     1      31.188  -4.938 -23.011  0.00  0.00    +0.001 C 
ENDBRANCH  23  28
ENDBRANCH  22  23
ENDBRANCH   3  22
TORSDOF 8
ENDMDL
MODEL 9
REMARK VINA RESULT:      -9.4      2.347      3.033
REMARK  Name = 446871
REMARK  8 active torsions:
REMARK  status: ('A' for Active; 'I' for Inactive)
REMARK    1  A    between atoms: C_3  and  C_22
REMARK    2  A    between atoms: C_8  and  C_19
REMARK    3  A    between atoms: C_9  and  N_11
REMARK    4  A    between atoms: C_12  and  C_15
REMARK    5  A    between atoms: C_15  and  O_16
REMARK    6  A    between atoms: C_19  and  O_20
REMARK    7  A    between atoms: C_22  and  O_23
REMARK    8  A    between atoms: O_23  and  C_28
REMARK                            x       y       z     vdW  Elec       q    Type
REMARK                         _______ _______ _______ _____ _____    ______ ____
ROOT
ATOM      1  S   UNL     1      34.521 -23.214 -16.915  0.00  0.00    -0.074 S 
ATOM      2  O   UNL     1      30.564 -22.477 -17.055  0.00  0.00    -0.347 OA
ATOM      3  C   UNL     1      31.842 -22.719 -17.691  0.00  0.00    +0.187 C 
ATOM      4  C   UNL     1      32.505 -23.479 -15.349  0.00  0.00    -0.007 A 
ATOM      5  C   UNL     1      32.844 -23.100 -16.635  0.00  0.00    +0.035 A 
ATOM      6  C   UNL     1      31.078 -23.492 -14.915  0.00  0.00    +0.059 C 
ATOM      7  C   UNL     1      30.170 -23.516 -16.147  0.00  0.00    +0.147 C 
ATOM      8  C   UNL     1      33.651 -23.819 -14.573  0.00  0.00    +0.091 A 
ATOM      9  C   UNL     1      34.815 -23.712 -15.303  0.00  0.00    +0.087 A 
ENDROOT
BRANCH   9  11
ATOM     10  O   UNL     1      36.432 -26.223 -15.508  0.00  0.00    -0.263 OA
ATOM     11  N   UNL     1      36.120 -23.941 -14.962  0.00  0.00    -0.270 N 
ATOM     12  C   UNL     1      36.816 -25.146 -15.085  0.00  0.00    +0.326 C 
ATOM     13  H   UNL     1      36.620 -23.178 -14.591  0.00  0.00    +0.156 HD
BRANCH  12  15
ATOM     14  O   UNL     1      38.589 -24.355 -13.661  0.00  0.00    -0.240 OA
ATOM     15  C   UNL     1      38.252 -25.038 -14.608  0.00  0.00    +0.393 C 
BRANCH  15  16
ATOM     16  O   UNL     1      39.054 -25.791 -15.376  0.00  0.00    -0.474 OA
ATOM     17  H   UNL     1      39.654 -25.383 -15.969  0.00  0.00    +0.296 HD
ENDBRANCH  15  16
ENDBRANCH  12  15
ENDBRANCH   9  11
BRANCH   8  19
ATOM     18  O   UNL     1      32.926 -25.134 -12.732  0.00  0.00    -0.245 OA
ATOM     19  C   UNL     1      33.636 -24.232 -13.193  0.00  0.00    +0.339 C 
BRANCH  19  20
ATOM     20  O   UNL     1      34.493 -23.542 -12.377  0.00  0.00    -0.477 OA
ATOM     21  H   UNL     1      34.199 -22.769 -11.937  0.00  0.00    +0.295 HD
ENDBRANCH  19  20
ENDBRANCH   8  19
BRANCH   3  22
ATOM     22  C   UNL     1      32.200 -21.443 -18.440  0.00  0.00    +0.241 C 
BRANCH  22  23
ATOM     23  O   UNL     1      32.736 -21.794 -19.704  0.00  0.00    -0.456 OA
BRANCH  23  28
ATOM     24  S   UNL     1      33.939 -18.906 -21.704  0.00  0.00    +0.103 S 
ATOM     25  O   UNL     1      34.127 -19.119 -23.124  0.00  0.00    -0.146 OA
ATOM     26  O   UNL     1      33.761 -17.587 -21.132  0.00  0.00    -0.146 OA
ATOM     27  N   UNL     1      32.810 -19.959 -21.102  0.00  0.00    -0.090 NA
ATOM     28  C   UNL     1      33.395 -20.823 -20.329  0.00  0.00    +0.245 C 
ATOM     29  C   UNL     1      34.835 -20.722 -20.141  0.00  0.00    +0.074 C 
ATOM     30  C   UNL     1      35.292 -19.645 -20.885  0.00  0.00    +0.134 C 
ATOM     31  C   UNL     1      35.704 -21.487 -19.391  0.00  0.00    +0.006 C 
ATOM     32  C   UNL     1      36.613 -19.267 -20.932  0.00  0.00    +0.021 C 
ATOM     33  C   UNL     1      37.057 -21.130 -19.416  0.00  0.00    +0.000 C 
ATOM     34  C   UNL     1      37.506 -20.031 -20.178  0.00  0.00    +0.001 C 
ENDBRANCH  23  28
ENDBRANCH  22  23
ENDBRANCH   3  22
TORSDOF 8
ENDMDL
