MODEL 1
REMARK VINA RESULT:      -6.3      0.000      0.000
REMARK  Name = 82068
REMARK  3 active torsions:
REMARK  status: ('A' for Active; 'I' for Inactive)
REMARK    1  A    between atoms: C_2  and  C_8
REMARK    2  A    between atoms: C_8  and  C_9
REMARK    3  A    between atoms: C_9  and  O_10
REMARK                            x       y       z     vdW  Elec       q    Type
REMARK                         _______ _______ _______ _____ _____    ______ ____
ROOT
ATOM      1  F   UNL     1      33.049 -22.160 -18.914  0.00  0.00    -0.204 F 
ATOM      2  C   UNL     1      35.158 -19.375 -21.114  0.00  0.00    -0.020 C 
ATOM      3  C   UNL     1      33.765 -19.326 -21.080  0.00  0.00    -0.002 C 
ATOM      4  C   UNL     1      35.840 -20.364 -20.405  0.00  0.00    -0.002 C 
ATOM      5  C   UNL     1      33.052 -20.267 -20.336  0.00  0.00    +0.029 C 
ATOM      6  C   UNL     1      35.127 -21.305 -19.662  0.00  0.00    +0.029 C 
ATOM      7  C   UNL     1      33.734 -21.256 -19.626  0.00  0.00    +0.140 C 
ENDROOT
BRANCH   2   8
ATOM      8  C   UNL     1      35.922 -18.369 -21.908  0.00  0.00    +0.058 C 
BRANCH   8   9
ATOM      9  C   UNL     1      35.108 -17.108 -22.216  0.00  0.00    +0.142 C 
BRANCH   9  10
ATOM     10  O   UNL     1      35.713 -16.403 -23.292  0.00  0.00    -0.382 OA
ATOM     11  H   UNL     1      35.022 -16.020 -23.856  0.00  0.00    +0.210 HD
ENDBRANCH   9  10
ENDBRANCH   8   9
ENDBRANCH   2   8
TORSDOF 3
ENDMDL
MODEL 2
REMARK VINA RESULT:      -6.2      0.551      1.624
REMARK  Name = 82068
REMARK  3 active torsions:
REMARK  status: ('A' for Active; 'I' for Inactive)
REMARK    1  A    between atoms: C_2  and  C_8
REMARK    2  A    between atoms: C_8  and  C_9
REMARK    3  A    between atoms: C_9  and  O_10
REMARK                            x       y       z     vdW  Elec       q    Type
REMARK                         _______ _______ _______ _____ _____    ______ ____
ROOT
ATOM      1  F   UNL     1      33.062 -22.377 -18.776  0.00  0.00    -0.204 F 
ATOM      2  C   UNL     1      35.241 -19.611 -20.933  0.00  0.00    -0.020 C 
ATOM      3  C   UNL     1      35.899 -20.594 -20.194  0.00  0.00    -0.002 C 
ATOM      4  C   UNL     1      33.847 -19.562 -20.944  0.00  0.00    -0.002 C 
ATOM      5  C   UNL     1      35.163 -21.529 -19.466  0.00  0.00    +0.029 C 
ATOM      6  C   UNL     1      33.111 -20.496 -20.215  0.00  0.00    +0.029 C 
ATOM      7  C   UNL     1      33.769 -21.480 -19.477  0.00  0.00    +0.140 C 
ENDROOT
BRANCH   2   8
ATOM      8  C   UNL     1      36.027 -18.611 -21.712  0.00  0.00    +0.058 C 
BRANCH   8   9
ATOM      9  C   UNL     1      35.373 -18.246 -23.048  0.00  0.00    +0.142 C 
BRANCH   9  10
ATOM     10  O   UNL     1      35.749 -16.925 -23.416  0.00  0.00    -0.382 OA
ATOM     11  H   UNL     1      36.101 -16.930 -24.321  0.00  0.00    +0.210 HD
ENDBRANCH   9  10
ENDBRANCH   8   9
ENDBRANCH   2   8
TORSDOF 3
ENDMDL
MODEL 3
REMARK VINA RESULT:      -6.0      3.437      4.547
REMARK  Name = 82068
REMARK  3 active torsions:
REMARK  status: ('A' for Active; 'I' for Inactive)
REMARK    1  A    between atoms: C_2  and  C_8
REMARK    2  A    between atoms: C_8  and  C_9
REMARK    3  A    between atoms: C_9  and  O_10
REMARK                            x       y       z     vdW  Elec       q    Type
REMARK                         _______ _______ _______ _____ _____    ______ ____
ROOT
ATOM      1  F   UNL     1      34.345 -17.650 -22.393  0.00  0.00    -0.204 F 
ATOM      2  C   UNL     1      34.962 -20.869 -19.882  0.00  0.00    -0.020 C 
ATOM      3  C   UNL     1      33.664 -20.499 -20.235  0.00  0.00    -0.002 C 
ATOM      4  C   UNL     1      36.051 -20.153 -20.377  0.00  0.00    -0.002 C 
ATOM      5  C   UNL     1      33.456 -19.412 -21.084  0.00  0.00    +0.029 C 
ATOM      6  C   UNL     1      35.843 -19.065 -21.225  0.00  0.00    +0.029 C 
ATOM      7  C   UNL     1      34.546 -18.695 -21.579  0.00  0.00    +0.140 C 
ENDROOT
BRANCH   2   8
ATOM      8  C   UNL     1      35.186 -22.032 -18.975  0.00  0.00    +0.058 C 
BRANCH   8   9
ATOM      9  C   UNL     1      33.894 -22.781 -18.634  0.00  0.00    +0.142 C 
BRANCH   9  10
ATOM     10  O   UNL     1      33.865 -24.019 -19.332  0.00  0.00    -0.382 OA
ATOM     11  H   UNL     1      33.995 -23.859 -20.280  0.00  0.00    +0.210 HD
ENDBRANCH   9  10
ENDBRANCH   8   9
ENDBRANCH   2   8
TORSDOF 3
ENDMDL
MODEL 4
REMARK VINA RESULT:      -6.0      3.637      4.910
REMARK  Name = 82068
REMARK  3 active torsions:
REMARK  status: ('A' for Active; 'I' for Inactive)
REMARK    1  A    between atoms: C_2  and  C_8
REMARK    2  A    between atoms: C_8  and  C_9
REMARK    3  A    between atoms: C_9  and  O_10
REMARK                            x       y       z     vdW  Elec       q    Type
REMARK                         _______ _______ _______ _____ _____    ______ ____
ROOT
ATOM      1  F   UNL     1      35.219 -15.814 -24.087  0.00  0.00    -0.204 F 
ATOM      2  C   UNL     1      34.703 -19.034 -21.555  0.00  0.00    -0.020 C 
ATOM      3  C   UNL     1      34.821 -19.240 -22.929  0.00  0.00    -0.002 C 
ATOM      4  C   UNL     1      34.759 -17.741 -21.036  0.00  0.00    -0.002 C 
ATOM      5  C   UNL     1      34.996 -18.152 -23.785  0.00  0.00    +0.029 C 
ATOM      6  C   UNL     1      34.933 -16.654 -21.891  0.00  0.00    +0.029 C 
ATOM      7  C   UNL     1      35.053 -16.859 -23.265  0.00  0.00    +0.140 C 
ENDROOT
BRANCH   2   8
ATOM      8  C   UNL     1      34.516 -20.197 -20.639  0.00  0.00    +0.058 C 
BRANCH   8   9
ATOM      9  C   UNL     1      33.049 -20.433 -20.265  0.00  0.00    +0.142 C 
BRANCH   9  10
ATOM     10  O   UNL     1      32.867 -21.794 -19.895  0.00  0.00    -0.382 OA
ATOM     11  H   UNL     1      32.463 -22.278 -20.634  0.00  0.00    +0.210 HD
ENDBRANCH   9  10
ENDBRANCH   8   9
ENDBRANCH   2   8
TORSDOF 3
ENDMDL
MODEL 5
REMARK VINA RESULT:      -5.8      3.706      5.058
REMARK  Name = 82068
REMARK  3 active torsions:
REMARK  status: ('A' for Active; 'I' for Inactive)
REMARK    1  A    between atoms: C_2  and  C_8
REMARK    2  A    between atoms: C_8  and  C_9
REMARK    3  A    between atoms: C_9  and  O_10
REMARK                            x       y       z     vdW  Elec       q    Type
REMARK                         _______ _______ _______ _____ _____    ______ ____
ROOT
ATOM      1  F   UNL     1      34.755 -18.036 -22.048  0.00  0.00    -0.204 F 
ATOM      2  C   UNL     1      34.037 -21.326 -19.659  0.00  0.00    -0.020 C 
ATOM      3  C   UNL     1      35.344 -20.994 -20.014  0.00  0.00    -0.002 C 
ATOM      4  C   UNL     1      32.972 -20.547 -20.110  0.00  0.00    -0.002 C 
ATOM      5  C   UNL     1      35.586 -19.882 -20.821  0.00  0.00    +0.029 C 
ATOM      6  C   UNL     1      33.214 -19.436 -20.918  0.00  0.00    +0.029 C 
ATOM      7  C   UNL     1      34.521 -19.103 -21.272  0.00  0.00    +0.140 C 
ENDROOT
BRANCH   2   8
ATOM      8  C   UNL     1      33.776 -22.514 -18.796  0.00  0.00    +0.058 C 
BRANCH   8   9
ATOM      9  C   UNL     1      34.780 -22.651 -17.648  0.00  0.00    +0.142 C 
BRANCH   9  10
ATOM     10  O   UNL     1      34.415 -23.752 -16.825  0.00  0.00    -0.382 OA
ATOM     11  H   UNL     1      35.039 -24.482 -16.967  0.00  0.00    +0.210 HD
ENDBRANCH   9  10
ENDBRANCH   8   9
ENDBRANCH   2   8
TORSDOF 3
ENDMDL
MODEL 6
REMARK VINA RESULT:      -5.7      3.877      5.291
REMARK  Name = 82068
REMARK  3 active torsions:
REMARK  status: ('A' for Active; 'I' for Inactive)
REMARK    1  A    between atoms: C_2  and  C_8
REMARK    2  A    between atoms: C_8  and  C_9
REMARK    3  A    between atoms: C_9  and  O_10
REMARK                            x       y       z     vdW  Elec       q    Type
REMARK                         _______ _______ _______ _____ _____    ______ ____
ROOT
ATOM      1  F   UNL     1      34.220 -15.783 -25.964  0.00  0.00    -0.204 F 
ATOM      2  C   UNL     1      34.978 -18.442 -22.898  0.00  0.00    -0.020 C 
ATOM      3  C   UNL     1      35.086 -17.069 -22.673  0.00  0.00    -0.002 C 
ATOM      4  C   UNL     1      34.613 -18.916 -24.158  0.00  0.00    -0.002 C 
ATOM      5  C   UNL     1      34.829 -16.171 -23.709  0.00  0.00    +0.029 C 
ATOM      6  C   UNL     1      34.358 -18.018 -25.193  0.00  0.00    +0.029 C 
ATOM      7  C   UNL     1      34.465 -16.645 -24.969  0.00  0.00    +0.140 C 
ENDROOT
BRANCH   2   8
ATOM      8  C   UNL     1      35.251 -19.403 -21.791  0.00  0.00    +0.058 C 
BRANCH   8   9
ATOM      9  C   UNL     1      36.457 -19.002 -20.936  0.00  0.00    +0.142 C 
BRANCH   9  10
ATOM     10  O   UNL     1      36.555 -19.872 -19.815  0.00  0.00    -0.382 OA
ATOM     11  H   UNL     1      37.484 -20.121 -19.680  0.00  0.00    +0.210 HD
ENDBRANCH   9  10
ENDBRANCH   8   9
ENDBRANCH   2   8
TORSDOF 3
ENDMDL
MODEL 7
REMARK VINA RESULT:      -5.7      3.199      4.092
REMARK  Name = 82068
REMARK  3 active torsions:
REMARK  status: ('A' for Active; 'I' for Inactive)
REMARK    1  A    between atoms: C_2  and  C_8
REMARK    2  A    between atoms: C_8  and  C_9
REMARK    3  A    between atoms: C_9  and  O_10
REMARK                            x       y       z     vdW  Elec       q    Type
REMARK                         _______ _______ _______ _____ _____    ______ ____
ROOT
ATOM      1  F   UNL     1      34.988 -19.973 -24.526  0.00  0.00    -0.204 F 
ATOM      2  C   UNL     1      34.604 -16.773 -21.945  0.00  0.00    -0.020 C 
ATOM      3  C   UNL     1      34.837 -16.550 -23.301  0.00  0.00    -0.002 C 
ATOM      4  C   UNL     1      34.500 -18.077 -21.459  0.00  0.00    -0.002 C 
ATOM      5  C   UNL     1      34.966 -17.631 -24.174  0.00  0.00    +0.029 C 
ATOM      6  C   UNL     1      34.630 -19.157 -22.331  0.00  0.00    +0.029 C 
ATOM      7  C   UNL     1      34.862 -18.935 -23.688  0.00  0.00    +0.140 C 
ENDROOT
BRANCH   2   8
ATOM      8  C   UNL     1      34.465 -15.618 -21.011  0.00  0.00    +0.058 C 
BRANCH   8   9
ATOM      9  C   UNL     1      33.019 -15.382 -20.564  0.00  0.00    +0.142 C 
BRANCH   9  10
ATOM     10  O   UNL     1      32.229 -15.013 -21.686  0.00  0.00    -0.382 OA
ATOM     11  H   UNL     1      32.667 -14.293 -22.168  0.00  0.00    +0.210 HD
ENDBRANCH   9  10
ENDBRANCH   8   9
ENDBRANCH   2   8
TORSDOF 3
ENDMDL
MODEL 8
REMARK VINA RESULT:      -5.7      3.613      4.645
REMARK  Name = 82068
REMARK  3 active torsions:
REMARK  status: ('A' for Active; 'I' for Inactive)
REMARK    1  A    between atoms: C_2  and  C_8
REMARK    2  A    between atoms: C_8  and  C_9
REMARK    3  A    between atoms: C_9  and  O_10
REMARK                            x       y       z     vdW  Elec       q    Type
REMARK                         _______ _______ _______ _____ _____    ______ ____
ROOT
ATOM      1  F   UNL     1      34.983 -20.152 -24.660  0.00  0.00    -0.204 F 
ATOM      2  C   UNL     1      34.639 -16.246 -23.366  0.00  0.00    -0.020 C 
ATOM      3  C   UNL     1      34.399 -16.561 -24.703  0.00  0.00    -0.002 C 
ATOM      4  C   UNL     1      34.995 -17.249 -22.466  0.00  0.00    -0.002 C 
ATOM      5  C   UNL     1      34.515 -17.881 -25.140  0.00  0.00    +0.029 C 
ATOM      6  C   UNL     1      35.111 -18.569 -22.902  0.00  0.00    +0.029 C 
ATOM      7  C   UNL     1      34.871 -18.885 -24.239  0.00  0.00    +0.140 C 
ENDROOT
BRANCH   2   8
ATOM      8  C   UNL     1      34.515 -14.835 -22.898  0.00  0.00    +0.058 C 
BRANCH   8   9
ATOM      9  C   UNL     1      33.736 -13.948 -23.873  0.00  0.00    +0.142 C 
BRANCH   9  10
ATOM     10  O   UNL     1      34.210 -12.611 -23.783  0.00  0.00    -0.382 OA
ATOM     11  H   UNL     1      33.456 -12.005 -23.704  0.00  0.00    +0.210 HD
ENDBRANCH   9  10
ENDBRANCH   8   9
ENDBRANCH   2   8
TORSDOF 3
ENDMDL
MODEL 9
REMARK VINA RESULT:      -5.7      1.711      2.582
REMARK  Name = 82068
REMARK  3 active torsions:
REMARK  status: ('A' for Active; 'I' for Inactive)
REMARK    1  A    between atoms: C_2  and  C_8
REMARK    2  A    between atoms: C_8  and  C_9
REMARK    3  A    between atoms: C_9  and  O_10
REMARK                            x       y       z     vdW  Elec       q    Type
REMARK                         _______ _______ _______ _____ _____    ______ ____
ROOT
ATOM      1  F   UNL     1      35.704 -21.165 -19.339  0.00  0.00    -0.204 F 
ATOM      2  C   UNL     1      35.153 -18.379 -22.336  0.00  0.00    -0.020 C 
ATOM      3  C   UNL     1      36.412 -18.542 -21.759  0.00  0.00    -0.002 C 
ATOM      4  C   UNL     1      34.080 -19.157 -21.902  0.00  0.00    -0.002 C 
ATOM      5  C   UNL     1      36.598 -19.484 -20.746  0.00  0.00    +0.029 C 
ATOM      6  C   UNL     1      34.266 -20.098 -20.889  0.00  0.00    +0.029 C 
ATOM      7  C   UNL     1      35.525 -20.262 -20.312  0.00  0.00    +0.140 C 
ENDROOT
BRANCH   2   8
ATOM      8  C   UNL     1      34.953 -17.373 -23.419  0.00  0.00    +0.058 C 
BRANCH   8   9
ATOM      9  C   UNL     1      34.591 -18.008 -24.765  0.00  0.00    +0.142 C 
BRANCH   9  10
ATOM     10  O   UNL     1      34.796 -17.062 -25.807  0.00  0.00    -0.382 OA
ATOM     11  H   UNL     1      34.267 -17.314 -26.581  0.00  0.00    +0.210 HD
ENDBRANCH   9  10
ENDBRANCH   8   9
ENDBRANCH   2   8
TORSDOF 3
ENDMDL
