MODEL 1
REMARK VINA RESULT:      -8.8      0.000      0.000
REMARK  Name = 8642
REMARK  7 active torsions:
REMARK  status: ('A' for Active; 'I' for Inactive)
REMARK    1  A    between atoms: C_2  and  O_16
REMARK    2  A    between atoms: C_3  and  C_18
REMARK    3  A    between atoms: C_5  and  N_9
REMARK    4  A    between atoms: C_18  and  O_19
REMARK    5  A    between atoms: O_19  and  P_20
REMARK    6  A    between atoms: P_20  and  O_22
REMARK    7  A    between atoms: P_20  and  O_24
REMARK                            x       y       z     vdW  Elec       q    Type
REMARK                         _______ _______ _______ _____ _____    ______ ____
ROOT
ATOM      1  O   UNL     1      35.715 -24.904 -15.887  0.00  0.00    -0.335 OA
ATOM      2  C   UNL     1      37.229 -23.532 -14.683  0.00  0.00    +0.144 C 
ATOM      3  C   UNL     1      36.623 -24.926 -14.769  0.00  0.00    +0.174 C 
ATOM      4  C   UNL     1      36.137 -22.650 -15.245  0.00  0.00    +0.083 C 
ATOM      5  C   UNL     1      35.499 -23.545 -16.295  0.00  0.00    +0.202 C 
ENDROOT
BRANCH   5   9
ATOM      6  F   UNL     1      31.215 -23.152 -14.237  0.00  0.00    -0.198 F 
ATOM      7  O   UNL     1      34.170 -23.029 -18.764  0.00  0.00    -0.252 OA
ATOM      8  O   UNL     1      30.078 -22.673 -16.659  0.00  0.00    -0.267 OA
ATOM      9  N   UNL     1      34.093 -23.313 -16.444  0.00  0.00    -0.216 N 
ATOM     10  N   UNL     1      32.134 -22.852 -17.716  0.00  0.00    -0.234 N 
ATOM     11  C   UNL     1      33.521 -23.064 -17.716  0.00  0.00    +0.316 C 
ATOM     12  C   UNL     1      33.294 -23.334 -15.309  0.00  0.00    +0.105 C 
ATOM     13  C   UNL     1      31.979 -23.129 -15.344  0.00  0.00    +0.208 C 
ATOM     14  C   UNL     1      31.288 -22.863 -16.615  0.00  0.00    +0.282 C 
ATOM     15  H   UNL     1      31.715 -22.678 -18.590  0.00  0.00    +0.159 HD
ENDBRANCH   5   9
BRANCH   2  16
ATOM     16  O   UNL     1      38.385 -23.453 -15.513  0.00  0.00    -0.382 OA
ATOM     17  H   UNL     1      38.726 -22.545 -15.507  0.00  0.00    +0.210 HD
ENDBRANCH   2  16
BRANCH   3  18
ATOM     18  C   UNL     1      35.826 -25.305 -13.527  0.00  0.00    +0.186 C 
BRANCH  18  19
ATOM     19  O   UNL     1      36.612 -25.037 -12.379  0.00  0.00    -0.271 OA
BRANCH  19  20
ATOM     20  P   UNL     1      36.008 -24.056 -11.241  0.00  0.00    +0.473 P 
ATOM     21  O   UNL     1      36.978 -23.056 -10.685  0.00  0.00    -0.227 OA
BRANCH  20  22
ATOM     22  O   UNL     1      35.366 -25.072 -10.160  0.00  0.00    -0.303 OA
ATOM     23  H   UNL     1      34.432 -25.226 -10.376  0.00  0.00    +0.222 HD
ENDBRANCH  20  22
BRANCH  20  24
ATOM     24  O   UNL     1      34.712 -23.418 -11.969  0.00  0.00    -0.303 OA
ATOM     25  H   UNL     1      34.990 -22.943 -12.768  0.00  0.00    +0.222 HD
ENDBRANCH  20  24
ENDBRANCH  19  20
ENDBRANCH  18  19
ENDBRANCH   3  18
TORSDOF 7
ENDMDL
MODEL 2
REMARK VINA RESULT:      -8.6      2.638      4.026
REMARK  Name = 8642
REMARK  7 active torsions:
REMARK  status: ('A' for Active; 'I' for Inactive)
REMARK    1  A    between atoms: C_2  and  O_16
REMARK    2  A    between atoms: C_3  and  C_18
REMARK    3  A    between atoms: C_5  and  N_9
REMARK    4  A    between atoms: C_18  and  O_19
REMARK    5  A    between atoms: O_19  and  P_20
REMARK    6  A    between atoms: P_20  and  O_22
REMARK    7  A    between atoms: P_20  and  O_24
REMARK                            x       y       z     vdW  Elec       q    Type
REMARK                         _______ _______ _______ _____ _____    ______ ____
ROOT
ATOM      1  O   UNL     1      35.884 -22.929 -14.462  0.00  0.00    -0.335 OA
ATOM      2  C   UNL     1      35.978 -25.145 -13.624  0.00  0.00    +0.144 C 
ATOM      3  C   UNL     1      36.806 -23.910 -13.948  0.00  0.00    +0.174 C 
ATOM      4  C   UNL     1      34.838 -25.062 -14.614  0.00  0.00    +0.083 C 
ATOM      5  C   UNL     1      34.630 -23.563 -14.751  0.00  0.00    +0.202 C 
ENDROOT
BRANCH   5   9
ATOM      6  F   UNL     1      35.770 -21.903 -19.075  0.00  0.00    -0.198 F 
ATOM      7  O   UNL     1      31.940 -23.661 -15.688  0.00  0.00    -0.252 OA
ATOM      8  O   UNL     1      33.165 -22.047 -19.835  0.00  0.00    -0.267 OA
ATOM      9  N   UNL     1      34.197 -23.180 -16.063  0.00  0.00    -0.216 N 
ATOM     10  N   UNL     1      32.550 -22.857 -17.751  0.00  0.00    -0.234 N 
ATOM     11  C   UNL     1      32.833 -23.264 -16.438  0.00  0.00    +0.316 C 
ATOM     12  C   UNL     1      35.146 -22.722 -16.967  0.00  0.00    +0.105 C 
ATOM     13  C   UNL     1      34.842 -22.345 -18.207  0.00  0.00    +0.208 C 
ATOM     14  C   UNL     1      33.455 -22.392 -18.695  0.00  0.00    +0.282 C 
ATOM     15  H   UNL     1      31.607 -22.907 -18.033  0.00  0.00    +0.159 HD
ENDBRANCH   5   9
BRANCH   2  16
ATOM     16  O   UNL     1      35.467 -25.051 -12.296  0.00  0.00    -0.382 OA
ATOM     17  H   UNL     1      35.299 -24.121 -12.079  0.00  0.00    +0.210 HD
ENDBRANCH   2  16
BRANCH   3  18
ATOM     18  C   UNL     1      37.860 -24.166 -15.018  0.00  0.00    +0.186 C 
BRANCH  18  19
ATOM     19  O   UNL     1      39.097 -24.443 -14.385  0.00  0.00    -0.271 OA
BRANCH  19  20
ATOM     20  P   UNL     1      39.820 -25.859 -14.692  0.00  0.00    +0.473 P 
ATOM     21  O   UNL     1      40.912 -26.235 -13.733  0.00  0.00    -0.227 OA
BRANCH  20  22
ATOM     22  O   UNL     1      40.273 -25.730 -16.239  0.00  0.00    -0.303 OA
ATOM     23  H   UNL     1      39.787 -26.378 -16.773  0.00  0.00    +0.222 HD
ENDBRANCH  20  22
BRANCH  20  24
ATOM     24  O   UNL     1      38.578 -26.892 -14.752  0.00  0.00    -0.303 OA
ATOM     25  H   UNL     1      38.136 -26.917 -13.888  0.00  0.00    +0.222 HD
ENDBRANCH  20  24
ENDBRANCH  19  20
ENDBRANCH  18  19
ENDBRANCH   3  18
TORSDOF 7
ENDMDL
MODEL 3
REMARK VINA RESULT:      -8.4      2.409      4.120
REMARK  Name = 8642
REMARK  7 active torsions:
REMARK  status: ('A' for Active; 'I' for Inactive)
REMARK    1  A    between atoms: C_2  and  O_16
REMARK    2  A    between atoms: C_3  and  C_18
REMARK    3  A    between atoms: C_5  and  N_9
REMARK    4  A    between atoms: C_18  and  O_19
REMARK    5  A    between atoms: O_19  and  P_20
REMARK    6  A    between atoms: P_20  and  O_22
REMARK    7  A    between atoms: P_20  and  O_24
REMARK                            x       y       z     vdW  Elec       q    Type
REMARK                         _______ _______ _______ _____ _____    ______ ____
ROOT
ATOM      1  O   UNL     1      37.334 -23.630 -12.998  0.00  0.00    -0.335 OA
ATOM      2  C   UNL     1      36.194 -24.799 -11.279  0.00  0.00    +0.144 C 
ATOM      3  C   UNL     1      37.494 -24.717 -12.067  0.00  0.00    +0.174 C 
ATOM      4  C   UNL     1      35.167 -24.281 -12.260  0.00  0.00    +0.083 C 
ATOM      5  C   UNL     1      35.954 -23.243 -13.043  0.00  0.00    +0.202 C 
ENDROOT
BRANCH   5   9
ATOM      6  F   UNL     1      32.497 -23.829 -16.277  0.00  0.00    -0.198 F 
ATOM      7  O   UNL     1      37.575 -22.317 -15.197  0.00  0.00    -0.252 OA
ATOM      8  O   UNL     1      34.153 -22.929 -18.234  0.00  0.00    -0.267 OA
ATOM      9  N   UNL     1      35.534 -23.143 -14.410  0.00  0.00    -0.216 N 
ATOM     10  N   UNL     1      35.872 -22.622 -16.708  0.00  0.00    -0.234 N 
ATOM     11  C   UNL     1      36.413 -22.670 -15.415  0.00  0.00    +0.316 C 
ATOM     12  C   UNL     1      34.238 -23.519 -14.735  0.00  0.00    +0.105 C 
ATOM     13  C   UNL     1      33.755 -23.462 -15.974  0.00  0.00    +0.208 C 
ATOM     14  C   UNL     1      34.587 -22.986 -17.089  0.00  0.00    +0.282 C 
ATOM     15  H   UNL     1      36.467 -22.297 -17.423  0.00  0.00    +0.159 HD
ENDBRANCH   5   9
BRANCH   2  16
ATOM     16  O   UNL     1      36.257 -23.932 -10.149  0.00  0.00    -0.382 OA
ATOM     17  H   UNL     1      35.524 -24.134  -9.545  0.00  0.00    +0.210 HD
ENDBRANCH   2  16
BRANCH   3  18
ATOM     18  C   UNL     1      37.782 -25.981 -12.869  0.00  0.00    +0.186 C 
BRANCH  18  19
ATOM     19  O   UNL     1      39.164 -26.022 -13.177  0.00  0.00    -0.271 OA
BRANCH  19  20
ATOM     20  P   UNL     1      39.617 -25.821 -14.719  0.00  0.00    +0.473 P 
ATOM     21  O   UNL     1      40.945 -26.421 -15.074  0.00  0.00    -0.227 OA
BRANCH  20  22
ATOM     22  O   UNL     1      39.496 -24.225 -14.948  0.00  0.00    -0.303 OA
ATOM     23  H   UNL     1      38.641 -23.913 -14.611  0.00  0.00    +0.222 HD
ENDBRANCH  20  22
BRANCH  20  24
ATOM     24  O   UNL     1      38.358 -26.412 -15.543  0.00  0.00    -0.303 OA
ATOM     25  H   UNL     1      37.825 -25.678 -15.891  0.00  0.00    +0.222 HD
ENDBRANCH  20  24
ENDBRANCH  19  20
ENDBRANCH  18  19
ENDBRANCH   3  18
TORSDOF 7
ENDMDL
MODEL 4
REMARK VINA RESULT:      -8.2      3.570      6.755
REMARK  Name = 8642
REMARK  7 active torsions:
REMARK  status: ('A' for Active; 'I' for Inactive)
REMARK    1  A    between atoms: C_2  and  O_16
REMARK    2  A    between atoms: C_3  and  C_18
REMARK    3  A    between atoms: C_5  and  N_9
REMARK    4  A    between atoms: C_18  and  O_19
REMARK    5  A    between atoms: O_19  and  P_20
REMARK    6  A    between atoms: P_20  and  O_22
REMARK    7  A    between atoms: P_20  and  O_24
REMARK                            x       y       z     vdW  Elec       q    Type
REMARK                         _______ _______ _______ _____ _____    ______ ____
ROOT
ATOM      1  O   UNL     1      34.837 -25.134 -15.152  0.00  0.00    -0.335 OA
ATOM      2  C   UNL     1      33.436 -23.921 -13.672  0.00  0.00    +0.144 C 
ATOM      3  C   UNL     1      33.796 -24.138 -15.135  0.00  0.00    +0.174 C 
ATOM      4  C   UNL     1      34.730 -24.227 -12.953  0.00  0.00    +0.083 C 
ATOM      5  C   UNL     1      35.339 -25.317 -13.820  0.00  0.00    +0.202 C 
ENDROOT
BRANCH   5   9
ATOM      6  F   UNL     1      39.315 -23.775 -15.956  0.00  0.00    -0.198 F 
ATOM      7  O   UNL     1      37.052 -26.581 -11.925  0.00  0.00    -0.252 OA
ATOM      8  O   UNL     1      40.828 -25.032 -14.081  0.00  0.00    -0.267 OA
ATOM      9  N   UNL     1      36.771 -25.274 -13.843  0.00  0.00    -0.216 N 
ATOM     10  N   UNL     1      38.931 -25.810 -12.999  0.00  0.00    -0.234 N 
ATOM     11  C   UNL     1      37.541 -25.935 -12.855  0.00  0.00    +0.316 C 
ATOM     12  C   UNL     1      37.397 -24.564 -14.860  0.00  0.00    +0.105 C 
ATOM     13  C   UNL     1      38.720 -24.465 -14.967  0.00  0.00    +0.208 C 
ATOM     14  C   UNL     1      39.609 -25.117 -13.992  0.00  0.00    +0.282 C 
ATOM     15  H   UNL     1      39.486 -26.264 -12.323  0.00  0.00    +0.159 HD
ENDBRANCH   5   9
BRANCH   2  16
ATOM     16  O   UNL     1      32.434 -24.854 -13.275  0.00  0.00    -0.382 OA
ATOM     17  H   UNL     1      32.516 -25.032 -12.325  0.00  0.00    +0.210 HD
ENDBRANCH   2  16
BRANCH   3  18
ATOM     18  C   UNL     1      34.339 -22.883 -15.805  0.00  0.00    +0.186 C 
BRANCH  18  19
ATOM     19  O   UNL     1      34.730 -23.203 -17.130  0.00  0.00    -0.271 OA
BRANCH  19  20
ATOM     20  P   UNL     1      33.728 -22.821 -18.343  0.00  0.00    +0.473 P 
ATOM     21  O   UNL     1      32.309 -22.556 -17.934  0.00  0.00    -0.227 OA
BRANCH  20  22
ATOM     22  O   UNL     1      33.929 -24.028 -19.400  0.00  0.00    -0.303 OA
ATOM     23  H   UNL     1      33.062 -24.380 -19.657  0.00  0.00    +0.222 HD
ENDBRANCH  20  22
BRANCH  20  24
ATOM     24  O   UNL     1      34.479 -21.577 -19.052  0.00  0.00    -0.303 OA
ATOM     25  H   UNL     1      35.103 -21.911 -19.717  0.00  0.00    +0.222 HD
ENDBRANCH  20  24
ENDBRANCH  19  20
ENDBRANCH  18  19
ENDBRANCH   3  18
TORSDOF 7
ENDMDL
MODEL 5
REMARK VINA RESULT:      -8.0      2.953      4.285
REMARK  Name = 8642
REMARK  7 active torsions:
REMARK  status: ('A' for Active; 'I' for Inactive)
REMARK    1  A    between atoms: C_2  and  O_16
REMARK    2  A    between atoms: C_3  and  C_18
REMARK    3  A    between atoms: C_5  and  N_9
REMARK    4  A    between atoms: C_18  and  O_19
REMARK    5  A    between atoms: O_19  and  P_20
REMARK    6  A    between atoms: P_20  and  O_22
REMARK    7  A    between atoms: P_20  and  O_24
REMARK                            x       y       z     vdW  Elec       q    Type
REMARK                         _______ _______ _______ _____ _____    ______ ____
ROOT
ATOM      1  O   UNL     1      36.613 -23.567 -14.626  0.00  0.00    -0.335 OA
ATOM      2  C   UNL     1      34.948 -25.098 -13.914  0.00  0.00    +0.144 C 
ATOM      3  C   UNL     1      36.448 -24.873 -14.041  0.00  0.00    +0.174 C 
ATOM      4  C   UNL     1      34.382 -24.281 -15.052  0.00  0.00    +0.083 C 
ATOM      5  C   UNL     1      35.350 -23.112 -15.131  0.00  0.00    +0.202 C 
ENDROOT
BRANCH   5   9
ATOM      6  F   UNL     1      33.544 -22.557 -19.511  0.00  0.00    -0.198 F 
ATOM      7  O   UNL     1      37.672 -21.776 -16.106  0.00  0.00    -0.252 OA
ATOM      8  O   UNL     1      35.819 -21.301 -20.307  0.00  0.00    -0.267 OA
ATOM      9  N   UNL     1      35.522 -22.622 -16.467  0.00  0.00    -0.216 N 
ATOM     10  N   UNL     1      36.750 -21.540 -18.196  0.00  0.00    -0.234 N 
ATOM     11  C   UNL     1      36.716 -21.969 -16.861  0.00  0.00    +0.316 C 
ATOM     12  C   UNL     1      34.488 -22.799 -17.377  0.00  0.00    +0.105 C 
ATOM     13  C   UNL     1      34.552 -22.380 -18.638  0.00  0.00    +0.208 C 
ATOM     14  C   UNL     1      35.749 -21.691 -19.147  0.00  0.00    +0.282 C 
ATOM     15  H   UNL     1      37.571 -21.084 -18.492  0.00  0.00    +0.159 HD
ENDBRANCH   5   9
BRANCH   2  16
ATOM     16  O   UNL     1      34.484 -24.576 -12.671  0.00  0.00    -0.382 OA
ATOM     17  H   UNL     1      33.663 -24.079 -12.816  0.00  0.00    +0.210 HD
ENDBRANCH   2  16
BRANCH   3  18
ATOM     18  C   UNL     1      37.124 -25.884 -14.960  0.00  0.00    +0.186 C 
BRANCH  18  19
ATOM     19  O   UNL     1      38.329 -26.320 -14.354  0.00  0.00    -0.271 OA
BRANCH  19  20
ATOM     20  P   UNL     1      39.676 -25.460 -14.612  0.00  0.00    +0.473 P 
ATOM     21  O   UNL     1      40.875 -26.267 -15.019  0.00  0.00    -0.227 OA
BRANCH  20  22
ATOM     22  O   UNL     1      39.850 -24.601 -13.254  0.00  0.00    -0.303 OA
ATOM     23  H   UNL     1      40.455 -23.861 -13.414  0.00  0.00    +0.222 HD
ENDBRANCH  20  22
BRANCH  20  24
ATOM     24  O   UNL     1      39.197 -24.357 -15.693  0.00  0.00    -0.303 OA
ATOM     25  H   UNL     1      38.798 -23.603 -15.229  0.00  0.00    +0.222 HD
ENDBRANCH  20  24
ENDBRANCH  19  20
ENDBRANCH  18  19
ENDBRANCH   3  18
TORSDOF 7
ENDMDL
MODEL 6
REMARK VINA RESULT:      -7.9      8.483     11.258
REMARK  Name = 8642
REMARK  7 active torsions:
REMARK  status: ('A' for Active; 'I' for Inactive)
REMARK    1  A    between atoms: C_2  and  O_16
REMARK    2  A    between atoms: C_3  and  C_18
REMARK    3  A    between atoms: C_5  and  N_9
REMARK    4  A    between atoms: C_18  and  O_19
REMARK    5  A    between atoms: O_19  and  P_20
REMARK    6  A    between atoms: P_20  and  O_22
REMARK    7  A    between atoms: P_20  and  O_24
REMARK                            x       y       z     vdW  Elec       q    Type
REMARK                         _______ _______ _______ _____ _____    ______ ____
ROOT
ATOM      1  O   UNL     1      35.706 -16.861 -22.643  0.00  0.00    -0.335 OA
ATOM      2  C   UNL     1      34.421 -16.935 -24.635  0.00  0.00    +0.144 C 
ATOM      3  C   UNL     1      34.803 -16.072 -23.441  0.00  0.00    +0.174 C 
ATOM      4  C   UNL     1      34.525 -18.341 -24.087  0.00  0.00    +0.083 C 
ATOM      5  C   UNL     1      35.670 -18.223 -23.094  0.00  0.00    +0.202 C 
ENDROOT
BRANCH   5   9
ATOM      6  F   UNL     1      32.780 -20.877 -20.382  0.00  0.00    -0.198 F 
ATOM      7  O   UNL     1      37.773 -19.042 -21.353  0.00  0.00    -0.252 OA
ATOM      8  O   UNL     1      34.878 -21.575 -18.802  0.00  0.00    -0.267 OA
ATOM      9  N   UNL     1      35.517 -19.092 -21.964  0.00  0.00    -0.216 N 
ATOM     10  N   UNL     1      36.332 -20.302 -20.083  0.00  0.00    -0.234 N 
ATOM     11  C   UNL     1      36.624 -19.444 -21.154  0.00  0.00    +0.316 C 
ATOM     12  C   UNL     1      34.252 -19.589 -21.676  0.00  0.00    +0.105 C 
ATOM     13  C   UNL     1      34.009 -20.402 -20.651  0.00  0.00    +0.208 C 
ATOM     14  C   UNL     1      35.091 -20.827 -19.749  0.00  0.00    +0.282 C 
ATOM     15  H   UNL     1      37.088 -20.559 -19.506  0.00  0.00    +0.159 HD
ENDBRANCH   5   9
BRANCH   2  16
ATOM     16  O   UNL     1      35.370 -16.758 -25.684  0.00  0.00    -0.382 OA
ATOM     17  H   UNL     1      35.508 -17.603 -26.141  0.00  0.00    +0.210 HD
ENDBRANCH   2  16
BRANCH   3  18
ATOM     18  C   UNL     1      33.608 -15.705 -22.568  0.00  0.00    +0.186 C 
BRANCH  18  19
ATOM     19  O   UNL     1      33.622 -14.306 -22.338  0.00  0.00    -0.271 OA
BRANCH  19  20
ATOM     20  P   UNL     1      32.995 -13.333 -23.470  0.00  0.00    +0.473 P 
ATOM     21  O   UNL     1      32.544 -14.024 -24.723  0.00  0.00    -0.227 OA
BRANCH  20  22
ATOM     22  O   UNL     1      34.133 -12.202 -23.676  0.00  0.00    -0.303 OA
ATOM     23  H   UNL     1      34.390 -11.841 -22.813  0.00  0.00    +0.222 HD
ENDBRANCH  20  22
BRANCH  20  24
ATOM     24  O   UNL     1      31.832 -12.548 -22.666  0.00  0.00    -0.303 OA
ATOM     25  H   UNL     1      31.927 -12.717 -21.715  0.00  0.00    +0.222 HD
ENDBRANCH  20  24
ENDBRANCH  19  20
ENDBRANCH  18  19
ENDBRANCH   3  18
TORSDOF 7
ENDMDL
MODEL 7
REMARK VINA RESULT:      -7.7     10.455     12.521
REMARK  Name = 8642
REMARK  7 active torsions:
REMARK  status: ('A' for Active; 'I' for Inactive)
REMARK    1  A    between atoms: C_2  and  O_16
REMARK    2  A    between atoms: C_3  and  C_18
REMARK    3  A    between atoms: C_5  and  N_9
REMARK    4  A    between atoms: C_18  and  O_19
REMARK    5  A    between atoms: O_19  and  P_20
REMARK    6  A    between atoms: P_20  and  O_22
REMARK    7  A    between atoms: P_20  and  O_24
REMARK                            x       y       z     vdW  Elec       q    Type
REMARK                         _______ _______ _______ _____ _____    ______ ____
ROOT
ATOM      1  O   UNL     1      34.594 -14.080 -21.930  0.00  0.00    -0.335 OA
ATOM      2  C   UNL     1      32.918 -15.253 -20.729  0.00  0.00    +0.144 C 
ATOM      3  C   UNL     1      34.406 -15.203 -21.047  0.00  0.00    +0.174 C 
ATOM      4  C   UNL     1      32.285 -14.660 -21.968  0.00  0.00    +0.083 C 
ATOM      5  C   UNL     1      33.316 -13.633 -22.406  0.00  0.00    +0.202 C 
ENDROOT
BRANCH   5   9
ATOM      6  F   UNL     1      32.827 -15.587 -26.730  0.00  0.00    -0.198 F 
ATOM      7  O   UNL     1      33.968 -11.212 -23.762  0.00  0.00    -0.252 OA
ATOM      8  O   UNL     1      33.467 -13.214 -27.891  0.00  0.00    -0.267 OA
ATOM      9  N   UNL     1      33.370 -13.472 -23.829  0.00  0.00    -0.216 N 
ATOM     10  N   UNL     1      33.719 -12.209 -25.817  0.00  0.00    -0.234 N 
ATOM     11  C   UNL     1      33.704 -12.226 -24.414  0.00  0.00    +0.316 C 
ATOM     12  C   UNL     1      33.084 -14.568 -24.632  0.00  0.00    +0.105 C 
ATOM     13  C   UNL     1      33.106 -14.518 -25.962  0.00  0.00    +0.208 C 
ATOM     14  C   UNL     1      33.443 -13.272 -26.667  0.00  0.00    +0.282 C 
ATOM     15  H   UNL     1      33.950 -11.353 -26.245  0.00  0.00    +0.159 HD
ENDBRANCH   5   9
BRANCH   2  16
ATOM     16  O   UNL     1      32.635 -14.426 -19.603  0.00  0.00    -0.382 OA
ATOM     17  H   UNL     1      33.150 -13.605 -19.667  0.00  0.00    +0.210 HD
ENDBRANCH   2  16
BRANCH   3  18
ATOM     18  C   UNL     1      34.902 -16.451 -21.766  0.00  0.00    +0.186 C 
BRANCH  18  19
ATOM     19  O   UNL     1      35.227 -17.437 -20.801  0.00  0.00    -0.271 OA
BRANCH  19  20
ATOM     20  P   UNL     1      35.952 -18.796 -21.301  0.00  0.00    +0.473 P 
ATOM     21  O   UNL     1      36.764 -19.503 -20.255  0.00  0.00    -0.227 OA
BRANCH  20  22
ATOM     22  O   UNL     1      36.772 -18.331 -22.615  0.00  0.00    -0.303 OA
ATOM     23  H   UNL     1      36.926 -17.374 -22.578  0.00  0.00    +0.222 HD
ENDBRANCH  20  22
BRANCH  20  24
ATOM     24  O   UNL     1      34.726 -19.655 -21.911  0.00  0.00    -0.303 OA
ATOM     25  H   UNL     1      34.706 -20.531 -21.494  0.00  0.00    +0.222 HD
ENDBRANCH  20  24
ENDBRANCH  19  20
ENDBRANCH  18  19
ENDBRANCH   3  18
TORSDOF 7
ENDMDL
MODEL 8
REMARK VINA RESULT:      -7.6      6.863      9.498
REMARK  Name = 8642
REMARK  7 active torsions:
REMARK  status: ('A' for Active; 'I' for Inactive)
REMARK    1  A    between atoms: C_2  and  O_16
REMARK    2  A    between atoms: C_3  and  C_18
REMARK    3  A    between atoms: C_5  and  N_9
REMARK    4  A    between atoms: C_18  and  O_19
REMARK    5  A    between atoms: O_19  and  P_20
REMARK    6  A    between atoms: P_20  and  O_22
REMARK    7  A    between atoms: P_20  and  O_24
REMARK                            x       y       z     vdW  Elec       q    Type
REMARK                         _______ _______ _______ _____ _____    ______ ____
ROOT
ATOM      1  O   UNL     1      35.479 -18.249 -20.642  0.00  0.00    -0.335 OA
ATOM      2  C   UNL     1      34.874 -17.886 -22.905  0.00  0.00    +0.144 C 
ATOM      3  C   UNL     1      35.025 -17.222 -21.543  0.00  0.00    +0.174 C 
ATOM      4  C   UNL     1      34.545 -19.319 -22.552  0.00  0.00    +0.083 C 
ATOM      5  C   UNL     1      35.332 -19.530 -21.269  0.00  0.00    +0.202 C 
ENDROOT
BRANCH   5   9
ATOM      6  F   UNL     1      35.732 -22.744 -17.768  0.00  0.00    -0.198 F 
ATOM      7  O   UNL     1      32.517 -19.944 -21.093  0.00  0.00    -0.252 OA
ATOM      8  O   UNL     1      33.031 -23.041 -17.710  0.00  0.00    -0.267 OA
ATOM      9  N   UNL     1      34.683 -20.431 -20.362  0.00  0.00    -0.216 N 
ATOM     10  N   UNL     1      32.773 -21.486 -19.410  0.00  0.00    -0.234 N 
ATOM     11  C   UNL     1      33.274 -20.570 -20.348  0.00  0.00    +0.316 C 
ATOM     12  C   UNL     1      35.469 -21.172 -19.488  0.00  0.00    +0.105 C 
ATOM     13  C   UNL     1      34.962 -22.033 -18.610  0.00  0.00    +0.208 C 
ATOM     14  C   UNL     1      33.510 -22.251 -18.515  0.00  0.00    +0.282 C 
ATOM     15  H   UNL     1      31.795 -21.599 -19.384  0.00  0.00    +0.159 HD
ENDBRANCH   5   9
BRANCH   2  16
ATOM     16  O   UNL     1      36.114 -17.838 -23.608  0.00  0.00    -0.382 OA
ATOM     17  H   UNL     1      36.702 -18.534 -23.274  0.00  0.00    +0.210 HD
ENDBRANCH   2  16
BRANCH   3  18
ATOM     18  C   UNL     1      33.710 -16.673 -21.002  0.00  0.00    +0.186 C 
BRANCH  18  19
ATOM     19  O   UNL     1      33.077 -15.915 -22.019  0.00  0.00    -0.271 OA
BRANCH  19  20
ATOM     20  P   UNL     1      33.053 -14.302 -21.877  0.00  0.00    +0.473 P 
ATOM     21  O   UNL     1      32.829 -13.792 -20.484  0.00  0.00    -0.227 OA
BRANCH  20  22
ATOM     22  O   UNL     1      31.955 -13.838 -22.968  0.00  0.00    -0.303 OA
ATOM     23  H   UNL     1      32.325 -13.130 -23.519  0.00  0.00    +0.222 HD
ENDBRANCH  20  22
BRANCH  20  24
ATOM     24  O   UNL     1      34.456 -13.861 -22.549  0.00  0.00    -0.303 OA
ATOM     25  H   UNL     1      35.143 -14.505 -22.316  0.00  0.00    +0.222 HD
ENDBRANCH  20  24
ENDBRANCH  19  20
ENDBRANCH  18  19
ENDBRANCH   3  18
TORSDOF 7
ENDMDL
MODEL 9
REMARK VINA RESULT:      -7.6     11.094     13.037
REMARK  Name = 8642
REMARK  7 active torsions:
REMARK  status: ('A' for Active; 'I' for Inactive)
REMARK    1  A    between atoms: C_2  and  O_16
REMARK    2  A    between atoms: C_3  and  C_18
REMARK    3  A    between atoms: C_5  and  N_9
REMARK    4  A    between atoms: C_18  and  O_19
REMARK    5  A    between atoms: O_19  and  P_20
REMARK    6  A    between atoms: P_20  and  O_22
REMARK    7  A    between atoms: P_20  and  O_24
REMARK                            x       y       z     vdW  Elec       q    Type
REMARK                         _______ _______ _______ _____ _____    ______ ____
ROOT
ATOM      1  O   UNL     1      31.999 -14.086 -22.140  0.00  0.00    -0.335 OA
ATOM      2  C   UNL     1      33.845 -14.505 -23.568  0.00  0.00    +0.144 C 
ATOM      3  C   UNL     1      33.039 -15.049 -22.397  0.00  0.00    +0.174 C 
ATOM      4  C   UNL     1      33.691 -13.008 -23.423  0.00  0.00    +0.083 C 
ATOM      5  C   UNL     1      32.287 -12.876 -22.855  0.00  0.00    +0.202 C 
ENDROOT
BRANCH   5   9
ATOM      6  F   UNL     1      31.404 -11.279 -18.448  0.00  0.00    -0.198 F 
ATOM      7  O   UNL     1      32.588 -10.141 -23.600  0.00  0.00    -0.252 OA
ATOM      8  O   UNL     1      31.717  -8.716 -19.297  0.00  0.00    -0.267 OA
ATOM      9  N   UNL     1      32.149 -11.758 -21.969  0.00  0.00    -0.216 N 
ATOM     10  N   UNL     1      32.154  -9.432 -21.458  0.00  0.00    -0.234 N 
ATOM     11  C   UNL     1      32.317 -10.430 -22.432  0.00  0.00    +0.316 C 
ATOM     12  C   UNL     1      31.845 -12.002 -20.636  0.00  0.00    +0.105 C 
ATOM     13  C   UNL     1      31.698 -11.031 -19.737  0.00  0.00    +0.208 C 
ATOM     14  C   UNL     1      31.850  -9.618 -20.116  0.00  0.00    +0.282 C 
ATOM     15  H   UNL     1      32.265  -8.501 -21.759  0.00  0.00    +0.159 HD
ENDBRANCH   5   9
BRANCH   2  16
ATOM     16  O   UNL     1      33.262 -14.930 -24.798  0.00  0.00    -0.382 OA
ATOM     17  H   UNL     1      32.295 -14.918 -24.718  0.00  0.00    +0.210 HD
ENDBRANCH   2  16
BRANCH   3  18
ATOM     18  C   UNL     1      33.865 -15.196 -21.125  0.00  0.00    +0.186 C 
BRANCH  18  19
ATOM     19  O   UNL     1      34.973 -16.039 -21.394  0.00  0.00    -0.271 OA
BRANCH  19  20
ATOM     20  P   UNL     1      34.728 -17.638 -21.454  0.00  0.00    +0.473 P 
ATOM     21  O   UNL     1      33.405 -18.098 -20.919  0.00  0.00    -0.227 OA
BRANCH  20  22
ATOM     22  O   UNL     1      36.026 -18.252 -20.710  0.00  0.00    -0.303 OA
ATOM     23  H   UNL     1      36.521 -18.810 -21.331  0.00  0.00    +0.222 HD
ENDBRANCH  20  22
BRANCH  20  24
ATOM     24  O   UNL     1      34.993 -17.984 -23.011  0.00  0.00    -0.303 OA
ATOM     25  H   UNL     1      35.267 -18.912 -23.095  0.00  0.00    +0.222 HD
ENDBRANCH  20  24
ENDBRANCH  19  20
ENDBRANCH  18  19
ENDBRANCH   3  18
TORSDOF 7
ENDMDL
