MODEL 1
REMARK VINA RESULT:      -8.1      0.000      0.000
REMARK  Name = 447628
REMARK  4 active torsions:
REMARK  status: ('A' for Active; 'I' for Inactive)
REMARK    1  A    between atoms: C_1  and  N_9
REMARK    2  A    between atoms: C_4  and  C_19
REMARK    3  A    between atoms: C_6  and  O_17
REMARK    4  A    between atoms: C_19  and  O_20
REMARK                            x       y       z     vdW  Elec       q    Type
REMARK                         _______ _______ _______ _____ _____    ______ ____
ROOT
ATOM      1  C   UNL     1      35.256 -24.033 -14.958  0.00  0.00    +0.068 C 
ATOM      2  C   UNL     1      35.360 -25.023 -13.849  0.00  0.00    +0.024 C 
ATOM      3  C   UNL     1      35.787 -25.412 -15.241  0.00  0.00    +0.020 C 
ATOM      4  C   UNL     1      36.338 -24.502 -12.820  0.00  0.00    +0.058 C 
ATOM      5  C   UNL     1      36.157 -22.869 -14.652  0.00  0.00    +0.048 C 
ATOM      6  C   UNL     1      37.093 -23.357 -13.535  0.00  0.00    +0.115 C 
ENDROOT
BRANCH   1   9
ATOM      7  O   UNL     1      34.816 -23.189 -17.631  0.00  0.00    -0.252 OA
ATOM      8  O   UNL     1      30.304 -22.659 -16.895  0.00  0.00    -0.270 OA
ATOM      9  N   UNL     1      33.983 -23.675 -15.508  0.00  0.00    -0.245 N 
ATOM     10  N   UNL     1      32.565 -22.931 -17.253  0.00  0.00    -0.236 N 
ATOM     11  C   UNL     1      32.867 -23.728 -14.685  0.00  0.00    +0.069 C 
ATOM     12  C   UNL     1      33.863 -23.264 -16.851  0.00  0.00    +0.314 C 
ATOM     13  C   UNL     1      31.626 -23.409 -15.072  0.00  0.00    +0.047 C 
ATOM     14  C   UNL     1      31.417 -22.965 -16.476  0.00  0.00    +0.250 C 
ATOM     15  C   UNL     1      30.435 -23.469 -14.171  0.00  0.00    +0.037 C 
ATOM     16  H   UNL     1      32.454 -22.640 -18.187  0.00  0.00    +0.159 HD
ENDBRANCH   1   9
BRANCH   6  17
ATOM     17  O   UNL     1      38.290 -23.856 -14.125  0.00  0.00    -0.384 OA
ATOM     18  H   UNL     1      38.081 -24.277 -14.975  0.00  0.00    +0.210 HD
ENDBRANCH   6  17
BRANCH   4  19
ATOM     19  C   UNL     1      35.596 -23.984 -11.589  0.00  0.00    +0.140 C 
BRANCH  19  20
ATOM     20  O   UNL     1      35.314 -25.081 -10.742  0.00  0.00    -0.382 OA
ATOM     21  H   UNL     1      34.353 -25.177 -10.647  0.00  0.00    +0.210 HD
ENDBRANCH  19  20
ENDBRANCH   4  19
TORSDOF 4
ENDMDL
MODEL 2
REMARK VINA RESULT:      -7.8      1.196      2.349
REMARK  Name = 447628
REMARK  4 active torsions:
REMARK  status: ('A' for Active; 'I' for Inactive)
REMARK    1  A    between atoms: C_1  and  N_9
REMARK    2  A    between atoms: C_4  and  C_19
REMARK    3  A    between atoms: C_6  and  O_17
REMARK    4  A    between atoms: C_19  and  O_20
REMARK                            x       y       z     vdW  Elec       q    Type
REMARK                         _______ _______ _______ _____ _____    ______ ____
ROOT
ATOM      1  C   UNL     1      34.864 -24.352 -14.502  0.00  0.00    +0.068 C 
ATOM      2  C   UNL     1      35.880 -23.378 -14.011  0.00  0.00    +0.024 C 
ATOM      3  C   UNL     1      34.963 -24.059 -13.029  0.00  0.00    +0.020 C 
ATOM      4  C   UNL     1      37.260 -23.910 -14.330  0.00  0.00    +0.058 C 
ATOM      5  C   UNL     1      35.577 -25.510 -15.142  0.00  0.00    +0.048 C 
ATOM      6  C   UNL     1      37.039 -25.399 -14.682  0.00  0.00    +0.115 C 
ENDROOT
BRANCH   1   9
ATOM      7  O   UNL     1      34.858 -23.216 -17.102  0.00  0.00    -0.252 OA
ATOM      8  O   UNL     1      30.289 -22.664 -17.027  0.00  0.00    -0.270 OA
ATOM      9  N   UNL     1      33.697 -23.908 -15.202  0.00  0.00    -0.245 N 
ATOM     10  N   UNL     1      32.577 -22.948 -17.055  0.00  0.00    -0.236 N 
ATOM     11  C   UNL     1      32.465 -24.023 -14.575  0.00  0.00    +0.069 C 
ATOM     12  C   UNL     1      33.793 -23.352 -16.494  0.00  0.00    +0.314 C 
ATOM     13  C   UNL     1      31.302 -23.636 -15.113  0.00  0.00    +0.047 C 
ATOM     14  C   UNL     1      31.321 -23.039 -16.476  0.00  0.00    +0.250 C 
ATOM     15  C   UNL     1      29.983 -23.766 -14.422  0.00  0.00    +0.037 C 
ATOM     16  H   UNL     1      32.617 -22.556 -17.957  0.00  0.00    +0.159 HD
ENDBRANCH   1   9
BRANCH   6  17
ATOM     17  O   UNL     1      37.216 -26.206 -13.520  0.00  0.00    -0.384 OA
ATOM     18  H   UNL     1      37.931 -25.839 -12.977  0.00  0.00    +0.210 HD
ENDBRANCH   6  17
BRANCH   4  19
ATOM     19  C   UNL     1      37.867 -23.152 -15.509  0.00  0.00    +0.140 C 
BRANCH  19  20
ATOM     20  O   UNL     1      39.083 -23.780 -15.868  0.00  0.00    -0.382 OA
ATOM     21  H   UNL     1      38.999 -24.739 -15.747  0.00  0.00    +0.210 HD
ENDBRANCH  19  20
ENDBRANCH   4  19
TORSDOF 4
ENDMDL
MODEL 3
REMARK VINA RESULT:      -7.8      2.432      3.342
REMARK  Name = 447628
REMARK  4 active torsions:
REMARK  status: ('A' for Active; 'I' for Inactive)
REMARK    1  A    between atoms: C_1  and  N_9
REMARK    2  A    between atoms: C_4  and  C_19
REMARK    3  A    between atoms: C_6  and  O_17
REMARK    4  A    between atoms: C_19  and  O_20
REMARK                            x       y       z     vdW  Elec       q    Type
REMARK                         _______ _______ _______ _____ _____    ______ ____
ROOT
ATOM      1  C   UNL     1      36.091 -24.404 -14.001  0.00  0.00    +0.068 C 
ATOM      2  C   UNL     1      36.263 -23.678 -12.710  0.00  0.00    +0.024 C 
ATOM      3  C   UNL     1      34.966 -24.386 -13.001  0.00  0.00    +0.020 C 
ATOM      4  C   UNL     1      37.382 -24.331 -11.929  0.00  0.00    +0.058 C 
ATOM      5  C   UNL     1      37.094 -25.521 -14.063  0.00  0.00    +0.048 C 
ATOM      6  C   UNL     1      37.609 -25.693 -12.626  0.00  0.00    +0.115 C 
ENDROOT
BRANCH   1   9
ATOM      7  O   UNL     1      38.121 -22.947 -15.344  0.00  0.00    -0.252 OA
ATOM      8  O   UNL     1      35.226 -21.684 -18.693  0.00  0.00    -0.270 OA
ATOM      9  N   UNL     1      35.914 -23.689 -15.229  0.00  0.00    -0.245 N 
ATOM     10  N   UNL     1      36.669 -22.325 -17.011  0.00  0.00    -0.236 N 
ATOM     11  C   UNL     1      34.658 -23.688 -15.819  0.00  0.00    +0.069 C 
ATOM     12  C   UNL     1      36.984 -22.990 -15.822  0.00  0.00    +0.314 C 
ATOM     13  C   UNL     1      34.358 -23.052 -16.958  0.00  0.00    +0.047 C 
ATOM     14  C   UNL     1      35.435 -22.290 -17.645  0.00  0.00    +0.250 C 
ATOM     15  C   UNL     1      32.998 -23.058 -17.578  0.00  0.00    +0.037 C 
ATOM     16  H   UNL     1      37.399 -21.829 -17.446  0.00  0.00    +0.159 HD
ENDBRANCH   1   9
BRANCH   6  17
ATOM     17  O   UNL     1      36.839 -26.705 -11.981  0.00  0.00    -0.384 OA
ATOM     18  H   UNL     1      35.940 -26.375 -11.822  0.00  0.00    +0.210 HD
ENDBRANCH   6  17
BRANCH   4  19
ATOM     19  C   UNL     1      38.644 -23.472 -11.980  0.00  0.00    +0.140 C 
BRANCH  19  20
ATOM     20  O   UNL     1      38.266 -22.113 -11.874  0.00  0.00    -0.382 OA
ATOM     21  H   UNL     1      38.890 -21.564 -12.374  0.00  0.00    +0.210 HD
ENDBRANCH  19  20
ENDBRANCH   4  19
TORSDOF 4
ENDMDL
MODEL 4
REMARK VINA RESULT:      -7.8     14.519     16.504
REMARK  Name = 447628
REMARK  4 active torsions:
REMARK  status: ('A' for Active; 'I' for Inactive)
REMARK    1  A    between atoms: C_1  and  N_9
REMARK    2  A    between atoms: C_4  and  C_19
REMARK    3  A    between atoms: C_6  and  O_17
REMARK    4  A    between atoms: C_19  and  O_20
REMARK                            x       y       z     vdW  Elec       q    Type
REMARK                         _______ _______ _______ _____ _____    ______ ____
ROOT
ATOM      1  C   UNL     1      32.578  -9.144 -23.088  0.00  0.00    +0.068 C 
ATOM      2  C   UNL     1      33.442  -8.256 -22.259  0.00  0.00    +0.024 C 
ATOM      3  C   UNL     1      33.896  -8.665 -23.636  0.00  0.00    +0.020 C 
ATOM      4  C   UNL     1      32.706  -6.960 -22.002  0.00  0.00    +0.058 C 
ATOM      5  C   UNL     1      31.284  -8.433 -23.367  0.00  0.00    +0.048 C 
ATOM      6  C   UNL     1      31.541  -6.958 -23.019  0.00  0.00    +0.115 C 
ENDROOT
BRANCH   1   9
ATOM      7  O   UNL     1      31.129 -10.188 -20.883  0.00  0.00    -0.252 OA
ATOM      8  O   UNL     1      32.189 -14.519 -22.027  0.00  0.00    -0.270 OA
ATOM      9  N   UNL     1      32.442 -10.536 -22.779  0.00  0.00    -0.245 N 
ATOM     10  N   UNL     1      31.662 -12.345 -21.465  0.00  0.00    -0.236 N 
ATOM     11  C   UNL     1      33.067 -11.461 -23.602  0.00  0.00    +0.069 C 
ATOM     12  C   UNL     1      31.702 -10.961 -21.656  0.00  0.00    +0.314 C 
ATOM     13  C   UNL     1      33.027 -12.786 -23.417  0.00  0.00    +0.047 C 
ATOM     14  C   UNL     1      32.265 -13.313 -22.253  0.00  0.00    +0.250 C 
ATOM     15  C   UNL     1      33.708 -13.770 -24.313  0.00  0.00    +0.037 C 
ATOM     16  H   UNL     1      31.151 -12.668 -20.688  0.00  0.00    +0.159 HD
ENDBRANCH   1   9
BRANCH   6  17
ATOM     17  O   UNL     1      31.930  -6.269 -24.206  0.00  0.00    -0.384 OA
ATOM     18  H   UNL     1      31.999  -5.319 -24.020  0.00  0.00    +0.210 HD
ENDBRANCH   6  17
BRANCH   4  19
ATOM     19  C   UNL     1      32.181  -6.916 -20.569  0.00  0.00    +0.140 C 
BRANCH  19  20
ATOM     20  O   UNL     1      32.871  -7.890 -19.809  0.00  0.00    -0.382 OA
ATOM     21  H   UNL     1      33.811  -7.880 -20.050  0.00  0.00    +0.210 HD
ENDBRANCH  19  20
ENDBRANCH   4  19
TORSDOF 4
ENDMDL
MODEL 5
REMARK VINA RESULT:      -7.8      2.118      2.733
REMARK  Name = 447628
REMARK  4 active torsions:
REMARK  status: ('A' for Active; 'I' for Inactive)
REMARK    1  A    between atoms: C_1  and  N_9
REMARK    2  A    between atoms: C_4  and  C_19
REMARK    3  A    between atoms: C_6  and  O_17
REMARK    4  A    between atoms: C_19  and  O_20
REMARK                            x       y       z     vdW  Elec       q    Type
REMARK                         _______ _______ _______ _____ _____    ______ ____
ROOT
ATOM      1  C   UNL     1      36.376 -24.988 -14.664  0.00  0.00    +0.068 C 
ATOM      2  C   UNL     1      36.913 -25.740 -13.494  0.00  0.00    +0.024 C 
ATOM      3  C   UNL     1      36.445 -26.491 -14.714  0.00  0.00    +0.020 C 
ATOM      4  C   UNL     1      38.362 -25.354 -13.290  0.00  0.00    +0.058 C 
ATOM      5  C   UNL     1      37.465 -24.113 -15.217  0.00  0.00    +0.048 C 
ATOM      6  C   UNL     1      38.770 -24.642 -14.601  0.00  0.00    +0.115 C 
ENDROOT
BRANCH   1   9
ATOM      7  O   UNL     1      34.903 -24.488 -12.291  0.00  0.00    -0.252 OA
ATOM      8  O   UNL     1      31.405 -22.653 -14.654  0.00  0.00    -0.270 OA
ATOM      9  N   UNL     1      35.083 -24.374 -14.613  0.00  0.00    -0.245 N 
ATOM     10  N   UNL     1      33.165 -23.571 -13.480  0.00  0.00    -0.236 N 
ATOM     11  C   UNL     1      34.483 -23.996 -15.805  0.00  0.00    +0.069 C 
ATOM     12  C   UNL     1      34.425 -24.168 -13.383  0.00  0.00    +0.314 C 
ATOM     13  C   UNL     1      33.276 -23.424 -15.896  0.00  0.00    +0.047 C 
ATOM     14  C   UNL     1      32.518 -23.174 -14.640  0.00  0.00    +0.250 C 
ATOM     15  C   UNL     1      32.642 -23.025 -17.189  0.00  0.00    +0.037 C 
ATOM     16  H   UNL     1      32.684 -23.417 -12.635  0.00  0.00    +0.159 HD
ENDBRANCH   1   9
BRANCH   6  17
ATOM     17  O   UNL     1      39.356 -25.578 -15.502  0.00  0.00    -0.384 OA
ATOM     18  H   UNL     1      39.089 -25.364 -16.410  0.00  0.00    +0.210 HD
ENDBRANCH   6  17
BRANCH   4  19
ATOM     19  C   UNL     1      38.503 -24.418 -12.091  0.00  0.00    +0.140 C 
BRANCH  19  20
ATOM     20  O   UNL     1      37.431 -24.665 -11.202  0.00  0.00    -0.382 OA
ATOM     21  H   UNL     1      36.851 -23.888 -11.171  0.00  0.00    +0.210 HD
ENDBRANCH  19  20
ENDBRANCH   4  19
TORSDOF 4
ENDMDL
MODEL 6
REMARK VINA RESULT:      -7.6      1.755      3.133
REMARK  Name = 447628
REMARK  4 active torsions:
REMARK  status: ('A' for Active; 'I' for Inactive)
REMARK    1  A    between atoms: C_1  and  N_9
REMARK    2  A    between atoms: C_4  and  C_19
REMARK    3  A    between atoms: C_6  and  O_17
REMARK    4  A    between atoms: C_19  and  O_20
REMARK                            x       y       z     vdW  Elec       q    Type
REMARK                         _______ _______ _______ _____ _____    ______ ____
ROOT
ATOM      1  C   UNL     1      35.016 -24.518 -14.285  0.00  0.00    +0.068 C 
ATOM      2  C   UNL     1      36.076 -23.566 -13.846  0.00  0.00    +0.024 C 
ATOM      3  C   UNL     1      35.159 -24.186 -12.824  0.00  0.00    +0.020 C 
ATOM      4  C   UNL     1      37.429 -24.154 -14.180  0.00  0.00    +0.058 C 
ATOM      5  C   UNL     1      35.674 -25.718 -14.907  0.00  0.00    +0.048 C 
ATOM      6  C   UNL     1      37.149 -25.645 -14.482  0.00  0.00    +0.115 C 
ENDROOT
BRANCH   1   9
ATOM      7  O   UNL     1      32.370 -24.656 -13.272  0.00  0.00    -0.252 OA
ATOM      8  O   UNL     1      30.638 -22.721 -17.073  0.00  0.00    -0.270 OA
ATOM      9  N   UNL     1      33.848 -24.053 -14.972  0.00  0.00    -0.245 N 
ATOM     10  N   UNL     1      31.517 -23.687 -15.172  0.00  0.00    -0.236 N 
ATOM     11  C   UNL     1      33.998 -23.499 -16.234  0.00  0.00    +0.069 C 
ATOM     12  C   UNL     1      32.570 -24.167 -14.387  0.00  0.00    +0.314 C 
ATOM     13  C   UNL     1      32.989 -23.040 -16.984  0.00  0.00    +0.047 C 
ATOM     14  C   UNL     1      31.609 -23.125 -16.436  0.00  0.00    +0.250 C 
ATOM     15  C   UNL     1      33.168 -22.448 -18.344  0.00  0.00    +0.037 C 
ATOM     16  H   UNL     1      30.614 -23.755 -14.786  0.00  0.00    +0.159 HD
ENDBRANCH   1   9
BRANCH   6  17
ATOM     17  O   UNL     1      37.325 -26.423 -13.301  0.00  0.00    -0.384 OA
ATOM     18  H   UNL     1      36.941 -25.954 -12.544  0.00  0.00    +0.210 HD
ENDBRANCH   6  17
BRANCH   4  19
ATOM     19  C   UNL     1      38.033 -23.453 -15.395  0.00  0.00    +0.140 C 
BRANCH  19  20
ATOM     20  O   UNL     1      39.269 -24.069 -15.699  0.00  0.00    -0.382 OA
ATOM     21  H   UNL     1      39.512 -24.677 -14.983  0.00  0.00    +0.210 HD
ENDBRANCH  19  20
ENDBRANCH   4  19
TORSDOF 4
ENDMDL
MODEL 7
REMARK VINA RESULT:      -7.6      9.029     10.837
REMARK  Name = 447628
REMARK  4 active torsions:
REMARK  status: ('A' for Active; 'I' for Inactive)
REMARK    1  A    between atoms: C_1  and  N_9
REMARK    2  A    between atoms: C_4  and  C_19
REMARK    3  A    between atoms: C_6  and  O_17
REMARK    4  A    between atoms: C_19  and  O_20
REMARK                            x       y       z     vdW  Elec       q    Type
REMARK                         _______ _______ _______ _____ _____    ______ ____
ROOT
ATOM      1  C   UNL     1      34.980 -17.755 -22.889  0.00  0.00    +0.068 C 
ATOM      2  C   UNL     1      34.406 -19.131 -22.885  0.00  0.00    +0.024 C 
ATOM      3  C   UNL     1      35.692 -18.861 -23.621  0.00  0.00    +0.020 C 
ATOM      4  C   UNL     1      34.382 -19.646 -21.462  0.00  0.00    +0.058 C 
ATOM      5  C   UNL     1      35.324 -17.372 -21.477  0.00  0.00    +0.048 C 
ATOM      6  C   UNL     1      35.307 -18.686 -20.678  0.00  0.00    +0.115 C 
ENDROOT
BRANCH   1   9
ATOM      7  O   UNL     1      34.706 -17.773 -25.713  0.00  0.00    -0.252 OA
ATOM      8  O   UNL     1      32.687 -13.637 -25.706  0.00  0.00    -0.270 OA
ATOM      9  N   UNL     1      34.381 -16.710 -23.663  0.00  0.00    -0.245 N 
ATOM     10  N   UNL     1      33.696 -15.710 -25.697  0.00  0.00    -0.236 N 
ATOM     11  C   UNL     1      33.901 -15.589 -23.002  0.00  0.00    +0.069 C 
ATOM     12  C   UNL     1      34.292 -16.807 -25.067  0.00  0.00    +0.314 C 
ATOM     13  C   UNL     1      33.331 -14.540 -23.608  0.00  0.00    +0.047 C 
ATOM     14  C   UNL     1      33.200 -14.567 -25.089  0.00  0.00    +0.250 C 
ATOM     15  C   UNL     1      32.821 -13.338 -22.880  0.00  0.00    +0.037 C 
ATOM     16  H   UNL     1      33.622 -15.753 -26.678  0.00  0.00    +0.159 HD
ENDBRANCH   1   9
BRANCH   6  17
ATOM     17  O   UNL     1      36.631 -19.212 -20.634  0.00  0.00    -0.384 OA
ATOM     18  H   UNL     1      36.979 -19.136 -19.731  0.00  0.00    +0.210 HD
ENDBRANCH   6  17
BRANCH   4  19
ATOM     19  C   UNL     1      32.960 -19.614 -20.905  0.00  0.00    +0.140 C 
BRANCH  19  20
ATOM     20  O   UNL     1      32.724 -20.823 -20.211  0.00  0.00    -0.382 OA
ATOM     21  H   UNL     1      32.976 -20.716 -19.281  0.00  0.00    +0.210 HD
ENDBRANCH  19  20
ENDBRANCH   4  19
TORSDOF 4
ENDMDL
MODEL 8
REMARK VINA RESULT:      -7.5      2.071      3.785
REMARK  Name = 447628
REMARK  4 active torsions:
REMARK  status: ('A' for Active; 'I' for Inactive)
REMARK    1  A    between atoms: C_1  and  N_9
REMARK    2  A    between atoms: C_4  and  C_19
REMARK    3  A    between atoms: C_6  and  O_17
REMARK    4  A    between atoms: C_19  and  O_20
REMARK                            x       y       z     vdW  Elec       q    Type
REMARK                         _______ _______ _______ _____ _____    ______ ____
ROOT
ATOM      1  C   UNL     1      36.252 -24.247 -14.077  0.00  0.00    +0.068 C 
ATOM      2  C   UNL     1      37.613 -23.774 -13.698  0.00  0.00    +0.024 C 
ATOM      3  C   UNL     1      36.424 -23.366 -12.869  0.00  0.00    +0.020 C 
ATOM      4  C   UNL     1      38.468 -24.974 -13.350  0.00  0.00    +0.058 C 
ATOM      5  C   UNL     1      36.219 -25.747 -13.982  0.00  0.00    +0.048 C 
ATOM      6  C   UNL     1      37.463 -26.136 -13.168  0.00  0.00    +0.115 C 
ENDROOT
BRANCH   1   9
ATOM      7  O   UNL     1      33.482 -24.543 -14.619  0.00  0.00    -0.252 OA
ATOM      8  O   UNL     1      33.821 -22.130 -18.523  0.00  0.00    -0.270 OA
ATOM      9  N   UNL     1      35.575 -23.705 -15.216  0.00  0.00    -0.245 N 
ATOM     10  N   UNL     1      33.662 -23.335 -16.563  0.00  0.00    -0.236 N 
ATOM     11  C   UNL     1      36.313 -22.985 -16.144  0.00  0.00    +0.069 C 
ATOM     12  C   UNL     1      34.192 -23.908 -15.403  0.00  0.00    +0.314 C 
ATOM     13  C   UNL     1      35.804 -22.438 -17.255  0.00  0.00    +0.047 C 
ATOM     14  C   UNL     1      34.351 -22.608 -17.523  0.00  0.00    +0.250 C 
ATOM     15  C   UNL     1      36.614 -21.667 -18.246  0.00  0.00    +0.037 C 
ATOM     16  H   UNL     1      32.698 -23.462 -16.717  0.00  0.00    +0.159 HD
ENDBRANCH   1   9
BRANCH   6  17
ATOM     17  O   UNL     1      37.096 -26.252 -11.796  0.00  0.00    -0.384 OA
ATOM     18  H   UNL     1      36.409 -26.930 -11.701  0.00  0.00    +0.210 HD
ENDBRANCH   6  17
BRANCH   4  19
ATOM     19  C   UNL     1      39.454 -25.274 -14.477  0.00  0.00    +0.140 C 
BRANCH  19  20
ATOM     20  O   UNL     1      39.409 -24.209 -15.407  0.00  0.00    -0.382 OA
ATOM     21  H   UNL     1      38.512 -23.840 -15.432  0.00  0.00    +0.210 HD
ENDBRANCH  19  20
ENDBRANCH   4  19
TORSDOF 4
ENDMDL
MODEL 9
REMARK VINA RESULT:      -7.5      1.908      2.809
REMARK  Name = 447628
REMARK  4 active torsions:
REMARK  status: ('A' for Active; 'I' for Inactive)
REMARK    1  A    between atoms: C_1  and  N_9
REMARK    2  A    between atoms: C_4  and  C_19
REMARK    3  A    between atoms: C_6  and  O_17
REMARK    4  A    between atoms: C_19  and  O_20
REMARK                            x       y       z     vdW  Elec       q    Type
REMARK                         _______ _______ _______ _____ _____    ______ ____
ROOT
ATOM      1  C   UNL     1      36.201 -23.524 -13.903  0.00  0.00    +0.068 C 
ATOM      2  C   UNL     1      37.231 -24.554 -14.218  0.00  0.00    +0.024 C 
ATOM      3  C   UNL     1      37.342 -23.178 -14.822  0.00  0.00    +0.020 C 
ATOM      4  C   UNL     1      37.947 -24.935 -12.941  0.00  0.00    +0.058 C 
ATOM      5  C   UNL     1      36.241 -23.238 -12.428  0.00  0.00    +0.048 C 
ATOM      6  C   UNL     1      37.569 -23.827 -11.930  0.00  0.00    +0.115 C 
ENDROOT
BRANCH   1   9
ATOM      7  O   UNL     1      33.899 -24.443 -12.523  0.00  0.00    -0.252 OA
ATOM      8  O   UNL     1      31.228 -23.801 -16.216  0.00  0.00    -0.270 OA
ATOM      9  N   UNL     1      34.885 -23.604 -14.462  0.00  0.00    -0.245 N 
ATOM     10  N   UNL     1      32.575 -24.116 -14.371  0.00  0.00    -0.236 N 
ATOM     11  C   UNL     1      34.702 -23.216 -15.781  0.00  0.00    +0.069 C 
ATOM     12  C   UNL     1      33.800 -24.078 -13.697  0.00  0.00    +0.314 C 
ATOM     13  C   UNL     1      33.528 -23.253 -16.424  0.00  0.00    +0.047 C 
ATOM     14  C   UNL     1      32.334 -23.742 -15.684  0.00  0.00    +0.250 C 
ATOM     15  C   UNL     1      33.348 -22.834 -17.848  0.00  0.00    +0.037 C 
ATOM     16  H   UNL     1      31.801 -24.444 -13.859  0.00  0.00    +0.159 HD
ENDBRANCH   1   9
BRANCH   6  17
ATOM     17  O   UNL     1      38.559 -22.801 -11.941  0.00  0.00    -0.384 OA
ATOM     18  H   UNL     1      39.161 -22.939 -12.689  0.00  0.00    +0.210 HD
ENDBRANCH   6  17
BRANCH   4  19
ATOM     19  C   UNL     1      37.478 -26.304 -12.453  0.00  0.00    +0.140 C 
BRANCH  19  20
ATOM     20  O   UNL     1      36.840 -26.969 -13.526  0.00  0.00    -0.382 OA
ATOM     21  H   UNL     1      35.902 -26.722 -13.547  0.00  0.00    +0.210 HD
ENDBRANCH  19  20
ENDBRANCH   4  19
TORSDOF 4
ENDMDL
