MODEL 1
REMARK VINA RESULT:      -8.7      0.000      0.000
REMARK  Name = 9543498
REMARK  3 active torsions:
REMARK  status: ('A' for Active; 'I' for Inactive)
REMARK    1  A    between atoms: C_1  and  C_7
REMARK    2  A    between atoms: C_2  and  S_13
REMARK    3  A    between atoms: S_13  and  O_15
REMARK                            x       y       z     vdW  Elec       q    Type
REMARK                         _______ _______ _______ _____ _____    ______ ____
ROOT
ATOM      1  C   UNL     1      34.575 -18.411 -22.633  0.00  0.00    +0.017 C 
ATOM      2  C   UNL     1      34.559 -17.036 -22.390  0.00  0.00    +0.100 C 
ATOM      3  C   UNL     1      34.663 -18.882 -23.944  0.00  0.00    +0.001 C 
ATOM      4  C   UNL     1      34.631 -16.136 -23.453  0.00  0.00    +0.018 C 
ATOM      5  C   UNL     1      34.736 -17.983 -25.008  0.00  0.00    +0.000 C 
ATOM      6  C   UNL     1      34.719 -16.610 -24.762  0.00  0.00    +0.001 C 
ENDROOT
BRANCH   1   7
ATOM      7  C   UNL     1      34.502 -19.381 -21.561  0.00  0.00    +0.001 C 
ATOM      8  C   UNL     1      33.261 -19.777 -21.060  0.00  0.00    +0.000 C 
ATOM      9  C   UNL     1      35.673 -19.922 -21.030  0.00  0.00    +0.000 C 
ATOM     10  C   UNL     1      33.192 -20.713 -20.029  0.00  0.00    +0.000 C 
ATOM     11  C   UNL     1      35.603 -20.858 -19.998  0.00  0.00    +0.000 C 
ATOM     12  C   UNL     1      34.363 -21.254 -19.498  0.00  0.00    +0.000 C 
ENDBRANCH   1   7
BRANCH   2  13
ATOM     13  S   UNL     1      34.446 -16.365 -20.720  0.00  0.00    -0.031 S 
ATOM     14  O   UNL     1      35.031 -14.985 -20.771  0.00  0.00    -0.076 OA
BRANCH  13  15
ATOM     15  O   UNL     1      32.845 -16.212 -20.796  0.00  0.00    -0.274 OA
ATOM     16  H   UNL     1      32.485 -16.876 -21.406  0.00  0.00    +0.242 HD
ENDBRANCH  13  15
ENDBRANCH   2  13
TORSDOF 3
ENDMDL
MODEL 2
REMARK VINA RESULT:      -8.4      2.398      3.293
REMARK  Name = 9543498
REMARK  3 active torsions:
REMARK  status: ('A' for Active; 'I' for Inactive)
REMARK    1  A    between atoms: C_1  and  C_7
REMARK    2  A    between atoms: C_2  and  S_13
REMARK    3  A    between atoms: S_13  and  O_15
REMARK                            x       y       z     vdW  Elec       q    Type
REMARK                         _______ _______ _______ _____ _____    ______ ____
ROOT
ATOM      1  C   UNL     1      34.695 -16.928 -21.802  0.00  0.00    +0.017 C 
ATOM      2  C   UNL     1      34.724 -16.659 -23.173  0.00  0.00    +0.100 C 
ATOM      3  C   UNL     1      34.456 -15.892 -20.897  0.00  0.00    +0.001 C 
ATOM      4  C   UNL     1      34.514 -15.360 -23.636  0.00  0.00    +0.018 C 
ATOM      5  C   UNL     1      34.246 -14.593 -21.360  0.00  0.00    +0.000 C 
ATOM      6  C   UNL     1      34.275 -14.327 -22.729  0.00  0.00    +0.001 C 
ENDROOT
BRANCH   1   7
ATOM      7  C   UNL     1      34.908 -18.260 -21.277  0.00  0.00    +0.001 C 
ATOM      8  C   UNL     1      36.204 -18.725 -21.054  0.00  0.00    +0.000 C 
ATOM      9  C   UNL     1      33.814 -19.079 -20.991  0.00  0.00    +0.000 C 
ATOM     10  C   UNL     1      36.407 -20.007 -20.546  0.00  0.00    +0.000 C 
ATOM     11  C   UNL     1      34.018 -20.361 -20.482  0.00  0.00    +0.000 C 
ATOM     12  C   UNL     1      35.314 -20.826 -20.260  0.00  0.00    +0.000 C 
ENDBRANCH   1   7
BRANCH   2  13
ATOM     13  S   UNL     1      35.028 -17.952 -24.391  0.00  0.00    -0.031 S 
ATOM     14  O   UNL     1      33.783 -18.787 -24.453  0.00  0.00    -0.076 OA
BRANCH  13  15
ATOM     15  O   UNL     1      34.979 -16.921 -25.626  0.00  0.00    -0.274 OA
ATOM     16  H   UNL     1      34.105 -16.502 -25.663  0.00  0.00    +0.242 HD
ENDBRANCH  13  15
ENDBRANCH   2  13
TORSDOF 3
ENDMDL
MODEL 3
REMARK VINA RESULT:      -8.1      0.888      1.543
REMARK  Name = 9543498
REMARK  3 active torsions:
REMARK  status: ('A' for Active; 'I' for Inactive)
REMARK    1  A    between atoms: C_1  and  C_7
REMARK    2  A    between atoms: C_2  and  S_13
REMARK    3  A    between atoms: S_13  and  O_15
REMARK                            x       y       z     vdW  Elec       q    Type
REMARK                         _______ _______ _______ _____ _____    ______ ____
ROOT
ATOM      1  C   UNL     1      34.666 -17.823 -22.876  0.00  0.00    +0.017 C 
ATOM      2  C   UNL     1      34.166 -16.551 -22.586  0.00  0.00    +0.100 C 
ATOM      3  C   UNL     1      34.969 -18.164 -24.196  0.00  0.00    +0.001 C 
ATOM      4  C   UNL     1      33.971 -15.626 -23.612  0.00  0.00    +0.018 C 
ATOM      5  C   UNL     1      34.774 -17.239 -25.221  0.00  0.00    +0.000 C 
ATOM      6  C   UNL     1      34.275 -15.970 -24.929  0.00  0.00    +0.001 C 
ENDROOT
BRANCH   1   7
ATOM      7  C   UNL     1      34.884 -18.815 -21.845  0.00  0.00    +0.001 C 
ATOM      8  C   UNL     1      36.160 -19.001 -21.314  0.00  0.00    +0.000 C 
ATOM      9  C   UNL     1      33.816 -19.585 -21.381  0.00  0.00    +0.000 C 
ATOM     10  C   UNL     1      36.370 -19.955 -20.319  0.00  0.00    +0.000 C 
ATOM     11  C   UNL     1      34.026 -20.539 -20.386  0.00  0.00    +0.000 C 
ATOM     12  C   UNL     1      35.302 -20.725 -19.855  0.00  0.00    +0.000 C 
ENDBRANCH   1   7
BRANCH   2  13
ATOM     13  S   UNL     1      33.755 -16.050 -20.905  0.00  0.00    -0.031 S 
ATOM     14  O   UNL     1      35.047 -15.687 -20.236  0.00  0.00    -0.076 OA
BRANCH  13  15
ATOM     15  O   UNL     1      33.062 -14.680 -21.389  0.00  0.00    -0.274 OA
ATOM     16  H   UNL     1      32.231 -14.550 -20.906  0.00  0.00    +0.242 HD
ENDBRANCH  13  15
ENDBRANCH   2  13
TORSDOF 3
ENDMDL
MODEL 4
REMARK VINA RESULT:      -7.6      4.171      6.583
REMARK  Name = 9543498
REMARK  3 active torsions:
REMARK  status: ('A' for Active; 'I' for Inactive)
REMARK    1  A    between atoms: C_1  and  C_7
REMARK    2  A    between atoms: C_2  and  S_13
REMARK    3  A    between atoms: S_13  and  O_15
REMARK                            x       y       z     vdW  Elec       q    Type
REMARK                         _______ _______ _______ _____ _____    ______ ____
ROOT
ATOM      1  C   UNL     1      33.916 -14.711 -23.738  0.00  0.00    +0.017 C 
ATOM      2  C   UNL     1      33.704 -15.343 -24.965  0.00  0.00    +0.100 C 
ATOM      3  C   UNL     1      34.651 -15.359 -22.743  0.00  0.00    +0.001 C 
ATOM      4  C   UNL     1      34.223 -16.617 -25.196  0.00  0.00    +0.018 C 
ATOM      5  C   UNL     1      35.170 -16.633 -22.973  0.00  0.00    +0.000 C 
ATOM      6  C   UNL     1      34.956 -17.262 -24.199  0.00  0.00    +0.001 C 
ENDROOT
BRANCH   1   7
ATOM      7  C   UNL     1      33.397 -13.390 -23.455  0.00  0.00    +0.001 C 
ATOM      8  C   UNL     1      32.357 -13.230 -22.539  0.00  0.00    +0.000 C 
ATOM      9  C   UNL     1      33.939 -12.276 -24.097  0.00  0.00    +0.000 C 
ATOM     10  C   UNL     1      31.858 -11.957 -22.265  0.00  0.00    +0.000 C 
ATOM     11  C   UNL     1      33.440 -11.002 -23.823  0.00  0.00    +0.000 C 
ATOM     12  C   UNL     1      32.400 -10.842 -22.908  0.00  0.00    +0.000 C 
ENDBRANCH   1   7
BRANCH   2  13
ATOM     13  S   UNL     1      32.765 -14.560 -26.290  0.00  0.00    -0.031 S 
ATOM     14  O   UNL     1      33.767 -14.053 -27.286  0.00  0.00    -0.076 OA
BRANCH  13  15
ATOM     15  O   UNL     1      32.206 -15.965 -26.843  0.00  0.00    -0.274 OA
ATOM     16  H   UNL     1      32.892 -16.645 -26.748  0.00  0.00    +0.242 HD
ENDBRANCH  13  15
ENDBRANCH   2  13
TORSDOF 3
ENDMDL
MODEL 5
REMARK VINA RESULT:      -7.3      7.478      8.740
REMARK  Name = 9543498
REMARK  3 active torsions:
REMARK  status: ('A' for Active; 'I' for Inactive)
REMARK    1  A    between atoms: C_1  and  C_7
REMARK    2  A    between atoms: C_2  and  S_13
REMARK    3  A    between atoms: S_13  and  O_15
REMARK                            x       y       z     vdW  Elec       q    Type
REMARK                         _______ _______ _______ _____ _____    ______ ____
ROOT
ATOM      1  C   UNL     1      33.405 -23.467 -15.383  0.00  0.00    +0.017 C 
ATOM      2  C   UNL     1      32.780 -23.109 -16.581  0.00  0.00    +0.100 C 
ATOM      3  C   UNL     1      32.640 -23.639 -14.227  0.00  0.00    +0.001 C 
ATOM      4  C   UNL     1      31.398 -22.924 -16.621  0.00  0.00    +0.018 C 
ATOM      5  C   UNL     1      31.258 -23.453 -14.268  0.00  0.00    +0.000 C 
ATOM      6  C   UNL     1      30.638 -23.096 -15.464  0.00  0.00    +0.001 C 
ENDROOT
BRANCH   1   7
ATOM      7  C   UNL     1      34.835 -23.670 -15.295  0.00  0.00    +0.001 C 
ATOM      8  C   UNL     1      35.703 -22.584 -15.413  0.00  0.00    +0.000 C 
ATOM      9  C   UNL     1      35.345 -24.952 -15.088  0.00  0.00    +0.000 C 
ATOM     10  C   UNL     1      37.081 -22.780 -15.324  0.00  0.00    +0.000 C 
ATOM     11  C   UNL     1      36.723 -25.148 -15.000  0.00  0.00    +0.000 C 
ATOM     12  C   UNL     1      37.591 -24.063 -15.118  0.00  0.00    +0.000 C 
ENDBRANCH   1   7
BRANCH   2  13
ATOM     13  S   UNL     1      33.710 -22.873 -18.107  0.00  0.00    -0.031 S 
ATOM     14  O   UNL     1      33.730 -24.199 -18.808  0.00  0.00    -0.076 OA
BRANCH  13  15
ATOM     15  O   UNL     1      32.546 -21.989 -18.782  0.00  0.00    -0.274 OA
ATOM     16  H   UNL     1      32.049 -22.536 -19.410  0.00  0.00    +0.242 HD
ENDBRANCH  13  15
ENDBRANCH   2  13
TORSDOF 3
ENDMDL
MODEL 6
REMARK VINA RESULT:      -7.2      9.398     10.571
REMARK  Name = 9543498
REMARK  3 active torsions:
REMARK  status: ('A' for Active; 'I' for Inactive)
REMARK    1  A    between atoms: C_1  and  C_7
REMARK    2  A    between atoms: C_2  and  S_13
REMARK    3  A    between atoms: S_13  and  O_15
REMARK                            x       y       z     vdW  Elec       q    Type
REMARK                         _______ _______ _______ _____ _____    ______ ____
ROOT
ATOM      1  C   UNL     1      32.921  -8.239 -22.809  0.00  0.00    +0.017 C 
ATOM      2  C   UNL     1      32.369  -7.025 -23.223  0.00  0.00    +0.100 C 
ATOM      3  C   UNL     1      34.136  -8.668 -23.349  0.00  0.00    +0.001 C 
ATOM      4  C   UNL     1      33.028  -6.243 -24.173  0.00  0.00    +0.018 C 
ATOM      5  C   UNL     1      34.795  -7.887 -24.298  0.00  0.00    +0.000 C 
ATOM      6  C   UNL     1      34.241  -6.675 -24.710  0.00  0.00    +0.001 C 
ENDROOT
BRANCH   1   7
ATOM      7  C   UNL     1      32.273  -9.082 -21.827  0.00  0.00    +0.001 C 
ATOM      8  C   UNL     1      31.526 -10.186 -22.238  0.00  0.00    +0.000 C 
ATOM      9  C   UNL     1      32.398  -8.791 -20.468  0.00  0.00    +0.000 C 
ATOM     10  C   UNL     1      30.904 -10.999 -21.292  0.00  0.00    +0.000 C 
ATOM     11  C   UNL     1      31.776  -9.604 -19.521  0.00  0.00    +0.000 C 
ATOM     12  C   UNL     1      31.029 -10.708 -19.933  0.00  0.00    +0.000 C 
ENDBRANCH   1   7
BRANCH   2  13
ATOM     13  S   UNL     1      30.805  -6.416 -22.565  0.00  0.00    -0.031 S 
ATOM     14  O   UNL     1      31.120  -5.741 -21.263  0.00  0.00    -0.076 OA
BRANCH  13  15
ATOM     15  O   UNL     1      30.680  -5.267 -23.686  0.00  0.00    -0.274 OA
ATOM     16  H   UNL     1      30.852  -4.402 -23.282  0.00  0.00    +0.242 HD
ENDBRANCH  13  15
ENDBRANCH   2  13
TORSDOF 3
ENDMDL
MODEL 7
REMARK VINA RESULT:      -7.1      3.095      5.466
REMARK  Name = 9543498
REMARK  3 active torsions:
REMARK  status: ('A' for Active; 'I' for Inactive)
REMARK    1  A    between atoms: C_1  and  C_7
REMARK    2  A    between atoms: C_2  and  S_13
REMARK    3  A    between atoms: S_13  and  O_15
REMARK                            x       y       z     vdW  Elec       q    Type
REMARK                         _______ _______ _______ _____ _____    ______ ____
ROOT
ATOM      1  C   UNL     1      34.483 -16.455 -22.412  0.00  0.00    +0.017 C 
ATOM      2  C   UNL     1      34.644 -17.290 -23.520  0.00  0.00    +0.100 C 
ATOM      3  C   UNL     1      34.957 -16.861 -21.163  0.00  0.00    +0.001 C 
ATOM      4  C   UNL     1      35.277 -18.525 -23.379  0.00  0.00    +0.018 C 
ATOM      5  C   UNL     1      35.590 -18.096 -21.022  0.00  0.00    +0.000 C 
ATOM      6  C   UNL     1      35.750 -18.928 -22.130  0.00  0.00    +0.001 C 
ENDROOT
BRANCH   1   7
ATOM      7  C   UNL     1      33.833 -15.166 -22.511  0.00  0.00    +0.001 C 
ATOM      8  C   UNL     1      34.291 -14.221 -23.430  0.00  0.00    +0.000 C 
ATOM      9  C   UNL     1      32.747 -14.868 -21.688  0.00  0.00    +0.000 C 
ATOM     10  C   UNL     1      33.663 -12.980 -23.526  0.00  0.00    +0.000 C 
ATOM     11  C   UNL     1      32.118 -13.627 -21.784  0.00  0.00    +0.000 C 
ATOM     12  C   UNL     1      32.576 -12.682 -22.703  0.00  0.00    +0.000 C 
ENDBRANCH   1   7
BRANCH   2  13
ATOM     13  S   UNL     1      34.055 -16.824 -25.158  0.00  0.00    -0.031 S 
ATOM     14  O   UNL     1      35.266 -16.457 -25.964  0.00  0.00    -0.076 OA
BRANCH  13  15
ATOM     15  O   UNL     1      33.660 -18.336 -25.543  0.00  0.00    -0.274 OA
ATOM     16  H   UNL     1      33.056 -18.693 -24.873  0.00  0.00    +0.242 HD
ENDBRANCH  13  15
ENDBRANCH   2  13
TORSDOF 3
ENDMDL
MODEL 8
REMARK VINA RESULT:      -7.0      1.847      5.246
REMARK  Name = 9543498
REMARK  3 active torsions:
REMARK  status: ('A' for Active; 'I' for Inactive)
REMARK    1  A    between atoms: C_1  and  C_7
REMARK    2  A    between atoms: C_2  and  S_13
REMARK    3  A    between atoms: S_13  and  O_15
REMARK                            x       y       z     vdW  Elec       q    Type
REMARK                         _______ _______ _______ _____ _____    ______ ____
ROOT
ATOM      1  C   UNL     1      34.432 -16.655 -23.509  0.00  0.00    +0.017 C 
ATOM      2  C   UNL     1      34.436 -16.753 -22.115  0.00  0.00    +0.100 C 
ATOM      3  C   UNL     1      34.824 -17.750 -24.282  0.00  0.00    +0.001 C 
ATOM      4  C   UNL     1      34.831 -17.941 -21.498  0.00  0.00    +0.018 C 
ATOM      5  C   UNL     1      35.219 -18.937 -23.665  0.00  0.00    +0.000 C 
ATOM      6  C   UNL     1      35.222 -19.033 -22.274  0.00  0.00    +0.001 C 
ENDROOT
BRANCH   1   7
ATOM      7  C   UNL     1      34.030 -15.444 -24.191  0.00  0.00    +0.001 C 
ATOM      8  C   UNL     1      34.181 -14.207 -23.565  0.00  0.00    +0.000 C 
ATOM      9  C   UNL     1      33.494 -15.514 -25.478  0.00  0.00    +0.000 C 
ATOM     10  C   UNL     1      33.796 -13.040 -24.225  0.00  0.00    +0.000 C 
ATOM     11  C   UNL     1      33.110 -14.348 -26.138  0.00  0.00    +0.000 C 
ATOM     12  C   UNL     1      33.260 -13.110 -25.512  0.00  0.00    +0.000 C 
ENDBRANCH   1   7
BRANCH   2  13
ATOM     13  S   UNL     1      33.941 -15.377 -21.062  0.00  0.00    -0.031 S 
ATOM     14  O   UNL     1      32.544 -15.669 -20.600  0.00  0.00    -0.076 OA
BRANCH  13  15
ATOM     15  O   UNL     1      34.940 -15.811 -19.876  0.00  0.00    -0.274 OA
ATOM     16  H   UNL     1      35.562 -15.088 -19.697  0.00  0.00    +0.242 HD
ENDBRANCH  13  15
ENDBRANCH   2  13
TORSDOF 3
ENDMDL
MODEL 9
REMARK VINA RESULT:      -7.0      5.465      8.053
REMARK  Name = 9543498
REMARK  3 active torsions:
REMARK  status: ('A' for Active; 'I' for Inactive)
REMARK    1  A    between atoms: C_1  and  C_7
REMARK    2  A    between atoms: C_2  and  S_13
REMARK    3  A    between atoms: S_13  and  O_15
REMARK                            x       y       z     vdW  Elec       q    Type
REMARK                         _______ _______ _______ _____ _____    ______ ____
ROOT
ATOM      1  C   UNL     1      33.548 -12.249 -25.176  0.00  0.00    +0.017 C 
ATOM      2  C   UNL     1      33.372 -13.427 -24.446  0.00  0.00    +0.100 C 
ATOM      3  C   UNL     1      33.559 -12.293 -26.571  0.00  0.00    +0.001 C 
ATOM      4  C   UNL     1      33.208 -14.643 -25.109  0.00  0.00    +0.018 C 
ATOM      5  C   UNL     1      33.395 -13.510 -27.234  0.00  0.00    +0.000 C 
ATOM      6  C   UNL     1      33.219 -14.684 -26.503  0.00  0.00    +0.001 C 
ENDROOT
BRANCH   1   7
ATOM      7  C   UNL     1      33.723 -10.965 -24.531  0.00  0.00    +0.001 C 
ATOM      8  C   UNL     1      34.863 -10.204 -24.787  0.00  0.00    +0.000 C 
ATOM      9  C   UNL     1      32.748 -10.488 -23.654  0.00  0.00    +0.000 C 
ATOM     10  C   UNL     1      35.029  -8.965 -24.167  0.00  0.00    +0.000 C 
ATOM     11  C   UNL     1      32.914  -9.249 -23.034  0.00  0.00    +0.000 C 
ATOM     12  C   UNL     1      34.054  -8.488 -23.290  0.00  0.00    +0.000 C 
ENDBRANCH   1   7
BRANCH   2  13
ATOM     13  S   UNL     1      33.349 -13.436 -22.643  0.00  0.00    -0.031 S 
ATOM     14  O   UNL     1      32.296 -14.421 -22.232  0.00  0.00    -0.076 OA
BRANCH  13  15
ATOM     15  O   UNL     1      34.772 -14.180 -22.541  0.00  0.00    -0.274 OA
ATOM     16  H   UNL     1      34.678 -15.100 -22.838  0.00  0.00    +0.242 HD
ENDBRANCH  13  15
ENDBRANCH   2  13
TORSDOF 3
ENDMDL
