MODEL 1
REMARK VINA RESULT:      -5.9      0.000      0.000
REMARK  Name = 446000
REMARK  6 active torsions:
REMARK  status: ('A' for Active; 'I' for Inactive)
REMARK    1  A    between atoms: C_2  and  S_7
REMARK    2  A    between atoms: C_3  and  O_9
REMARK    3  A    between atoms: C_4  and  C_15
REMARK    4  A    between atoms: C_5  and  O_11
REMARK    5  A    between atoms: C_6  and  O_13
REMARK    6  A    between atoms: C_15  and  O_16
REMARK                            x       y       z     vdW  Elec       q    Type
REMARK                         _______ _______ _______ _____ _____    ______ ____
ROOT
ATOM      1  O   UNL     1      35.255 -25.436 -15.091  0.00  0.00    -0.328 OA
ATOM      2  C   UNL     1      36.465 -25.083 -12.995  0.00  0.00    +0.103 C 
ATOM      3  C   UNL     1      35.397 -24.074 -12.544  0.00  0.00    +0.154 C 
ATOM      4  C   UNL     1      36.551 -25.168 -14.531  0.00  0.00    +0.159 C 
ATOM      5  C   UNL     1      34.081 -24.329 -13.280  0.00  0.00    +0.195 C 
ATOM      6  C   UNL     1      34.286 -24.433 -14.791  0.00  0.00    +0.266 C 
ENDROOT
BRANCH   2   7
ATOM      7  S   UNL     1      38.080 -24.627 -12.254  0.00  0.00    -0.164 S 
ATOM      8  H   UNL     1      38.950 -25.663 -12.393  0.00  0.00    +0.102 HD
ENDBRANCH   2   7
BRANCH   3   9
ATOM      9  O   UNL     1      35.145 -24.224 -11.145  0.00  0.00    -0.381 OA
ATOM     10  H   UNL     1      34.213 -24.026 -10.962  0.00  0.00    +0.210 HD
ENDBRANCH   3   9
BRANCH   5  11
ATOM     11  O   UNL     1      33.161 -23.283 -12.980  0.00  0.00    -0.378 OA
ATOM     12  H   UNL     1      32.264 -23.565 -13.217  0.00  0.00    +0.211 HD
ENDBRANCH   5  11
BRANCH   6  13
ATOM     13  O   UNL     1      34.597 -23.178 -15.392  0.00  0.00    -0.326 OA
ATOM     14  C   UNL     1      34.165 -23.132 -16.744  0.00  0.00    +0.177 C 
ENDBRANCH   6  13
BRANCH   4  15
ATOM     15  C   UNL     1      37.458 -26.297 -15.018  0.00  0.00    +0.168 C 
BRANCH  15  16
ATOM     16  O   UNL     1      36.786 -26.999 -16.048  0.00  0.00    -0.379 OA
ATOM     17  H   UNL     1      35.908 -26.610 -16.182  0.00  0.00    +0.211 HD
ENDBRANCH  15  16
ENDBRANCH   4  15
TORSDOF 6
ENDMDL
MODEL 2
REMARK VINA RESULT:      -5.8      2.543      4.014
REMARK  Name = 446000
REMARK  6 active torsions:
REMARK  status: ('A' for Active; 'I' for Inactive)
REMARK    1  A    between atoms: C_2  and  S_7
REMARK    2  A    between atoms: C_3  and  O_9
REMARK    3  A    between atoms: C_4  and  C_15
REMARK    4  A    between atoms: C_5  and  O_11
REMARK    5  A    between atoms: C_6  and  O_13
REMARK    6  A    between atoms: C_15  and  O_16
REMARK                            x       y       z     vdW  Elec       q    Type
REMARK                         _______ _______ _______ _____ _____    ______ ____
ROOT
ATOM      1  O   UNL     1      35.520 -23.650 -16.159  0.00  0.00    -0.328 OA
ATOM      2  C   UNL     1      33.246 -23.265 -15.346  0.00  0.00    +0.103 C 
ATOM      3  C   UNL     1      33.560 -24.068 -14.074  0.00  0.00    +0.154 C 
ATOM      4  C   UNL     1      34.133 -23.704 -16.527  0.00  0.00    +0.159 C 
ATOM      5  C   UNL     1      35.067 -24.085 -13.815  0.00  0.00    +0.195 C 
ATOM      6  C   UNL     1      35.853 -24.498 -15.060  0.00  0.00    +0.266 C 
ENDROOT
BRANCH   2   7
ATOM      7  S   UNL     1      31.463 -23.432 -15.744  0.00  0.00    -0.164 S 
ATOM      8  H   UNL     1      30.939 -22.204 -15.999  0.00  0.00    +0.102 HD
ENDBRANCH   2   7
BRANCH   3   9
ATOM      9  O   UNL     1      32.937 -23.454 -12.944  0.00  0.00    -0.381 OA
ATOM     10  H   UNL     1      33.548 -23.466 -12.191  0.00  0.00    +0.210 HD
ENDBRANCH   3   9
BRANCH   5  11
ATOM     11  O   UNL     1      35.352 -24.973 -12.739  0.00  0.00    -0.378 OA
ATOM     12  H   UNL     1      34.969 -25.844 -12.928  0.00  0.00    +0.211 HD
ENDBRANCH   5  11
BRANCH   6  13
ATOM     13  O   UNL     1      35.700 -25.880 -15.374  0.00  0.00    -0.326 OA
ATOM     14  C   UNL     1      36.931 -26.576 -15.257  0.00  0.00    +0.177 C 
ENDBRANCH   6  13
BRANCH   4  15
ATOM     15  C   UNL     1      33.990 -22.802 -17.752  0.00  0.00    +0.168 C 
BRANCH  15  16
ATOM     16  O   UNL     1      33.779 -23.619 -18.888  0.00  0.00    -0.379 OA
ATOM     17  H   UNL     1      33.083 -24.267 -18.694  0.00  0.00    +0.211 HD
ENDBRANCH  15  16
ENDBRANCH   4  15
TORSDOF 6
ENDMDL
MODEL 3
REMARK VINA RESULT:      -5.7      2.658      3.933
REMARK  Name = 446000
REMARK  6 active torsions:
REMARK  status: ('A' for Active; 'I' for Inactive)
REMARK    1  A    between atoms: C_2  and  S_7
REMARK    2  A    between atoms: C_3  and  O_9
REMARK    3  A    between atoms: C_4  and  C_15
REMARK    4  A    between atoms: C_5  and  O_11
REMARK    5  A    between atoms: C_6  and  O_13
REMARK    6  A    between atoms: C_15  and  O_16
REMARK                            x       y       z     vdW  Elec       q    Type
REMARK                         _______ _______ _______ _____ _____    ______ ____
ROOT
ATOM      1  O   UNL     1      37.914 -23.480 -14.208  0.00  0.00    -0.328 OA
ATOM      2  C   UNL     1      35.485 -23.522 -14.488  0.00  0.00    +0.103 C 
ATOM      3  C   UNL     1      35.394 -24.735 -13.549  0.00  0.00    +0.154 C 
ATOM      4  C   UNL     1      36.858 -23.445 -15.181  0.00  0.00    +0.159 C 
ATOM      5  C   UNL     1      36.616 -24.791 -12.632  0.00  0.00    +0.195 C 
ATOM      6  C   UNL     1      37.922 -24.669 -13.418  0.00  0.00    +0.266 C 
ENDROOT
BRANCH   2   7
ATOM      7  S   UNL     1      34.117 -23.595 -15.707  0.00  0.00    -0.164 S 
ATOM      8  H   UNL     1      34.576 -23.208 -16.927  0.00  0.00    +0.102 HD
ENDBRANCH   2   7
BRANCH   3   9
ATOM      9  O   UNL     1      34.237 -24.622 -12.717  0.00  0.00    -0.381 OA
ATOM     10  H   UNL     1      33.557 -25.243 -13.022  0.00  0.00    +0.210 HD
ENDBRANCH   3   9
BRANCH   5  11
ATOM     11  O   UNL     1      36.600 -26.010 -11.895  0.00  0.00    -0.378 OA
ATOM     12  H   UNL     1      37.511 -26.284 -11.705  0.00  0.00    +0.211 HD
ENDBRANCH   5  11
BRANCH   6  13
ATOM     13  O   UNL     1      38.211 -25.832 -14.189  0.00  0.00    -0.326 OA
ATOM     14  C   UNL     1      39.588 -25.896 -14.530  0.00  0.00    +0.177 C 
ENDBRANCH   6  13
BRANCH   4  15
ATOM     15  C   UNL     1      37.060 -22.151 -15.969  0.00  0.00    +0.168 C 
BRANCH  15  16
ATOM     16  O   UNL     1      37.161 -22.474 -17.343  0.00  0.00    -0.379 OA
ATOM     17  H   UNL     1      36.385 -22.990 -17.611  0.00  0.00    +0.211 HD
ENDBRANCH  15  16
ENDBRANCH   4  15
TORSDOF 6
ENDMDL
MODEL 4
REMARK VINA RESULT:      -5.6      2.002      3.611
REMARK  Name = 446000
REMARK  6 active torsions:
REMARK  status: ('A' for Active; 'I' for Inactive)
REMARK    1  A    between atoms: C_2  and  S_7
REMARK    2  A    between atoms: C_3  and  O_9
REMARK    3  A    between atoms: C_4  and  C_15
REMARK    4  A    between atoms: C_5  and  O_11
REMARK    5  A    between atoms: C_6  and  O_13
REMARK    6  A    between atoms: C_15  and  O_16
REMARK                            x       y       z     vdW  Elec       q    Type
REMARK                         _______ _______ _______ _____ _____    ______ ____
ROOT
ATOM      1  O   UNL     1      35.120 -23.092 -14.294  0.00  0.00    -0.328 OA
ATOM      2  C   UNL     1      37.196 -24.346 -13.974  0.00  0.00    +0.103 C 
ATOM      3  C   UNL     1      37.614 -24.030 -15.419  0.00  0.00    +0.154 C 
ATOM      4  C   UNL     1      35.664 -24.331 -13.812  0.00  0.00    +0.159 C 
ATOM      5  C   UNL     1      36.895 -22.776 -15.918  0.00  0.00    +0.195 C 
ATOM      6  C   UNL     1      35.388 -22.850 -15.675  0.00  0.00    +0.266 C 
ENDROOT
BRANCH   2   7
ATOM      7  S   UNL     1      37.911 -25.960 -13.475  0.00  0.00    -0.164 S 
ATOM      8  H   UNL     1      38.210 -26.685 -14.586  0.00  0.00    +0.102 HD
ENDBRANCH   2   7
BRANCH   3   9
ATOM      9  O   UNL     1      39.019 -23.771 -15.473  0.00  0.00    -0.381 OA
ATOM     10  H   UNL     1      39.190 -22.856 -15.202  0.00  0.00    +0.210 HD
ENDBRANCH   3   9
BRANCH   5  11
ATOM     11  O   UNL     1      37.160 -22.600 -17.306  0.00  0.00    -0.378 OA
ATOM     12  H   UNL     1      37.921 -23.145 -17.561  0.00  0.00    +0.211 HD
ENDBRANCH   5  11
BRANCH   6  13
ATOM     13  O   UNL     1      34.739 -23.791 -16.527  0.00  0.00    -0.326 OA
ATOM     14  C   UNL     1      33.489 -23.298 -16.984  0.00  0.00    +0.177 C 
ENDBRANCH   6  13
BRANCH   4  15
ATOM     15  C   UNL     1      35.214 -24.446 -12.356  0.00  0.00    +0.168 C 
BRANCH  15  16
ATOM     16  O   UNL     1      34.152 -23.535 -12.142  0.00  0.00    -0.379 OA
ATOM     17  H   UNL     1      34.511 -22.684 -11.847  0.00  0.00    +0.211 HD
ENDBRANCH  15  16
ENDBRANCH   4  15
TORSDOF 6
ENDMDL
MODEL 5
REMARK VINA RESULT:      -5.6      2.534      3.813
REMARK  Name = 446000
REMARK  6 active torsions:
REMARK  status: ('A' for Active; 'I' for Inactive)
REMARK    1  A    between atoms: C_2  and  S_7
REMARK    2  A    between atoms: C_3  and  O_9
REMARK    3  A    between atoms: C_4  and  C_15
REMARK    4  A    between atoms: C_5  and  O_11
REMARK    5  A    between atoms: C_6  and  O_13
REMARK    6  A    between atoms: C_15  and  O_16
REMARK                            x       y       z     vdW  Elec       q    Type
REMARK                         _______ _______ _______ _____ _____    ______ ____
ROOT
ATOM      1  O   UNL     1      38.095 -23.394 -14.100  0.00  0.00    -0.328 OA
ATOM      2  C   UNL     1      36.932 -24.845 -12.511  0.00  0.00    +0.103 C 
ATOM      3  C   UNL     1      36.608 -25.832 -13.643  0.00  0.00    +0.154 C 
ATOM      4  C   UNL     1      37.120 -23.412 -13.045  0.00  0.00    +0.159 C 
ATOM      5  C   UNL     1      37.602 -25.666 -14.793  0.00  0.00    +0.195 C 
ATOM      6  C   UNL     1      37.740 -24.205 -15.219  0.00  0.00    +0.266 C 
ENDROOT
BRANCH   2   7
ATOM      7  S   UNL     1      35.610 -24.923 -11.242  0.00  0.00    -0.164 S 
ATOM      8  H   UNL     1      35.511 -23.719 -10.617  0.00  0.00    +0.102 HD
ENDBRANCH   2   7
BRANCH   3   9
ATOM      9  O   UNL     1      36.722 -27.175 -13.166  0.00  0.00    -0.381 OA
ATOM     10  H   UNL     1      37.637 -27.344 -12.891  0.00  0.00    +0.210 HD
ENDBRANCH   3   9
BRANCH   5  11
ATOM     11  O   UNL     1      37.184 -26.462 -15.898  0.00  0.00    -0.378 OA
ATOM     12  H   UNL     1      36.736 -27.258 -15.571  0.00  0.00    +0.211 HD
ENDBRANCH   5  11
BRANCH   6  13
ATOM     13  O   UNL     1      36.584 -23.718 -15.898  0.00  0.00    -0.326 OA
ATOM     14  C   UNL     1      36.831 -22.455 -16.497  0.00  0.00    +0.177 C 
ENDBRANCH   6  13
BRANCH   4  15
ATOM     15  C   UNL     1      37.635 -22.440 -11.984  0.00  0.00    +0.168 C 
BRANCH  15  16
ATOM     16  O   UNL     1      38.905 -22.884 -11.547  0.00  0.00    -0.379 OA
ATOM     17  H   UNL     1      38.827 -23.785 -11.196  0.00  0.00    +0.211 HD
ENDBRANCH  15  16
ENDBRANCH   4  15
TORSDOF 6
ENDMDL
MODEL 6
REMARK VINA RESULT:      -5.6      1.567      3.485
REMARK  Name = 446000
REMARK  6 active torsions:
REMARK  status: ('A' for Active; 'I' for Inactive)
REMARK    1  A    between atoms: C_2  and  S_7
REMARK    2  A    between atoms: C_3  and  O_9
REMARK    3  A    between atoms: C_4  and  C_15
REMARK    4  A    between atoms: C_5  and  O_11
REMARK    5  A    between atoms: C_6  and  O_13
REMARK    6  A    between atoms: C_15  and  O_16
REMARK                            x       y       z     vdW  Elec       q    Type
REMARK                         _______ _______ _______ _____ _____    ______ ____
ROOT
ATOM      1  O   UNL     1      34.385 -23.626 -12.781  0.00  0.00    -0.328 OA
ATOM      2  C   UNL     1      36.600 -24.444 -13.419  0.00  0.00    +0.103 C 
ATOM      3  C   UNL     1      36.136 -24.573 -14.879  0.00  0.00    +0.154 C 
ATOM      4  C   UNL     1      35.419 -24.563 -12.437  0.00  0.00    +0.159 C 
ATOM      5  C   UNL     1      34.945 -23.650 -15.141  0.00  0.00    +0.195 C 
ATOM      6  C   UNL     1      33.850 -23.822 -14.089  0.00  0.00    +0.266 C 
ENDROOT
BRANCH   2   7
ATOM      7  S   UNL     1      37.888 -25.705 -13.080  0.00  0.00    -0.164 S 
ATOM      8  H   UNL     1      38.144 -26.407 -14.215  0.00  0.00    +0.102 HD
ENDBRANCH   2   7
BRANCH   3   9
ATOM      9  O   UNL     1      37.189 -24.179 -15.761  0.00  0.00    -0.381 OA
ATOM     10  H   UNL     1      38.042 -24.269 -15.308  0.00  0.00    +0.210 HD
ENDBRANCH   3   9
BRANCH   5  11
ATOM     11  O   UNL     1      34.422 -23.909 -16.441  0.00  0.00    -0.378 OA
ATOM     12  H   UNL     1      34.058 -23.091 -16.811  0.00  0.00    +0.211 HD
ENDBRANCH   5  11
BRANCH   6  13
ATOM     13  O   UNL     1      33.157 -25.062 -14.213  0.00  0.00    -0.326 OA
ATOM     14  C   UNL     1      31.826 -24.961 -13.730  0.00  0.00    +0.177 C 
ENDBRANCH   6  13
BRANCH   4  15
ATOM     15  C   UNL     1      35.806 -24.246 -10.993  0.00  0.00    +0.168 C 
BRANCH  15  16
ATOM     16  O   UNL     1      35.202 -25.205 -10.146  0.00  0.00    -0.379 OA
ATOM     17  H   UNL     1      34.397 -25.545 -10.566  0.00  0.00    +0.211 HD
ENDBRANCH  15  16
ENDBRANCH   4  15
TORSDOF 6
ENDMDL
MODEL 7
REMARK VINA RESULT:      -5.6      1.020      1.037
REMARK  Name = 446000
REMARK  6 active torsions:
REMARK  status: ('A' for Active; 'I' for Inactive)
REMARK    1  A    between atoms: C_2  and  S_7
REMARK    2  A    between atoms: C_3  and  O_9
REMARK    3  A    between atoms: C_4  and  C_15
REMARK    4  A    between atoms: C_5  and  O_11
REMARK    5  A    between atoms: C_6  and  O_13
REMARK    6  A    between atoms: C_15  and  O_16
REMARK                            x       y       z     vdW  Elec       q    Type
REMARK                         _______ _______ _______ _____ _____    ______ ____
ROOT
ATOM      1  O   UNL     1      35.668 -25.440 -15.500  0.00  0.00    -0.328 OA
ATOM      2  C   UNL     1      36.357 -24.843 -13.230  0.00  0.00    +0.103 C 
ATOM      3  C   UNL     1      35.306 -23.721 -13.202  0.00  0.00    +0.154 C 
ATOM      4  C   UNL     1      36.807 -25.162 -14.668  0.00  0.00    +0.159 C 
ATOM      5  C   UNL     1      34.192 -24.012 -14.208  0.00  0.00    +0.195 C 
ATOM      6  C   UNL     1      34.749 -24.352 -15.590  0.00  0.00    +0.266 C 
ENDROOT
BRANCH   2   7
ATOM      7  S   UNL     1      37.777 -24.370 -12.169  0.00  0.00    -0.164 S 
ATOM      8  H   UNL     1      37.492 -24.668 -10.873  0.00  0.00    +0.102 HD
ENDBRANCH   2   7
BRANCH   3   9
ATOM      9  O   UNL     1      34.708 -23.647 -11.906  0.00  0.00    -0.381 OA
ATOM     10  H   UNL     1      33.811 -24.016 -11.943  0.00  0.00    +0.210 HD
ENDBRANCH   3   9
BRANCH   5  11
ATOM     11  O   UNL     1      33.325 -22.885 -14.293  0.00  0.00    -0.378 OA
ATOM     12  H   UNL     1      33.588 -22.226 -13.631  0.00  0.00    +0.211 HD
ENDBRANCH   5  11
BRANCH   6  13
ATOM     13  O   UNL     1      35.310 -23.220 -16.252  0.00  0.00    -0.326 OA
ATOM     14  C   UNL     1      34.545 -22.856 -17.391  0.00  0.00    +0.177 C 
ENDBRANCH   6  13
BRANCH   4  15
ATOM     15  C   UNL     1      37.700 -26.399 -14.757  0.00  0.00    +0.168 C 
BRANCH  15  16
ATOM     16  O   UNL     1      38.904 -26.036 -15.407  0.00  0.00    -0.379 OA
ATOM     17  H   UNL     1      39.074 -26.652 -16.137  0.00  0.00    +0.211 HD
ENDBRANCH  15  16
ENDBRANCH   4  15
TORSDOF 6
ENDMDL
MODEL 8
REMARK VINA RESULT:      -5.5     10.284     12.635
REMARK  Name = 446000
REMARK  6 active torsions:
REMARK  status: ('A' for Active; 'I' for Inactive)
REMARK    1  A    between atoms: C_2  and  S_7
REMARK    2  A    between atoms: C_3  and  O_9
REMARK    3  A    between atoms: C_4  and  C_15
REMARK    4  A    between atoms: C_5  and  O_11
REMARK    5  A    between atoms: C_6  and  O_13
REMARK    6  A    between atoms: C_15  and  O_16
REMARK                            x       y       z     vdW  Elec       q    Type
REMARK                         _______ _______ _______ _____ _____    ______ ____
ROOT
ATOM      1  O   UNL     1      35.045 -15.935 -21.798  0.00  0.00    -0.328 OA
ATOM      2  C   UNL     1      35.060 -17.503 -23.675  0.00  0.00    +0.103 C 
ATOM      3  C   UNL     1      34.249 -16.507 -24.518  0.00  0.00    +0.154 C 
ATOM      4  C   UNL     1      34.811 -17.303 -22.168  0.00  0.00    +0.159 C 
ATOM      5  C   UNL     1      34.435 -15.085 -23.987  0.00  0.00    +0.195 C 
ATOM      6  C   UNL     1      34.201 -15.007 -22.478  0.00  0.00    +0.266 C 
ENDROOT
BRANCH   2   7
ATOM      7  S   UNL     1      34.658 -19.213 -24.203  0.00  0.00    -0.164 S 
ATOM      8  H   UNL     1      35.682 -20.043 -23.870  0.00  0.00    +0.102 HD
ENDBRANCH   2   7
BRANCH   3   9
ATOM      9  O   UNL     1      34.710 -16.525 -25.871  0.00  0.00    -0.381 OA
ATOM     10  H   UNL     1      34.534 -15.665 -26.284  0.00  0.00    +0.210 HD
ENDBRANCH   3   9
BRANCH   5  11
ATOM     11  O   UNL     1      33.545 -14.205 -24.667  0.00  0.00    -0.378 OA
ATOM     12  H   UNL     1      34.023 -13.748 -25.376  0.00  0.00    +0.211 HD
ENDBRANCH   5  11
BRANCH   6  13
ATOM     13  O   UNL     1      32.828 -15.162 -22.125  0.00  0.00    -0.326 OA
ATOM     14  C   UNL     1      32.374 -14.078 -21.329  0.00  0.00    +0.177 C 
ENDBRANCH   6  13
BRANCH   4  15
ATOM     15  C   UNL     1      35.743 -18.138 -21.290  0.00  0.00    +0.168 C 
BRANCH  15  16
ATOM     16  O   UNL     1      34.967 -19.102 -20.602  0.00  0.00    -0.379 OA
ATOM     17  H   UNL     1      35.527 -19.571 -19.965  0.00  0.00    +0.211 HD
ENDBRANCH  15  16
ENDBRANCH   4  15
TORSDOF 6
ENDMDL
MODEL 9
REMARK VINA RESULT:      -5.4     11.029     12.700
REMARK  Name = 446000
REMARK  6 active torsions:
REMARK  status: ('A' for Active; 'I' for Inactive)
REMARK    1  A    between atoms: C_2  and  S_7
REMARK    2  A    between atoms: C_3  and  O_9
REMARK    3  A    between atoms: C_4  and  C_15
REMARK    4  A    between atoms: C_5  and  O_11
REMARK    5  A    between atoms: C_6  and  O_13
REMARK    6  A    between atoms: C_15  and  O_16
REMARK                            x       y       z     vdW  Elec       q    Type
REMARK                         _______ _______ _______ _____ _____    ______ ____
ROOT
ATOM      1  O   UNL     1      34.943 -15.394 -22.716  0.00  0.00    -0.328 OA
ATOM      2  C   UNL     1      34.757 -17.790 -22.259  0.00  0.00    +0.103 C 
ATOM      3  C   UNL     1      34.515 -18.059 -23.753  0.00  0.00    +0.154 C 
ATOM      4  C   UNL     1      34.320 -16.367 -21.862  0.00  0.00    +0.159 C 
ATOM      5  C   UNL     1      35.082 -16.918 -24.598  0.00  0.00    +0.195 C 
ATOM      6  C   UNL     1      34.615 -15.552 -24.096  0.00  0.00    +0.266 C 
ENDROOT
BRANCH   2   7
ATOM      7  S   UNL     1      33.891 -19.064 -21.265  0.00  0.00    -0.164 S 
ATOM      8  H   UNL     1      32.834 -19.547 -21.970  0.00  0.00    +0.102 HD
ENDBRANCH   2   7
BRANCH   3   9
ATOM      9  O   UNL     1      35.183 -19.260 -24.146  0.00  0.00    -0.381 OA
ATOM     10  H   UNL     1      35.956 -19.037 -24.688  0.00  0.00    +0.210 HD
ENDBRANCH   3   9
BRANCH   5  11
ATOM     11  O   UNL     1      34.696 -17.099 -25.957  0.00  0.00    -0.378 OA
ATOM     12  H   UNL     1      35.431 -16.845 -26.538  0.00  0.00    +0.211 HD
ENDBRANCH   5  11
BRANCH   6  13
ATOM     13  O   UNL     1      33.235 -15.311 -24.358  0.00  0.00    -0.326 OA
ATOM     14  C   UNL     1      33.046 -14.085 -25.047  0.00  0.00    +0.177 C 
ENDBRANCH   6  13
BRANCH   4  15
ATOM     15  C   UNL     1      34.723 -15.991 -20.437  0.00  0.00    +0.168 C 
BRANCH  15  16
ATOM     16  O   UNL     1      34.997 -14.603 -20.399  0.00  0.00    -0.379 OA
ATOM     17  H   UNL     1      34.346 -14.132 -20.942  0.00  0.00    +0.211 HD
ENDBRANCH  15  16
ENDBRANCH   4  15
TORSDOF 6
ENDMDL
