MODEL 1
REMARK VINA RESULT:      -7.3      0.000      0.000
REMARK  Name = 37367
REMARK  3 active torsions:
REMARK  status: ('A' for Active; 'I' for Inactive)
REMARK    1  A    between atoms: C_7  and  C_15
REMARK    2  A    between atoms: C_8  and  O_21
REMARK    3  A    between atoms: O_21  and  C_24
REMARK                            x       y       z     vdW  Elec       q    Type
REMARK                         _______ _______ _______ _____ _____    ______ ____
ROOT
ATOM      1 CL   UNL     1      37.852 -27.491 -15.981  0.00  0.00    -0.082 Cl
ATOM      2  O   UNL     1      32.610 -22.729 -12.053  0.00  0.00    -0.268 OA
ATOM      3  N   UNL     1      34.579 -23.879 -12.506  0.00  0.00    -0.252 N 
ATOM      4  N   UNL     1      33.093 -23.525 -15.122  0.00  0.00    -0.224 NA
ATOM      5  C   UNL     1      35.368 -24.707 -13.377  0.00  0.00    +0.055 C 
ATOM      6  C   UNL     1      35.215 -24.716 -14.777  0.00  0.00    +0.032 C 
ATOM      7  C   UNL     1      34.306 -23.769 -15.486  0.00  0.00    +0.081 C 
ATOM      8  C   UNL     1      32.580 -24.200 -13.942  0.00  0.00    +0.353 C 
ATOM      9  C   UNL     1      33.250 -23.513 -12.761  0.00  0.00    +0.295 C 
ATOM     10  C   UNL     1      36.357 -25.545 -12.825  0.00  0.00    +0.016 C 
ATOM     11  C   UNL     1      35.973 -25.591 -15.575  0.00  0.00    +0.014 C 
ATOM     12  C   UNL     1      35.182 -23.442 -11.246  0.00  0.00    +0.120 C 
ATOM     13  C   UNL     1      37.121 -26.399 -13.625  0.00  0.00    +0.013 C 
ATOM     14  C   UNL     1      36.922 -26.430 -14.998  0.00  0.00    +0.058 C 
ENDROOT
BRANCH   7  15
ATOM     15  C   UNL     1      34.817 -23.037 -16.681  0.00  0.00    +0.017 C 
ATOM     16  C   UNL     1      36.090 -22.481 -16.654  0.00  0.00    +0.001 C 
ATOM     17  C   UNL     1      34.015 -22.918 -17.810  0.00  0.00    +0.001 C 
ATOM     18  C   UNL     1      36.568 -21.796 -17.771  0.00  0.00    +0.000 C 
ATOM     19  C   UNL     1      34.493 -22.234 -18.928  0.00  0.00    +0.000 C 
ATOM     20  C   UNL     1      35.769 -21.673 -18.908  0.00  0.00    +0.000 C 
ENDBRANCH   7  15
BRANCH   8  21
ATOM     21  O   UNL     1      31.170 -24.086 -13.757  0.00  0.00    -0.406 OA
BRANCH  21  24
ATOM     22  O   UNL     1      30.418 -25.939 -14.863  0.00  0.00    -0.226 OA
ATOM     23  N   UNL     1      29.542 -23.848 -15.378  0.00  0.00    -0.242 N 
ATOM     24  C   UNL     1      30.379 -24.723 -14.681  0.00  0.00    +0.407 C 
ATOM     25  C   UNL     1      28.618 -24.316 -16.407  0.00  0.00    +0.118 C 
ATOM     26  C   UNL     1      29.538 -22.414 -15.122  0.00  0.00    +0.118 C 
ENDBRANCH  21  24
ENDBRANCH   8  21
TORSDOF 3
ENDMDL
MODEL 2
REMARK VINA RESULT:      -6.0      1.435      2.005
REMARK  Name = 37367
REMARK  3 active torsions:
REMARK  status: ('A' for Active; 'I' for Inactive)
REMARK    1  A    between atoms: C_7  and  C_15
REMARK    2  A    between atoms: C_8  and  O_21
REMARK    3  A    between atoms: O_21  and  C_24
REMARK                            x       y       z     vdW  Elec       q    Type
REMARK                         _______ _______ _______ _____ _____    ______ ____
ROOT
ATOM      1 CL   UNL     1      39.966 -26.372 -15.664  0.00  0.00    -0.082 Cl
ATOM      2  O   UNL     1      33.585 -23.177 -11.835  0.00  0.00    -0.268 OA
ATOM      3  N   UNL     1      35.786 -23.818 -12.223  0.00  0.00    -0.252 N 
ATOM      4  N   UNL     1      34.384 -23.656 -14.903  0.00  0.00    -0.224 NA
ATOM      5  C   UNL     1      36.786 -24.390 -13.083  0.00  0.00    +0.055 C 
ATOM      6  C   UNL     1      36.705 -24.350 -14.489  0.00  0.00    +0.032 C 
ATOM      7  C   UNL     1      35.636 -23.594 -15.205  0.00  0.00    +0.081 C 
ATOM      8  C   UNL     1      33.985 -24.500 -13.789  0.00  0.00    +0.353 C 
ATOM      9  C   UNL     1      34.422 -23.750 -12.539  0.00  0.00    +0.295 C 
ATOM     10  C   UNL     1      37.914 -25.012 -12.514  0.00  0.00    +0.016 C 
ATOM     11  C   UNL     1      37.682 -24.979 -15.280  0.00  0.00    +0.014 C 
ATOM     12  C   UNL     1      36.211 -23.331 -10.910  0.00  0.00    +0.120 C 
ATOM     13  C   UNL     1      38.892 -25.619 -13.306  0.00  0.00    +0.013 C 
ATOM     14  C   UNL     1      38.771 -25.613 -14.688  0.00  0.00    +0.058 C 
ENDROOT
BRANCH   7  15
ATOM     15  C   UNL     1      36.020 -22.695 -16.332  0.00  0.00    +0.017 C 
ATOM     16  C   UNL     1      35.361 -22.801 -17.550  0.00  0.00    +0.001 C 
ATOM     17  C   UNL     1      37.032 -21.760 -16.151  0.00  0.00    +0.001 C 
ATOM     18  C   UNL     1      35.720 -21.961 -18.604  0.00  0.00    +0.000 C 
ATOM     19  C   UNL     1      37.390 -20.919 -17.205  0.00  0.00    +0.000 C 
ATOM     20  C   UNL     1      36.734 -21.019 -18.431  0.00  0.00    +0.000 C 
ENDBRANCH   7  15
BRANCH   8  21
ATOM     21  O   UNL     1      32.580 -24.722 -13.683  0.00  0.00    -0.406 OA
BRANCH  21  24
ATOM     22  O   UNL     1      32.095 -22.544 -14.178  0.00  0.00    -0.226 OA
ATOM     23  N   UNL     1      30.545 -24.212 -14.650  0.00  0.00    -0.242 N 
ATOM     24  C   UNL     1      31.767 -23.729 -14.171  0.00  0.00    +0.407 C 
ATOM     25  C   UNL     1      29.532 -23.326 -15.214  0.00  0.00    +0.118 C 
ATOM     26  C   UNL     1      30.208 -25.628 -14.618  0.00  0.00    +0.118 C 
ENDBRANCH  21  24
ENDBRANCH   8  21
TORSDOF 3
ENDMDL
MODEL 3
REMARK VINA RESULT:      -5.7     15.768     17.992
REMARK  Name = 37367
REMARK  3 active torsions:
REMARK  status: ('A' for Active; 'I' for Inactive)
REMARK    1  A    between atoms: C_7  and  C_15
REMARK    2  A    between atoms: C_8  and  O_21
REMARK    3  A    between atoms: O_21  and  C_24
REMARK                            x       y       z     vdW  Elec       q    Type
REMARK                         _______ _______ _______ _____ _____    ______ ____
ROOT
ATOM      1 CL   UNL     1      31.472 -13.481 -20.876  0.00  0.00    -0.082 Cl
ATOM      2  O   UNL     1      32.164  -5.431 -21.433  0.00  0.00    -0.268 OA
ATOM      3  N   UNL     1      32.344  -7.568 -20.535  0.00  0.00    -0.252 N 
ATOM      4  N   UNL     1      32.039  -7.849 -23.536  0.00  0.00    -0.224 NA
ATOM      5  C   UNL     1      32.172  -8.990 -20.655  0.00  0.00    +0.055 C 
ATOM      6  C   UNL     1      32.201  -9.667 -21.891  0.00  0.00    +0.032 C 
ATOM      7  C   UNL     1      32.541  -8.979 -23.169  0.00  0.00    +0.081 C 
ATOM      8  C   UNL     1      31.093  -7.195 -22.647  0.00  0.00    +0.353 C 
ATOM      9  C   UNL     1      31.931  -6.642 -21.503  0.00  0.00    +0.295 C 
ATOM     10  C   UNL     1      31.979  -9.764 -19.494  0.00  0.00    +0.016 C 
ATOM     11  C   UNL     1      31.967 -11.052 -21.954  0.00  0.00    +0.014 C 
ATOM     12  C   UNL     1      32.931  -7.052 -19.298  0.00  0.00    +0.120 C 
ATOM     13  C   UNL     1      31.766 -11.144 -19.561  0.00  0.00    +0.013 C 
ATOM     14  C   UNL     1      31.748 -11.786 -20.791  0.00  0.00    +0.058 C 
ENDROOT
BRANCH   7  15
ATOM     15  C   UNL     1      33.534  -9.610 -24.086  0.00  0.00    +0.017 C 
ATOM     16  C   UNL     1      33.248 -10.839 -24.667  0.00  0.00    +0.001 C 
ATOM     17  C   UNL     1      34.735  -8.963 -24.351  0.00  0.00    +0.001 C 
ATOM     18  C   UNL     1      34.175 -11.431 -25.525  0.00  0.00    +0.000 C 
ATOM     19  C   UNL     1      35.663  -9.554 -25.209  0.00  0.00    +0.000 C 
ATOM     20  C   UNL     1      35.383 -10.788 -25.795  0.00  0.00    +0.000 C 
ENDBRANCH   7  15
BRANCH   8  21
ATOM     21  O   UNL     1      30.390  -6.099 -23.228  0.00  0.00    -0.406 OA
BRANCH  21  24
ATOM     22  O   UNL     1      31.173  -6.275 -25.368  0.00  0.00    -0.226 OA
ATOM     23  N   UNL     1      31.122  -4.200 -24.321  0.00  0.00    -0.242 N 
ATOM     24  C   UNL     1      30.915  -5.581 -24.386  0.00  0.00    +0.407 C 
ATOM     25  C   UNL     1      31.673  -3.446 -25.443  0.00  0.00    +0.118 C 
ATOM     26  C   UNL     1      30.799  -3.426 -23.130  0.00  0.00    +0.118 C 
ENDBRANCH  21  24
ENDBRANCH   8  21
TORSDOF 3
ENDMDL
MODEL 4
REMARK VINA RESULT:      -5.5      3.218      6.273
REMARK  Name = 37367
REMARK  3 active torsions:
REMARK  status: ('A' for Active; 'I' for Inactive)
REMARK    1  A    between atoms: C_7  and  C_15
REMARK    2  A    between atoms: C_8  and  O_21
REMARK    3  A    between atoms: O_21  and  C_24
REMARK                            x       y       z     vdW  Elec       q    Type
REMARK                         _______ _______ _______ _____ _____    ______ ____
ROOT
ATOM      1 CL   UNL     1      33.103 -22.859 -20.682  0.00  0.00    -0.082 Cl
ATOM      2  O   UNL     1      37.529 -23.041 -13.902  0.00  0.00    -0.268 OA
ATOM      3  N   UNL     1      36.667 -22.249 -15.911  0.00  0.00    -0.252 N 
ATOM      4  N   UNL     1      34.724 -24.298 -14.815  0.00  0.00    -0.224 NA
ATOM      5  C   UNL     1      35.769 -22.389 -17.024  0.00  0.00    +0.055 C 
ATOM      6  C   UNL     1      34.546 -23.083 -16.943  0.00  0.00    +0.032 C 
ATOM      7  C   UNL     1      34.018 -23.622 -15.657  0.00  0.00    +0.081 C 
ATOM      8  C   UNL     1      36.122 -24.541 -15.128  0.00  0.00    +0.353 C 
ATOM      9  C   UNL     1      36.823 -23.208 -14.901  0.00  0.00    +0.295 C 
ATOM     10  C   UNL     1      36.102 -21.799 -18.260  0.00  0.00    +0.016 C 
ATOM     11  C   UNL     1      33.735 -23.239 -18.082  0.00  0.00    +0.014 C 
ATOM     12  C   UNL     1      37.515 -21.057 -15.862  0.00  0.00    +0.120 C 
ATOM     13  C   UNL     1      35.283 -21.942 -19.383  0.00  0.00    +0.013 C 
ATOM     14  C   UNL     1      34.105 -22.671 -19.297  0.00  0.00    +0.058 C 
ENDROOT
BRANCH   7  15
ATOM     15  C   UNL     1      32.595 -23.361 -15.294  0.00  0.00    +0.017 C 
ATOM     16  C   UNL     1      32.205 -23.409 -13.962  0.00  0.00    +0.001 C 
ATOM     17  C   UNL     1      31.673 -23.071 -16.293  0.00  0.00    +0.001 C 
ATOM     18  C   UNL     1      30.875 -23.166 -13.622  0.00  0.00    +0.000 C 
ATOM     19  C   UNL     1      30.342 -22.827 -15.953  0.00  0.00    +0.000 C 
ATOM     20  C   UNL     1      29.943 -22.874 -14.618  0.00  0.00    +0.000 C 
ENDBRANCH   7  15
BRANCH   8  21
ATOM     21  O   UNL     1      36.761 -25.505 -14.293  0.00  0.00    -0.406 OA
BRANCH  21  24
ATOM     22  O   UNL     1      37.708 -26.893 -15.841  0.00  0.00    -0.226 OA
ATOM     23  N   UNL     1      39.018 -25.978 -14.152  0.00  0.00    -0.242 N 
ATOM     24  C   UNL     1      37.820 -26.183 -14.844  0.00  0.00    +0.407 C 
ATOM     25  C   UNL     1      40.268 -26.605 -14.568  0.00  0.00    +0.118 C 
ATOM     26  C   UNL     1      39.093 -25.126 -12.974  0.00  0.00    +0.118 C 
ENDBRANCH  21  24
ENDBRANCH   8  21
TORSDOF 3
ENDMDL
MODEL 5
REMARK VINA RESULT:      -4.9      1.912      4.668
REMARK  Name = 37367
REMARK  3 active torsions:
REMARK  status: ('A' for Active; 'I' for Inactive)
REMARK    1  A    between atoms: C_7  and  C_15
REMARK    2  A    between atoms: C_8  and  O_21
REMARK    3  A    between atoms: O_21  and  C_24
REMARK                            x       y       z     vdW  Elec       q    Type
REMARK                         _______ _______ _______ _____ _____    ______ ____
ROOT
ATOM      1 CL   UNL     1      38.769 -20.635 -16.364  0.00  0.00    -0.082 Cl
ATOM      2  O   UNL     1      31.464 -24.020 -17.233  0.00  0.00    -0.268 OA
ATOM      3  N   UNL     1      33.574 -23.234 -17.810  0.00  0.00    -0.252 N 
ATOM      4  N   UNL     1      33.559 -23.732 -14.823  0.00  0.00    -0.224 NA
ATOM      5  C   UNL     1      34.834 -22.653 -17.436  0.00  0.00    +0.055 C 
ATOM      6  C   UNL     1      35.407 -22.817 -16.159  0.00  0.00    +0.032 C 
ATOM      7  C   UNL     1      34.812 -23.714 -15.126  0.00  0.00    +0.081 C 
ATOM      8  C   UNL     1      32.665 -22.834 -15.535  0.00  0.00    +0.353 C 
ATOM      9  C   UNL     1      32.508 -23.440 -16.923  0.00  0.00    +0.295 C 
ATOM     10  C   UNL     1      35.555 -21.896 -18.380  0.00  0.00    +0.016 C 
ATOM     11  C   UNL     1      36.614 -22.176 -15.828  0.00  0.00    +0.014 C 
ATOM     12  C   UNL     1      33.369 -23.573 -19.219  0.00  0.00    +0.120 C 
ATOM     13  C   UNL     1      36.764 -21.277 -18.051  0.00  0.00    +0.013 C 
ATOM     14  C   UNL     1      37.288 -21.408 -16.773  0.00  0.00    +0.058 C 
ENDROOT
BRANCH   7  15
ATOM     15  C   UNL     1      35.700 -24.669 -14.402  0.00  0.00    +0.017 C 
ATOM     16  C   UNL     1      35.948 -24.484 -13.047  0.00  0.00    +0.001 C 
ATOM     17  C   UNL     1      36.271 -25.734 -15.089  0.00  0.00    +0.001 C 
ATOM     18  C   UNL     1      36.779 -25.376 -12.369  0.00  0.00    +0.000 C 
ATOM     19  C   UNL     1      37.101 -26.626 -14.411  0.00  0.00    +0.000 C 
ATOM     20  C   UNL     1      37.355 -26.447 -13.051  0.00  0.00    +0.000 C 
ENDBRANCH   7  15
BRANCH   8  21
ATOM     21  O   UNL     1      31.360 -22.721 -14.971  0.00  0.00    -0.406 OA
BRANCH  21  24
ATOM     22  O   UNL     1      31.483 -24.498 -13.539  0.00  0.00    -0.226 OA
ATOM     23  N   UNL     1      29.566 -24.169 -14.812  0.00  0.00    -0.242 N 
ATOM     24  C   UNL     1      30.854 -23.849 -14.372  0.00  0.00    +0.407 C 
ATOM     25  C   UNL     1      28.841 -25.329 -14.304  0.00  0.00    +0.118 C 
ATOM     26  C   UNL     1      28.866 -23.364 -15.804  0.00  0.00    +0.118 C 
ENDBRANCH  21  24
ENDBRANCH   8  21
TORSDOF 3
ENDMDL
MODEL 6
REMARK VINA RESULT:      -4.9     14.821     17.572
REMARK  Name = 37367
REMARK  3 active torsions:
REMARK  status: ('A' for Active; 'I' for Inactive)
REMARK    1  A    between atoms: C_7  and  C_15
REMARK    2  A    between atoms: C_8  and  O_21
REMARK    3  A    between atoms: O_21  and  C_24
REMARK                            x       y       z     vdW  Elec       q    Type
REMARK                         _______ _______ _______ _____ _____    ______ ____
ROOT
ATOM      1 CL   UNL     1      29.484  -5.486 -22.130  0.00  0.00    -0.082 Cl
ATOM      2  O   UNL     1      35.666 -10.013 -24.756  0.00  0.00    -0.268 OA
ATOM      3  N   UNL     1      34.525  -8.152 -23.953  0.00  0.00    -0.252 N 
ATOM      4  N   UNL     1      32.891 -10.608 -23.263  0.00  0.00    -0.224 NA
ATOM      5  C   UNL     1      33.315  -7.543 -23.472  0.00  0.00    +0.055 C 
ATOM      6  C   UNL     1      32.298  -8.265 -22.819  0.00  0.00    +0.032 C 
ATOM      7  C   UNL     1      32.447  -9.705 -22.457  0.00  0.00    +0.081 C 
ATOM      8  C   UNL     1      33.284 -10.203 -24.602  0.00  0.00    +0.353 C 
ATOM      9  C   UNL     1      34.607  -9.469 -24.429  0.00  0.00    +0.295 C 
ATOM     10  C   UNL     1      33.126  -6.157 -23.637  0.00  0.00    +0.016 C 
ATOM     11  C   UNL     1      31.109  -7.627 -22.422  0.00  0.00    +0.014 C 
ATOM     12  C   UNL     1      35.732  -7.327 -24.008  0.00  0.00    +0.120 C 
ATOM     13  C   UNL     1      31.951  -5.525 -23.224  0.00  0.00    +0.013 C 
ATOM     14  C   UNL     1      30.938  -6.261 -22.627  0.00  0.00    +0.058 C 
ENDROOT
BRANCH   7  15
ATOM     15  C   UNL     1      32.082 -10.143 -21.079  0.00  0.00    +0.017 C 
ATOM     16  C   UNL     1      31.791 -11.481 -20.838  0.00  0.00    +0.001 C 
ATOM     17  C   UNL     1      32.036  -9.211 -20.049  0.00  0.00    +0.001 C 
ATOM     18  C   UNL     1      31.449 -11.892 -19.549  0.00  0.00    +0.000 C 
ATOM     19  C   UNL     1      31.695  -9.622 -18.760  0.00  0.00    +0.000 C 
ATOM     20  C   UNL     1      31.402 -10.962 -18.511  0.00  0.00    +0.000 C 
ENDBRANCH   7  15
BRANCH   8  21
ATOM     21  O   UNL     1      33.511 -11.281 -25.507  0.00  0.00    -0.406 OA
BRANCH  21  24
ATOM     22  O   UNL     1      33.839 -12.738 -23.777  0.00  0.00    -0.226 OA
ATOM     23  N   UNL     1      33.270 -13.548 -25.881  0.00  0.00    -0.242 N 
ATOM     24  C   UNL     1      33.562 -12.539 -24.959  0.00  0.00    +0.407 C 
ATOM     25  C   UNL     1      33.268 -14.959 -25.508  0.00  0.00    +0.118 C 
ATOM     26  C   UNL     1      32.950 -13.255 -27.271  0.00  0.00    +0.118 C 
ENDBRANCH  21  24
ENDBRANCH   8  21
TORSDOF 3
ENDMDL
