MODEL 1
REMARK VINA RESULT:      -6.8      0.000      0.000
REMARK  Name = 6880
REMARK  6 active torsions:
REMARK  status: ('A' for Active; 'I' for Inactive)
REMARK    1  A    between atoms: C_1  and  C_10
REMARK    2  A    between atoms: C_2  and  O_7
REMARK    3  A    between atoms: C_10  and  O_11
REMARK    4  A    between atoms: O_11  and  C_12
REMARK    5  A    between atoms: C_12  and  C_13
REMARK    6  A    between atoms: C_13  and  O_14
REMARK                            x       y       z     vdW  Elec       q    Type
REMARK                         _______ _______ _______ _____ _____    ______ ____
ROOT
ATOM      1  C   UNL     1      34.752 -19.989 -20.512  0.00  0.00    +0.109 C 
ATOM      2  C   UNL     1      33.505 -20.534 -20.207  0.00  0.00    +0.140 C 
ATOM      3  C   UNL     1      35.915 -20.616 -20.066  0.00  0.00    +0.009 C 
ATOM      4  C   UNL     1      33.421 -21.708 -19.456  0.00  0.00    +0.037 C 
ATOM      5  C   UNL     1      35.832 -21.788 -19.316  0.00  0.00    +0.000 C 
ATOM      6  C   UNL     1      34.586 -22.334 -19.011  0.00  0.00    +0.003 C 
ENDROOT
BRANCH   2   7
ATOM      7  O   UNL     1      32.357 -19.936 -20.633  0.00  0.00    -0.505 OA
ATOM      8  H   UNL     1      31.531 -20.361 -20.504  0.00  0.00    +0.292 HD
ENDBRANCH   2   7
BRANCH   1  10
ATOM      9  O   UNL     1      35.327 -17.716 -20.843  0.00  0.00    -0.245 OA
ATOM     10  C   UNL     1      34.861 -18.764 -21.292  0.00  0.00    +0.344 C 
BRANCH  10  11
ATOM     11  O   UNL     1      34.393 -18.891 -22.575  0.00  0.00    -0.443 OA
BRANCH  11  12
ATOM     12  C   UNL     1      35.316 -18.574 -23.622  0.00  0.00    +0.240 C 
BRANCH  12  13
ATOM     13  C   UNL     1      34.926 -17.245 -24.240  0.00  0.00    +0.185 C 
BRANCH  13  14
ATOM     14  O   UNL     1      35.655 -16.204 -23.600  0.00  0.00    -0.378 OA
ATOM     15  H   UNL     1      35.837 -16.455 -22.681  0.00  0.00    +0.211 HD
ENDBRANCH  13  14
ENDBRANCH  12  13
ENDBRANCH  11  12
ENDBRANCH  10  11
ENDBRANCH   1  10
TORSDOF 6
ENDMDL
MODEL 2
REMARK VINA RESULT:      -6.7      0.864      1.880
REMARK  Name = 6880
REMARK  6 active torsions:
REMARK  status: ('A' for Active; 'I' for Inactive)
REMARK    1  A    between atoms: C_1  and  C_10
REMARK    2  A    between atoms: C_2  and  O_7
REMARK    3  A    between atoms: C_10  and  O_11
REMARK    4  A    between atoms: O_11  and  C_12
REMARK    5  A    between atoms: C_12  and  C_13
REMARK    6  A    between atoms: C_13  and  O_14
REMARK                            x       y       z     vdW  Elec       q    Type
REMARK                         _______ _______ _______ _____ _____    ______ ____
ROOT
ATOM      1  C   UNL     1      34.680 -19.849 -20.569  0.00  0.00    +0.109 C 
ATOM      2  C   UNL     1      35.803 -20.535 -20.110  0.00  0.00    +0.140 C 
ATOM      3  C   UNL     1      33.403 -20.350 -20.314  0.00  0.00    +0.009 C 
ATOM      4  C   UNL     1      35.651 -21.724 -19.395  0.00  0.00    +0.037 C 
ATOM      5  C   UNL     1      33.251 -21.539 -19.600  0.00  0.00    +0.000 C 
ATOM      6  C   UNL     1      34.374 -22.225 -19.141  0.00  0.00    +0.003 C 
ENDROOT
BRANCH   2   7
ATOM      7  O   UNL     1      37.059 -20.062 -20.349  0.00  0.00    -0.505 OA
ATOM      8  H   UNL     1      37.677 -20.587 -20.819  0.00  0.00    +0.292 HD
ENDBRANCH   2   7
BRANCH   1  10
ATOM      9  O   UNL     1      35.326 -17.588 -20.853  0.00  0.00    -0.245 OA
ATOM     10  C   UNL     1      34.816 -18.608 -21.319  0.00  0.00    +0.344 C 
BRANCH  10  11
ATOM     11  O   UNL     1      34.320 -18.686 -22.595  0.00  0.00    -0.443 OA
BRANCH  11  12
ATOM     12  C   UNL     1      35.256 -18.464 -23.656  0.00  0.00    +0.240 C 
BRANCH  12  13
ATOM     13  C   UNL     1      34.954 -17.132 -24.314  0.00  0.00    +0.185 C 
BRANCH  13  14
ATOM     14  O   UNL     1      35.622 -16.099 -23.600  0.00  0.00    -0.378 OA
ATOM     15  H   UNL     1      35.104 -15.281 -23.655  0.00  0.00    +0.211 HD
ENDBRANCH  13  14
ENDBRANCH  12  13
ENDBRANCH  11  12
ENDBRANCH  10  11
ENDBRANCH   1  10
TORSDOF 6
ENDMDL
MODEL 3
REMARK VINA RESULT:      -6.6      3.362      6.089
REMARK  Name = 6880
REMARK  6 active torsions:
REMARK  status: ('A' for Active; 'I' for Inactive)
REMARK    1  A    between atoms: C_1  and  C_10
REMARK    2  A    between atoms: C_2  and  O_7
REMARK    3  A    between atoms: C_10  and  O_11
REMARK    4  A    between atoms: O_11  and  C_12
REMARK    5  A    between atoms: C_12  and  C_13
REMARK    6  A    between atoms: C_13  and  O_14
REMARK                            x       y       z     vdW  Elec       q    Type
REMARK                         _______ _______ _______ _____ _____    ______ ____
ROOT
ATOM      1  C   UNL     1      34.315 -21.385 -19.609  0.00  0.00    +0.109 C 
ATOM      2  C   UNL     1      35.433 -20.763 -20.164  0.00  0.00    +0.140 C 
ATOM      3  C   UNL     1      33.040 -20.871 -19.848  0.00  0.00    +0.009 C 
ATOM      4  C   UNL     1      35.276 -19.626 -20.959  0.00  0.00    +0.037 C 
ATOM      5  C   UNL     1      32.883 -19.735 -20.642  0.00  0.00    +0.000 C 
ATOM      6  C   UNL     1      34.001 -19.113 -21.197  0.00  0.00    +0.003 C 
ENDROOT
BRANCH   2   7
ATOM      7  O   UNL     1      36.686 -21.249 -19.942  0.00  0.00    -0.505 OA
ATOM      8  H   UNL     1      37.137 -21.038 -19.149  0.00  0.00    +0.292 HD
ENDBRANCH   2   7
BRANCH   1  10
ATOM      9  O   UNL     1      33.768 -23.582 -18.915  0.00  0.00    -0.245 OA
ATOM     10  C   UNL     1      34.456 -22.570 -18.775  0.00  0.00    +0.344 C 
BRANCH  10  11
ATOM     11  O   UNL     1      35.429 -22.448 -17.816  0.00  0.00    -0.443 OA
BRANCH  11  12
ATOM     12  C   UNL     1      35.095 -22.928 -16.508  0.00  0.00    +0.240 C 
BRANCH  12  13
ATOM     13  C   UNL     1      36.355 -22.993 -15.668  0.00  0.00    +0.185 C 
BRANCH  13  14
ATOM     14  O   UNL     1      36.874 -24.317 -15.711  0.00  0.00    -0.378 OA
ATOM     15  H   UNL     1      36.781 -24.729 -14.837  0.00  0.00    +0.211 HD
ENDBRANCH  13  14
ENDBRANCH  12  13
ENDBRANCH  11  12
ENDBRANCH  10  11
ENDBRANCH   1  10
TORSDOF 6
ENDMDL
MODEL 4
REMARK VINA RESULT:      -6.4      1.706      5.114
REMARK  Name = 6880
REMARK  6 active torsions:
REMARK  status: ('A' for Active; 'I' for Inactive)
REMARK    1  A    between atoms: C_1  and  C_10
REMARK    2  A    between atoms: C_2  and  O_7
REMARK    3  A    between atoms: C_10  and  O_11
REMARK    4  A    between atoms: O_11  and  C_12
REMARK    5  A    between atoms: C_12  and  C_13
REMARK    6  A    between atoms: C_13  and  O_14
REMARK                            x       y       z     vdW  Elec       q    Type
REMARK                         _______ _______ _______ _____ _____    ______ ____
ROOT
ATOM      1  C   UNL     1      34.891 -18.798 -21.938  0.00  0.00    +0.109 C 
ATOM      2  C   UNL     1      35.113 -17.436 -21.736  0.00  0.00    +0.140 C 
ATOM      3  C   UNL     1      34.714 -19.291 -23.231  0.00  0.00    +0.009 C 
ATOM      4  C   UNL     1      35.160 -16.567 -22.826  0.00  0.00    +0.037 C 
ATOM      5  C   UNL     1      34.760 -18.422 -24.321  0.00  0.00    +0.000 C 
ATOM      6  C   UNL     1      34.983 -17.061 -24.119  0.00  0.00    +0.003 C 
ENDROOT
BRANCH   2   7
ATOM      7  O   UNL     1      35.288 -16.936 -20.480  0.00  0.00    -0.505 OA
ATOM      8  H   UNL     1      36.058 -16.443 -20.275  0.00  0.00    +0.292 HD
ENDBRANCH   2   7
BRANCH   1  10
ATOM      9  O   UNL     1      33.827 -20.364 -20.514  0.00  0.00    -0.245 OA
ATOM     10  C   UNL     1      34.835 -19.722 -20.814  0.00  0.00    +0.344 C 
BRANCH  10  11
ATOM     11  O   UNL     1      36.016 -19.806 -20.120  0.00  0.00    -0.443 OA
BRANCH  11  12
ATOM     12  C   UNL     1      36.584 -21.114 -19.992  0.00  0.00    +0.240 C 
BRANCH  12  13
ATOM     13  C   UNL     1      36.382 -21.605 -18.571  0.00  0.00    +0.185 C 
BRANCH  13  14
ATOM     14  O   UNL     1      35.193 -22.384 -18.514  0.00  0.00    -0.378 OA
ATOM     15  H   UNL     1      34.475 -21.850 -18.138  0.00  0.00    +0.211 HD
ENDBRANCH  13  14
ENDBRANCH  12  13
ENDBRANCH  11  12
ENDBRANCH  10  11
ENDBRANCH   1  10
TORSDOF 6
ENDMDL
MODEL 5
REMARK VINA RESULT:      -6.4      3.070      5.883
REMARK  Name = 6880
REMARK  6 active torsions:
REMARK  status: ('A' for Active; 'I' for Inactive)
REMARK    1  A    between atoms: C_1  and  C_10
REMARK    2  A    between atoms: C_2  and  O_7
REMARK    3  A    between atoms: C_10  and  O_11
REMARK    4  A    between atoms: O_11  and  C_12
REMARK    5  A    between atoms: C_12  and  C_13
REMARK    6  A    between atoms: C_13  and  O_14
REMARK                            x       y       z     vdW  Elec       q    Type
REMARK                         _______ _______ _______ _____ _____    ______ ____
ROOT
ATOM      1  C   UNL     1      34.916 -21.375 -19.677  0.00  0.00    +0.109 C 
ATOM      2  C   UNL     1      33.954 -20.559 -20.270  0.00  0.00    +0.140 C 
ATOM      3  C   UNL     1      36.266 -21.035 -19.757  0.00  0.00    +0.009 C 
ATOM      4  C   UNL     1      34.342 -19.400 -20.945  0.00  0.00    +0.037 C 
ATOM      5  C   UNL     1      36.654 -19.877 -20.431  0.00  0.00    +0.000 C 
ATOM      6  C   UNL     1      35.693 -19.060 -21.025  0.00  0.00    +0.003 C 
ENDROOT
BRANCH   2   7
ATOM      7  O   UNL     1      32.630 -20.875 -20.203  0.00  0.00    -0.505 OA
ATOM      8  H   UNL     1      32.351 -21.624 -19.713  0.00  0.00    +0.292 HD
ENDBRANCH   2   7
BRANCH   1  10
ATOM      9  O   UNL     1      33.867 -23.490 -19.485  0.00  0.00    -0.245 OA
ATOM     10  C   UNL     1      34.532 -22.590 -18.971  0.00  0.00    +0.344 C 
BRANCH  10  11
ATOM     11  O   UNL     1      34.984 -22.633 -17.676  0.00  0.00    -0.443 OA
BRANCH  11  12
ATOM     12  C   UNL     1      34.085 -23.187 -16.709  0.00  0.00    +0.240 C 
BRANCH  12  13
ATOM     13  C   UNL     1      34.865 -23.559 -15.463  0.00  0.00    +0.185 C 
BRANCH  13  14
ATOM     14  O   UNL     1      35.751 -24.629 -15.772  0.00  0.00    -0.378 OA
ATOM     15  H   UNL     1      35.581 -25.372 -15.171  0.00  0.00    +0.211 HD
ENDBRANCH  13  14
ENDBRANCH  12  13
ENDBRANCH  11  12
ENDBRANCH  10  11
ENDBRANCH   1  10
TORSDOF 6
ENDMDL
MODEL 6
REMARK VINA RESULT:      -6.4      3.187      4.745
REMARK  Name = 6880
REMARK  6 active torsions:
REMARK  status: ('A' for Active; 'I' for Inactive)
REMARK    1  A    between atoms: C_1  and  C_10
REMARK    2  A    between atoms: C_2  and  O_7
REMARK    3  A    between atoms: C_10  and  O_11
REMARK    4  A    between atoms: O_11  and  C_12
REMARK    5  A    between atoms: C_12  and  C_13
REMARK    6  A    between atoms: C_13  and  O_14
REMARK                            x       y       z     vdW  Elec       q    Type
REMARK                         _______ _______ _______ _____ _____    ______ ____
ROOT
ATOM      1  C   UNL     1      34.682 -17.232 -23.692  0.00  0.00    +0.109 C 
ATOM      2  C   UNL     1      34.883 -16.450 -22.555  0.00  0.00    +0.140 C 
ATOM      3  C   UNL     1      34.677 -18.624 -23.589  0.00  0.00    +0.009 C 
ATOM      4  C   UNL     1      35.078 -17.059 -21.315  0.00  0.00    +0.037 C 
ATOM      5  C   UNL     1      34.872 -19.232 -22.350  0.00  0.00    +0.000 C 
ATOM      6  C   UNL     1      35.073 -18.450 -21.213  0.00  0.00    +0.003 C 
ENDROOT
BRANCH   2   7
ATOM      7  O   UNL     1      34.892 -15.089 -22.635  0.00  0.00    -0.505 OA
ATOM      8  H   UNL     1      34.258 -14.588 -22.162  0.00  0.00    +0.292 HD
ENDBRANCH   2   7
BRANCH   1  10
ATOM      9  O   UNL     1      35.046 -17.001 -26.021  0.00  0.00    -0.245 OA
ATOM     10  C   UNL     1      34.479 -16.618 -24.997  0.00  0.00    +0.344 C 
BRANCH  10  11
ATOM     11  O   UNL     1      33.596 -15.568 -24.972  0.00  0.00    -0.443 OA
BRANCH  11  12
ATOM     12  C   UNL     1      32.987 -15.222 -26.222  0.00  0.00    +0.240 C 
BRANCH  12  13
ATOM     13  C   UNL     1      33.201 -13.744 -26.484  0.00  0.00    +0.185 C 
BRANCH  13  14
ATOM     14  O   UNL     1      33.826 -13.584 -27.753  0.00  0.00    -0.378 OA
ATOM     15  H   UNL     1      34.667 -13.112 -27.641  0.00  0.00    +0.211 HD
ENDBRANCH  13  14
ENDBRANCH  12  13
ENDBRANCH  11  12
ENDBRANCH  10  11
ENDBRANCH   1  10
TORSDOF 6
ENDMDL
MODEL 7
REMARK VINA RESULT:      -6.3      2.032      5.306
REMARK  Name = 6880
REMARK  6 active torsions:
REMARK  status: ('A' for Active; 'I' for Inactive)
REMARK    1  A    between atoms: C_1  and  C_10
REMARK    2  A    between atoms: C_2  and  O_7
REMARK    3  A    between atoms: C_10  and  O_11
REMARK    4  A    between atoms: O_11  and  C_12
REMARK    5  A    between atoms: C_12  and  C_13
REMARK    6  A    between atoms: C_13  and  O_14
REMARK                            x       y       z     vdW  Elec       q    Type
REMARK                         _______ _______ _______ _____ _____    ______ ____
ROOT
ATOM      1  C   UNL     1      35.036 -17.124 -21.655  0.00  0.00    +0.109 C 
ATOM      2  C   UNL     1      35.080 -16.737 -22.994  0.00  0.00    +0.140 C 
ATOM      3  C   UNL     1      34.667 -16.203 -20.675  0.00  0.00    +0.009 C 
ATOM      4  C   UNL     1      34.753 -15.429 -23.354  0.00  0.00    +0.037 C 
ATOM      5  C   UNL     1      34.340 -14.896 -21.034  0.00  0.00    +0.000 C 
ATOM      6  C   UNL     1      34.384 -14.509 -22.373  0.00  0.00    +0.003 C 
ENDROOT
BRANCH   2   7
ATOM      7  O   UNL     1      35.439 -17.622 -23.967  0.00  0.00    -0.505 OA
ATOM      8  H   UNL     1      36.281 -18.034 -23.939  0.00  0.00    +0.292 HD
ENDBRANCH   2   7
BRANCH   1  10
ATOM      9  O   UNL     1      36.343 -18.759 -20.546  0.00  0.00    -0.245 OA
ATOM     10  C   UNL     1      35.376 -18.484 -21.258  0.00  0.00    +0.344 C 
BRANCH  10  11
ATOM     11  O   UNL     1      34.514 -19.428 -21.757  0.00  0.00    -0.443 OA
BRANCH  11  12
ATOM     12  C   UNL     1      33.407 -19.781 -20.920  0.00  0.00    +0.240 C 
BRANCH  12  13
ATOM     13  C   UNL     1      33.831 -20.895 -19.982  0.00  0.00    +0.185 C 
BRANCH  13  14
ATOM     14  O   UNL     1      32.737 -21.786 -19.796  0.00  0.00    -0.378 OA
ATOM     15  H   UNL     1      32.219 -21.837 -20.615  0.00  0.00    +0.211 HD
ENDBRANCH  13  14
ENDBRANCH  12  13
ENDBRANCH  11  12
ENDBRANCH  10  11
ENDBRANCH   1  10
TORSDOF 6
ENDMDL
MODEL 8
REMARK VINA RESULT:      -6.3      3.292      4.650
REMARK  Name = 6880
REMARK  6 active torsions:
REMARK  status: ('A' for Active; 'I' for Inactive)
REMARK    1  A    between atoms: C_1  and  C_10
REMARK    2  A    between atoms: C_2  and  O_7
REMARK    3  A    between atoms: C_10  and  O_11
REMARK    4  A    between atoms: O_11  and  C_12
REMARK    5  A    between atoms: C_12  and  C_13
REMARK    6  A    between atoms: C_13  and  O_14
REMARK                            x       y       z     vdW  Elec       q    Type
REMARK                         _______ _______ _______ _____ _____    ______ ____
ROOT
ATOM      1  C   UNL     1      34.487 -16.747 -23.175  0.00  0.00    +0.109 C 
ATOM      2  C   UNL     1      34.729 -17.669 -24.194  0.00  0.00    +0.140 C 
ATOM      3  C   UNL     1      34.473 -17.166 -21.845  0.00  0.00    +0.009 C 
ATOM      4  C   UNL     1      34.958 -19.010 -23.882  0.00  0.00    +0.037 C 
ATOM      5  C   UNL     1      34.702 -18.506 -21.533  0.00  0.00    +0.000 C 
ATOM      6  C   UNL     1      34.944 -19.428 -22.551  0.00  0.00    +0.003 C 
ENDROOT
BRANCH   2   7
ATOM      7  O   UNL     1      34.746 -17.279 -25.500  0.00  0.00    -0.505 OA
ATOM      8  H   UNL     1      34.110 -17.619 -26.098  0.00  0.00    +0.292 HD
ENDBRANCH   2   7
BRANCH   1  10
ATOM      9  O   UNL     1      34.803 -14.417 -22.890  0.00  0.00    -0.245 OA
ATOM     10  C   UNL     1      34.244 -15.344 -23.478  0.00  0.00    +0.344 C 
BRANCH  10  11
ATOM     11  O   UNL     1      33.328 -15.155 -24.482  0.00  0.00    -0.443 OA
BRANCH  11  12
ATOM     12  C   UNL     1      33.178 -13.813 -24.960  0.00  0.00    +0.240 C 
BRANCH  12  13
ATOM     13  C   UNL     1      33.114 -13.831 -26.475  0.00  0.00    +0.185 C 
BRANCH  13  14
ATOM     14  O   UNL     1      33.474 -15.127 -26.939  0.00  0.00    -0.378 OA
ATOM     15  H   UNL     1      33.081 -15.799 -26.360  0.00  0.00    +0.211 HD
ENDBRANCH  13  14
ENDBRANCH  12  13
ENDBRANCH  11  12
ENDBRANCH  10  11
ENDBRANCH   1  10
TORSDOF 6
ENDMDL
MODEL 9
REMARK VINA RESULT:      -6.3      2.871      4.364
REMARK  Name = 6880
REMARK  6 active torsions:
REMARK  status: ('A' for Active; 'I' for Inactive)
REMARK    1  A    between atoms: C_1  and  C_10
REMARK    2  A    between atoms: C_2  and  O_7
REMARK    3  A    between atoms: C_10  and  O_11
REMARK    4  A    between atoms: O_11  and  C_12
REMARK    5  A    between atoms: C_12  and  C_13
REMARK    6  A    between atoms: C_13  and  O_14
REMARK                            x       y       z     vdW  Elec       q    Type
REMARK                         _______ _______ _______ _____ _____    ______ ____
ROOT
ATOM      1  C   UNL     1      34.680 -16.926 -21.853  0.00  0.00    +0.109 C 
ATOM      2  C   UNL     1      35.191 -17.006 -23.148  0.00  0.00    +0.140 C 
ATOM      3  C   UNL     1      34.207 -18.074 -21.217  0.00  0.00    +0.009 C 
ATOM      4  C   UNL     1      35.229 -18.235 -23.808  0.00  0.00    +0.037 C 
ATOM      5  C   UNL     1      34.245 -19.302 -21.877  0.00  0.00    +0.000 C 
ATOM      6  C   UNL     1      34.755 -19.383 -23.172  0.00  0.00    +0.003 C 
ENDROOT
BRANCH   2   7
ATOM      7  O   UNL     1      35.657 -15.896 -23.786  0.00  0.00    -0.505 OA
ATOM      8  H   UNL     1      35.059 -15.317 -24.217  0.00  0.00    +0.292 HD
ENDBRANCH   2   7
BRANCH   1  10
ATOM      9  O   UNL     1      34.937 -15.524 -19.961  0.00  0.00    -0.245 OA
ATOM     10  C   UNL     1      34.629 -15.653 -21.147  0.00  0.00    +0.344 C 
BRANCH  10  11
ATOM     11  O   UNL     1      34.201 -14.612 -21.931  0.00  0.00    -0.443 OA
BRANCH  11  12
ATOM     12  C   UNL     1      32.785 -14.488 -22.103  0.00  0.00    +0.240 C 
BRANCH  12  13
ATOM     13  C   UNL     1      32.506 -13.726 -23.384  0.00  0.00    +0.185 C 
BRANCH  13  14
ATOM     14  O   UNL     1      33.117 -14.410 -24.473  0.00  0.00    -0.378 OA
ATOM     15  H   UNL     1      32.588 -14.276 -25.276  0.00  0.00    +0.211 HD
ENDBRANCH  13  14
ENDBRANCH  12  13
ENDBRANCH  11  12
ENDBRANCH  10  11
ENDBRANCH   1  10
TORSDOF 6
ENDMDL
