MODEL 1
REMARK VINA RESULT:     -11.5      0.000      0.000
REMARK  Name = 45270264
REMARK  5 active torsions:
REMARK  status: ('A' for Active; 'I' for Inactive)
REMARK    1  A    between atoms: N_2  and  C_20
REMARK    2  A    between atoms: N_3  and  C_7
REMARK    3  A    between atoms: N_3  and  O_18
REMARK    4  A    between atoms: C_8  and  C_12
REMARK    5  A    between atoms: C_20  and  C_24
REMARK                            x       y       z     vdW  Elec       q    Type
REMARK                         _______ _______ _______ _____ _____    ______ ____
ROOT
ATOM      1  O   UNL     1      32.609 -13.226 -21.113  0.00  0.00    -0.273 OA
ATOM      2  N   UNL     1      32.832 -13.830 -23.400  0.00  0.00    -0.253 N 
ATOM      3  C   UNL     1      33.379 -14.955 -24.049  0.00  0.00    +0.052 C 
ATOM      4  C   UNL     1      33.873 -15.865 -23.114  0.00  0.00    +0.018 C 
ATOM      5  C   UNL     1      32.943 -13.951 -22.025  0.00  0.00    +0.252 C 
ATOM      6  C   UNL     1      33.624 -15.282 -21.809  0.00  0.00    +0.202 C 
ATOM      7  C   UNL     1      34.464 -17.059 -23.468  0.00  0.00    -0.001 C 
ATOM      8  C   UNL     1      33.465 -15.223 -25.403  0.00  0.00    +0.015 C 
ATOM      9  C   UNL     1      34.555 -17.337 -24.832  0.00  0.00    -0.000 C 
ATOM     10  C   UNL     1      34.062 -16.429 -25.790  0.00  0.00    +0.001 C 
ENDROOT
BRANCH   7  11
ATOM     11  C   UNL     1      34.975 -18.001 -22.499  0.00  0.00    -0.000 C 
ATOM     12  C   UNL     1      36.332 -18.003 -22.177  0.00  0.00    -0.000 C 
ATOM     13  C   UNL     1      34.112 -18.908 -21.885  0.00  0.00    -0.000 C 
ATOM     14  C   UNL     1      36.825 -18.912 -21.240  0.00  0.00    -0.000 C 
ATOM     15  C   UNL     1      34.605 -19.818 -20.950  0.00  0.00    -0.000 C 
ATOM     16  C   UNL     1      35.962 -19.819 -20.628  0.00  0.00    -0.000 C 
ENDBRANCH   7  11
BRANCH   6  17
ATOM     17  N   UNL     1      33.906 -15.756 -20.649  0.00  0.00    -0.075 NA
BRANCH  17  18
ATOM     18  O   UNL     1      34.989 -15.041 -20.128  0.00  0.00    -0.294 OA
ATOM     19  H   UNL     1      35.840 -15.140 -20.507  0.00  0.00    +0.238 HD
ENDBRANCH  17  18
ENDBRANCH   6  17
BRANCH   2  20
ATOM     20  C   UNL     1      32.243 -12.717 -24.104  0.00  0.00    +0.128 C 
BRANCH  20  24
ATOM     21  F   UNL     1      36.140 -10.589 -26.086  0.00  0.00    -0.204 F 
ATOM     22  O   UNL     1      31.945 -10.420 -22.538  0.00  0.00    -0.448 OA
ATOM     23  O   UNL     1      32.886  -8.464 -21.512  0.00  0.00    -0.311 OA
ATOM     24  C   UNL     1      33.182 -11.551 -24.199  0.00  0.00    +0.034 C 
ATOM     25  C   UNL     1      33.007 -10.416 -23.407  0.00  0.00    +0.138 C 
ATOM     26  C   UNL     1      33.902  -9.343 -23.495  0.00  0.00    +0.043 C 
ATOM     27  C   UNL     1      34.242 -11.608 -25.104  0.00  0.00    +0.030 C 
ATOM     28  C   UNL     1      33.700  -8.133 -22.635  0.00  0.00    +0.176 C 
ATOM     29  C   UNL     1      34.955  -9.403 -24.414  0.00  0.00    +0.031 C 
ATOM     30  C   UNL     1      35.125 -10.534 -25.213  0.00  0.00    +0.140 C 
ATOM     31  C   UNL     1      31.706  -9.142 -21.937  0.00  0.00    +0.361 C 
ENDBRANCH  20  24
ENDBRANCH   2  20
TORSDOF 5
ENDMDL
MODEL 2
REMARK VINA RESULT:     -11.2      1.773      2.520
REMARK  Name = 45270264
REMARK  5 active torsions:
REMARK  status: ('A' for Active; 'I' for Inactive)
REMARK    1  A    between atoms: N_2  and  C_20
REMARK    2  A    between atoms: N_3  and  C_7
REMARK    3  A    between atoms: N_3  and  O_18
REMARK    4  A    between atoms: C_8  and  C_12
REMARK    5  A    between atoms: C_20  and  C_24
REMARK                            x       y       z     vdW  Elec       q    Type
REMARK                         _______ _______ _______ _____ _____    ______ ____
ROOT
ATOM      1  O   UNL     1      33.642 -14.810 -26.177  0.00  0.00    -0.273 OA
ATOM      2  N   UNL     1      32.869 -13.798 -24.170  0.00  0.00    -0.253 N 
ATOM      3  C   UNL     1      32.902 -14.194 -22.819  0.00  0.00    +0.052 C 
ATOM      4  C   UNL     1      33.524 -15.437 -22.690  0.00  0.00    +0.018 C 
ATOM      5  C   UNL     1      33.461 -14.753 -24.980  0.00  0.00    +0.252 C 
ATOM      6  C   UNL     1      33.902 -15.842 -24.031  0.00  0.00    +0.202 C 
ATOM      7  C   UNL     1      33.695 -16.068 -21.477  0.00  0.00    -0.001 C 
ATOM      8  C   UNL     1      32.421 -13.531 -21.705  0.00  0.00    +0.015 C 
ATOM      9  C   UNL     1      33.213 -15.405 -20.348  0.00  0.00    -0.000 C 
ATOM     10  C   UNL     1      32.582 -14.150 -20.460  0.00  0.00    +0.001 C 
ENDROOT
BRANCH   7  11
ATOM     11  C   UNL     1      34.339 -17.354 -21.344  0.00  0.00    -0.000 C 
ATOM     12  C   UNL     1      35.730 -17.447 -21.397  0.00  0.00    -0.000 C 
ATOM     13  C   UNL     1      33.570 -18.504 -21.164  0.00  0.00    -0.000 C 
ATOM     14  C   UNL     1      36.351 -18.689 -21.268  0.00  0.00    -0.000 C 
ATOM     15  C   UNL     1      34.192 -19.747 -21.036  0.00  0.00    -0.000 C 
ATOM     16  C   UNL     1      35.582 -19.838 -21.088  0.00  0.00    -0.000 C 
ENDBRANCH   7  11
BRANCH   6  17
ATOM     17  N   UNL     1      34.500 -16.915 -24.408  0.00  0.00    -0.075 NA
BRANCH  17  18
ATOM     18  O   UNL     1      33.834 -17.425 -25.527  0.00  0.00    -0.294 OA
ATOM     19  H   UNL     1      34.161 -18.192 -25.956  0.00  0.00    +0.238 HD
ENDBRANCH  17  18
ENDBRANCH   6  17
BRANCH   2  20
ATOM     20  C   UNL     1      32.288 -12.556 -24.620  0.00  0.00    +0.128 C 
BRANCH  20  24
ATOM     21  F   UNL     1      36.374 -10.428 -26.177  0.00  0.00    -0.204 F 
ATOM     22  O   UNL     1      31.968 -10.382 -22.891  0.00  0.00    -0.448 OA
ATOM     23  O   UNL     1      32.905  -8.552 -21.652  0.00  0.00    -0.311 OA
ATOM     24  C   UNL     1      33.271 -11.423 -24.560  0.00  0.00    +0.034 C 
ATOM     25  C   UNL     1      33.082 -10.349 -23.690  0.00  0.00    +0.138 C 
ATOM     26  C   UNL     1      34.017  -9.307 -23.635  0.00  0.00    +0.043 C 
ATOM     27  C   UNL     1      34.384 -11.448 -25.400  0.00  0.00    +0.030 C 
ATOM     28  C   UNL     1      33.800  -8.163 -22.693  0.00  0.00    +0.176 C 
ATOM     29  C   UNL     1      35.125  -9.334 -24.489  0.00  0.00    +0.031 C 
ATOM     30  C   UNL     1      35.308 -10.404 -25.367  0.00  0.00    +0.140 C 
ATOM     31  C   UNL     1      31.734  -9.147 -22.204  0.00  0.00    +0.361 C 
ENDBRANCH  20  24
ENDBRANCH   2  20
TORSDOF 5
ENDMDL
MODEL 3
REMARK VINA RESULT:     -10.9      2.572      8.067
REMARK  Name = 45270264
REMARK  5 active torsions:
REMARK  status: ('A' for Active; 'I' for Inactive)
REMARK    1  A    between atoms: N_2  and  C_20
REMARK    2  A    between atoms: N_3  and  C_7
REMARK    3  A    between atoms: N_3  and  O_18
REMARK    4  A    between atoms: C_8  and  C_12
REMARK    5  A    between atoms: C_20  and  C_24
REMARK                            x       y       z     vdW  Elec       q    Type
REMARK                         _______ _______ _______ _____ _____    ______ ____
ROOT
ATOM      1  O   UNL     1      31.518 -13.369 -22.378  0.00  0.00    -0.273 OA
ATOM      2  N   UNL     1      33.283 -12.586 -23.763  0.00  0.00    -0.253 N 
ATOM      3  C   UNL     1      33.807 -11.304 -24.019  0.00  0.00    +0.052 C 
ATOM      4  C   UNL     1      33.115 -10.339 -23.288  0.00  0.00    +0.018 C 
ATOM      5  C   UNL     1      32.234 -12.520 -22.861  0.00  0.00    +0.252 C 
ATOM      6  C   UNL     1      32.102 -11.051 -22.532  0.00  0.00    +0.202 C 
ATOM      7  C   UNL     1      33.416  -8.994 -23.345  0.00  0.00    -0.001 C 
ATOM      8  C   UNL     1      34.850 -10.940 -24.851  0.00  0.00    +0.015 C 
ATOM      9  C   UNL     1      34.467  -8.619 -24.182  0.00  0.00    -0.000 C 
ATOM     10  C   UNL     1      35.177  -9.581 -24.928  0.00  0.00    +0.001 C 
ENDROOT
BRANCH   7  11
ATOM     11  C   UNL     1      32.698  -7.996 -22.587  0.00  0.00    -0.000 C 
ATOM     12  C   UNL     1      33.044  -7.745 -21.260  0.00  0.00    -0.000 C 
ATOM     13  C   UNL     1      31.658  -7.282 -23.184  0.00  0.00    -0.000 C 
ATOM     14  C   UNL     1      32.352  -6.779 -20.529  0.00  0.00    -0.000 C 
ATOM     15  C   UNL     1      30.965  -6.317 -22.452  0.00  0.00    -0.000 C 
ATOM     16  C   UNL     1      31.312  -6.067 -21.124  0.00  0.00    -0.000 C 
ENDBRANCH   7  11
BRANCH   6  17
ATOM     17  N   UNL     1      31.227 -10.581 -21.718  0.00  0.00    -0.075 NA
BRANCH  17  18
ATOM     18  O   UNL     1      31.481 -11.098 -20.444  0.00  0.00    -0.294 OA
ATOM     19  H   UNL     1      32.098 -11.795 -20.337  0.00  0.00    +0.238 HD
ENDBRANCH  17  18
ENDBRANCH   6  17
BRANCH   2  20
ATOM     20  C   UNL     1      33.794 -13.789 -24.374  0.00  0.00    +0.128 C 
BRANCH  20  24
ATOM     21  F   UNL     1      34.878 -14.979 -19.785  0.00  0.00    -0.204 F 
ATOM     22  O   UNL     1      34.162 -16.484 -25.023  0.00  0.00    -0.448 OA
ATOM     23  O   UNL     1      35.135 -18.626 -24.545  0.00  0.00    -0.311 OA
ATOM     24  C   UNL     1      34.180 -14.819 -23.352  0.00  0.00    +0.034 C 
ATOM     25  C   UNL     1      34.353 -16.157 -23.705  0.00  0.00    +0.138 C 
ATOM     26  C   UNL     1      34.729 -17.102 -22.742  0.00  0.00    +0.043 C 
ATOM     27  C   UNL     1      34.358 -14.422 -22.026  0.00  0.00    +0.030 C 
ATOM     28  C   UNL     1      34.913 -18.535 -23.139  0.00  0.00    +0.176 C 
ATOM     29  C   UNL     1      34.894 -16.698 -21.413  0.00  0.00    +0.031 C 
ATOM     30  C   UNL     1      34.712 -15.361 -21.058  0.00  0.00    +0.140 C 
ATOM     31  C   UNL     1      34.134 -17.898 -25.252  0.00  0.00    +0.361 C 
ENDBRANCH  20  24
ENDBRANCH   2  20
TORSDOF 5
ENDMDL
MODEL 4
REMARK VINA RESULT:     -10.3      1.954      2.518
REMARK  Name = 45270264
REMARK  5 active torsions:
REMARK  status: ('A' for Active; 'I' for Inactive)
REMARK    1  A    between atoms: N_2  and  C_20
REMARK    2  A    between atoms: N_3  and  C_7
REMARK    3  A    between atoms: N_3  and  O_18
REMARK    4  A    between atoms: C_8  and  C_12
REMARK    5  A    between atoms: C_20  and  C_24
REMARK                            x       y       z     vdW  Elec       q    Type
REMARK                         _______ _______ _______ _____ _____    ______ ____
ROOT
ATOM      1  O   UNL     1      34.310 -13.632 -21.372  0.00  0.00    -0.273 OA
ATOM      2  N   UNL     1      34.065 -14.676 -23.493  0.00  0.00    -0.253 N 
ATOM      3  C   UNL     1      34.221 -16.004 -23.934  0.00  0.00    +0.052 C 
ATOM      4  C   UNL     1      34.596 -16.830 -22.874  0.00  0.00    +0.018 C 
ATOM      5  C   UNL     1      34.327 -14.571 -22.137  0.00  0.00    +0.252 C 
ATOM      6  C   UNL     1      34.679 -15.975 -21.704  0.00  0.00    +0.202 C 
ATOM      7  C   UNL     1      34.819 -18.183 -23.017  0.00  0.00    -0.001 C 
ATOM      8  C   UNL     1      34.055 -16.526 -25.204  0.00  0.00    +0.015 C 
ATOM      9  C   UNL     1      34.653 -18.716 -24.296  0.00  0.00    -0.000 C 
ATOM     10  C   UNL     1      34.275 -17.897 -25.379  0.00  0.00    +0.001 C 
ENDROOT
BRANCH   7  11
ATOM     11  C   UNL     1      35.207 -19.036 -21.919  0.00  0.00    -0.000 C 
ATOM     12  C   UNL     1      36.535 -19.066 -21.493  0.00  0.00    -0.000 C 
ATOM     13  C   UNL     1      34.253 -19.832 -21.283  0.00  0.00    -0.000 C 
ATOM     14  C   UNL     1      36.909 -19.890 -20.432  0.00  0.00    -0.000 C 
ATOM     15  C   UNL     1      34.628 -20.657 -20.222  0.00  0.00    -0.000 C 
ATOM     16  C   UNL     1      35.956 -20.685 -19.797  0.00  0.00    -0.000 C 
ENDBRANCH   7  11
BRANCH   6  17
ATOM     17  N   UNL     1      34.989 -16.291 -20.498  0.00  0.00    -0.075 NA
BRANCH  17  18
ATOM     18  O   UNL     1      34.948 -15.135 -19.712  0.00  0.00    -0.294 OA
ATOM     19  H   UNL     1      34.138 -14.857 -19.330  0.00  0.00    +0.238 HD
ENDBRANCH  17  18
ENDBRANCH   6  17
BRANCH   2  20
ATOM     20  C   UNL     1      33.680 -13.591 -24.362  0.00  0.00    +0.128 C 
BRANCH  20  24
ATOM     21  F   UNL     1      30.451 -11.895 -21.146  0.00  0.00    -0.204 F 
ATOM     22  O   UNL     1      34.594 -10.962 -24.636  0.00  0.00    -0.448 OA
ATOM     23  O   UNL     1      34.216  -8.598 -24.460  0.00  0.00    -0.311 OA
ATOM     24  C   UNL     1      33.079 -12.446 -23.601  0.00  0.00    +0.034 C 
ATOM     25  C   UNL     1      33.559 -11.145 -23.755  0.00  0.00    +0.138 C 
ATOM     26  C   UNL     1      32.976 -10.085 -23.049  0.00  0.00    +0.043 C 
ATOM     27  C   UNL     1      32.029 -12.698 -22.718  0.00  0.00    +0.030 C 
ATOM     28  C   UNL     1      33.502  -8.694 -23.229  0.00  0.00    +0.176 C 
ATOM     29  C   UNL     1      31.931 -10.348 -22.158  0.00  0.00    +0.031 C 
ATOM     30  C   UNL     1      31.457 -11.651 -21.996  0.00  0.00    +0.140 C 
ATOM     31  C   UNL     1      35.170  -9.653 -24.562  0.00  0.00    +0.361 C 
ENDBRANCH  20  24
ENDBRANCH   2  20
TORSDOF 5
ENDMDL
MODEL 5
REMARK VINA RESULT:     -10.0      4.210      8.799
REMARK  Name = 45270264
REMARK  5 active torsions:
REMARK  status: ('A' for Active; 'I' for Inactive)
REMARK    1  A    between atoms: N_2  and  C_20
REMARK    2  A    between atoms: N_3  and  C_7
REMARK    3  A    between atoms: N_3  and  O_18
REMARK    4  A    between atoms: C_8  and  C_12
REMARK    5  A    between atoms: C_20  and  C_24
REMARK                            x       y       z     vdW  Elec       q    Type
REMARK                         _______ _______ _______ _____ _____    ______ ____
ROOT
ATOM      1  O   UNL     1      36.084 -18.912 -24.041  0.00  0.00    -0.273 OA
ATOM      2  N   UNL     1      35.546 -17.652 -22.099  0.00  0.00    -0.253 N 
ATOM      3  C   UNL     1      34.936 -16.397 -21.907  0.00  0.00    +0.052 C 
ATOM      4  C   UNL     1      34.602 -15.824 -23.134  0.00  0.00    +0.018 C 
ATOM      5  C   UNL     1      35.638 -17.955 -23.448  0.00  0.00    +0.252 C 
ATOM      6  C   UNL     1      35.023 -16.768 -24.151  0.00  0.00    +0.202 C 
ATOM      7  C   UNL     1      33.991 -14.593 -23.246  0.00  0.00    -0.001 C 
ATOM      8  C   UNL     1      34.660 -15.736 -20.724  0.00  0.00    +0.015 C 
ATOM      9  C   UNL     1      33.709 -13.919 -22.057  0.00  0.00    -0.000 C 
ATOM     10  C   UNL     1      34.040 -14.483 -20.809  0.00  0.00    +0.001 C 
ENDROOT
BRANCH   7  11
ATOM     11  C   UNL     1      33.645 -14.000 -24.516  0.00  0.00    -0.000 C 
ATOM     12  C   UNL     1      32.875 -14.714 -25.434  0.00  0.00    -0.000 C 
ATOM     13  C   UNL     1      34.082 -12.712 -24.827  0.00  0.00    -0.000 C 
ATOM     14  C   UNL     1      32.540 -14.141 -26.660  0.00  0.00    -0.000 C 
ATOM     15  C   UNL     1      33.748 -12.138 -26.055  0.00  0.00    -0.000 C 
ATOM     16  C   UNL     1      32.977 -12.854 -26.971  0.00  0.00    -0.000 C 
ENDBRANCH   7  11
BRANCH   6  17
ATOM     17  N   UNL     1      34.922 -16.672 -25.428  0.00  0.00    -0.075 NA
BRANCH  17  18
ATOM     18  O   UNL     1      34.140 -17.734 -25.893  0.00  0.00    -0.294 OA
ATOM     19  H   UNL     1      34.486 -18.605 -25.893  0.00  0.00    +0.238 HD
ENDBRANCH  17  18
ENDBRANCH   6  17
BRANCH   2  20
ATOM     20  C   UNL     1      36.002 -18.488 -21.016  0.00  0.00    +0.128 C 
BRANCH  20  24
ATOM     21  F   UNL     1      31.510 -20.313 -21.377  0.00  0.00    -0.204 F 
ATOM     22  O   UNL     1      36.566 -20.569 -19.236  0.00  0.00    -0.448 OA
ATOM     23  O   UNL     1      35.821 -22.221 -17.661  0.00  0.00    -0.311 OA
ATOM     24  C   UNL     1      34.980 -19.517 -20.630  0.00  0.00    +0.034 C 
ATOM     25  C   UNL     1      35.292 -20.547 -19.742  0.00  0.00    +0.138 C 
ATOM     26  C   UNL     1      34.322 -21.490 -19.381  0.00  0.00    +0.043 C 
ATOM     27  C   UNL     1      33.701 -19.440 -21.182  0.00  0.00    +0.030 C 
ATOM     28  C   UNL     1      34.672 -22.588 -18.423  0.00  0.00    +0.176 C 
ATOM     29  C   UNL     1      33.045 -21.412 -19.947  0.00  0.00    +0.031 C 
ATOM     30  C   UNL     1      32.736 -20.387 -20.843  0.00  0.00    +0.140 C 
ATOM     31  C   UNL     1      36.865 -21.775 -18.522  0.00  0.00    +0.361 C 
ENDBRANCH  20  24
ENDBRANCH   2  20
TORSDOF 5
ENDMDL
MODEL 6
REMARK VINA RESULT:      -9.9      2.776      8.089
REMARK  Name = 45270264
REMARK  5 active torsions:
REMARK  status: ('A' for Active; 'I' for Inactive)
REMARK    1  A    between atoms: N_2  and  C_20
REMARK    2  A    between atoms: N_3  and  C_7
REMARK    3  A    between atoms: N_3  and  O_18
REMARK    4  A    between atoms: C_8  and  C_12
REMARK    5  A    between atoms: C_20  and  C_24
REMARK                            x       y       z     vdW  Elec       q    Type
REMARK                         _______ _______ _______ _____ _____    ______ ____
ROOT
ATOM      1  O   UNL     1      34.885 -11.099 -25.648  0.00  0.00    -0.273 OA
ATOM      2  N   UNL     1      33.482 -12.369 -24.211  0.00  0.00    -0.253 N 
ATOM      3  C   UNL     1      32.636 -12.021 -23.140  0.00  0.00    +0.052 C 
ATOM      4  C   UNL     1      32.664 -10.643 -22.924  0.00  0.00    +0.018 C 
ATOM      5  C   UNL     1      34.098 -11.247 -24.739  0.00  0.00    +0.252 C 
ATOM      6  C   UNL     1      33.576 -10.097 -23.910  0.00  0.00    +0.202 C 
ATOM      7  C   UNL     1      31.929 -10.022 -21.936  0.00  0.00    -0.001 C 
ATOM      8  C   UNL     1      31.847 -12.839 -22.351  0.00  0.00    +0.015 C 
ATOM      9  C   UNL     1      31.131 -10.841 -21.136  0.00  0.00    -0.000 C 
ATOM     10  C   UNL     1      31.090 -12.235 -21.340  0.00  0.00    +0.001 C 
ENDROOT
BRANCH   7  11
ATOM     11  C   UNL     1      31.959  -8.596 -21.713  0.00  0.00    -0.000 C 
ATOM     12  C   UNL     1      32.645  -8.075 -20.616  0.00  0.00    -0.000 C 
ATOM     13  C   UNL     1      31.303  -7.738 -22.595  0.00  0.00    -0.000 C 
ATOM     14  C   UNL     1      32.674  -6.698 -20.401  0.00  0.00    -0.000 C 
ATOM     15  C   UNL     1      31.332  -6.359 -22.380  0.00  0.00    -0.000 C 
ATOM     16  C   UNL     1      32.018  -5.840 -21.282  0.00  0.00    -0.000 C 
ENDBRANCH   7  11
BRANCH   6  17
ATOM     17  N   UNL     1      33.920  -8.873 -24.097  0.00  0.00    -0.075 NA
BRANCH  17  18
ATOM     18  O   UNL     1      35.257  -8.723 -23.711  0.00  0.00    -0.294 OA
ATOM     19  H   UNL     1      35.472  -8.198 -22.966  0.00  0.00    +0.238 HD
ENDBRANCH  17  18
ENDBRANCH   6  17
BRANCH   2  20
ATOM     20  C   UNL     1      33.662 -13.725 -24.672  0.00  0.00    +0.128 C 
BRANCH  20  24
ATOM     21  F   UNL     1      34.919 -14.435 -20.029  0.00  0.00    -0.204 F 
ATOM     22  O   UNL     1      34.124 -16.452 -25.081  0.00  0.00    -0.448 OA
ATOM     23  O   UNL     1      35.198 -18.500 -24.437  0.00  0.00    -0.311 OA
ATOM     24  C   UNL     1      34.118 -14.637 -23.572  0.00  0.00    +0.034 C 
ATOM     25  C   UNL     1      34.337 -15.995 -23.805  0.00  0.00    +0.138 C 
ATOM     26  C   UNL     1      34.779 -16.830 -22.771  0.00  0.00    +0.043 C 
ATOM     27  C   UNL     1      34.315 -14.111 -22.295  0.00  0.00    +0.030 C 
ATOM     28  C   UNL     1      35.012 -18.286 -23.039  0.00  0.00    +0.176 C 
ATOM     29  C   UNL     1      34.963 -16.298 -21.491  0.00  0.00    +0.031 C 
ATOM     30  C   UNL     1      34.734 -14.941 -21.256  0.00  0.00    +0.140 C 
ATOM     31  C   UNL     1      34.149 -17.880 -25.177  0.00  0.00    +0.361 C 
ENDBRANCH  20  24
ENDBRANCH   2  20
TORSDOF 5
ENDMDL
MODEL 7
REMARK VINA RESULT:      -9.6      2.960      8.213
REMARK  Name = 45270264
REMARK  5 active torsions:
REMARK  status: ('A' for Active; 'I' for Inactive)
REMARK    1  A    between atoms: N_2  and  C_20
REMARK    2  A    between atoms: N_3  and  C_7
REMARK    3  A    between atoms: N_3  and  O_18
REMARK    4  A    between atoms: C_8  and  C_12
REMARK    5  A    between atoms: C_20  and  C_24
REMARK                            x       y       z     vdW  Elec       q    Type
REMARK                         _______ _______ _______ _____ _____    ______ ____
ROOT
ATOM      1  O   UNL     1      35.247 -16.325 -20.030  0.00  0.00    -0.273 OA
ATOM      2  N   UNL     1      35.041 -16.858 -22.337  0.00  0.00    -0.253 N 
ATOM      3  C   UNL     1      34.522 -16.156 -23.442  0.00  0.00    +0.052 C 
ATOM      4  C   UNL     1      34.048 -14.905 -23.048  0.00  0.00    +0.018 C 
ATOM      5  C   UNL     1      34.931 -16.106 -21.179  0.00  0.00    +0.252 C 
ATOM      6  C   UNL     1      34.281 -14.815 -21.619  0.00  0.00    +0.202 C 
ATOM      7  C   UNL     1      33.485 -14.004 -23.926  0.00  0.00    -0.001 C 
ATOM      8  C   UNL     1      34.444 -16.551 -24.765  0.00  0.00    +0.015 C 
ATOM      9  C   UNL     1      33.402 -14.395 -25.263  0.00  0.00    -0.000 C 
ATOM     10  C   UNL     1      33.876 -15.655 -25.679  0.00  0.00    +0.001 C 
ENDROOT
BRANCH   7  11
ATOM     11  C   UNL     1      32.994 -12.709 -23.517  0.00  0.00    -0.000 C 
ATOM     12  C   UNL     1      33.637 -11.550 -23.950  0.00  0.00    -0.000 C 
ATOM     13  C   UNL     1      31.876 -12.617 -22.687  0.00  0.00    -0.000 C 
ATOM     14  C   UNL     1      33.162 -10.299 -23.555  0.00  0.00    -0.000 C 
ATOM     15  C   UNL     1      31.402 -11.366 -22.291  0.00  0.00    -0.000 C 
ATOM     16  C   UNL     1      32.046 -10.207 -22.725  0.00  0.00    -0.000 C 
ENDBRANCH   7  11
BRANCH   6  17
ATOM     17  N   UNL     1      34.009 -13.847 -20.819  0.00  0.00    -0.075 NA
BRANCH  17  18
ATOM     18  O   UNL     1      32.887 -14.200 -20.061  0.00  0.00    -0.294 OA
ATOM     19  H   UNL     1      32.085 -13.726 -20.165  0.00  0.00    +0.238 HD
ENDBRANCH  17  18
ENDBRANCH   6  17
BRANCH   2  20
ATOM     20  C   UNL     1      35.606 -18.182 -22.430  0.00  0.00    +0.128 C 
BRANCH  20  24
ATOM     21  F   UNL     1      31.436 -20.363 -21.207  0.00  0.00    -0.204 F 
ATOM     22  O   UNL     1      36.857 -19.783 -20.510  0.00  0.00    -0.448 OA
ATOM     23  O   UNL     1      36.746 -21.105 -18.509  0.00  0.00    -0.311 OA
ATOM     24  C   UNL     1      34.852 -19.175 -21.595  0.00  0.00    +0.034 C 
ATOM     25  C   UNL     1      35.504 -19.963 -20.647  0.00  0.00    +0.138 C 
ATOM     26  C   UNL     1      34.784 -20.874 -19.863  0.00  0.00    +0.043 C 
ATOM     27  C   UNL     1      33.477 -19.311 -21.783  0.00  0.00    +0.030 C 
ATOM     28  C   UNL     1      35.500 -21.710 -18.848  0.00  0.00    +0.176 C 
ATOM     29  C   UNL     1      33.407 -21.012 -20.066  0.00  0.00    +0.031 C 
ATOM     30  C   UNL     1      32.756 -20.230 -21.022  0.00  0.00    +0.140 C 
ATOM     31  C   UNL     1      37.476 -20.781 -19.690  0.00  0.00    +0.361 C 
ENDBRANCH  20  24
ENDBRANCH   2  20
TORSDOF 5
ENDMDL
MODEL 8
REMARK VINA RESULT:      -9.5      2.583      7.741
REMARK  Name = 45270264
REMARK  5 active torsions:
REMARK  status: ('A' for Active; 'I' for Inactive)
REMARK    1  A    between atoms: N_2  and  C_20
REMARK    2  A    between atoms: N_3  and  C_7
REMARK    3  A    between atoms: N_3  and  O_18
REMARK    4  A    between atoms: C_8  and  C_12
REMARK    5  A    between atoms: C_20  and  C_24
REMARK                            x       y       z     vdW  Elec       q    Type
REMARK                         _______ _______ _______ _____ _____    ______ ____
ROOT
ATOM      1  O   UNL     1      34.336 -16.346 -20.917  0.00  0.00    -0.273 OA
ATOM      2  N   UNL     1      34.009 -16.596 -23.258  0.00  0.00    -0.253 N 
ATOM      3  C   UNL     1      33.751 -15.679 -24.295  0.00  0.00    +0.052 C 
ATOM      4  C   UNL     1      33.685 -14.379 -23.793  0.00  0.00    +0.018 C 
ATOM      5  C   UNL     1      34.122 -15.945 -22.041  0.00  0.00    +0.252 C 
ATOM      6  C   UNL     1      33.914 -14.484 -22.365  0.00  0.00    +0.202 C 
ATOM      7  C   UNL     1      33.445 -13.278 -24.587  0.00  0.00    -0.001 C 
ATOM      8  C   UNL     1      33.573 -15.919 -25.646  0.00  0.00    +0.015 C 
ATOM      9  C   UNL     1      33.264 -13.512 -25.951  0.00  0.00    -0.000 C 
ATOM     10  C   UNL     1      33.327 -14.819 -26.476  0.00  0.00    +0.001 C 
ENDROOT
BRANCH   7  11
ATOM     11  C   UNL     1      33.377 -11.932 -24.066  0.00  0.00    -0.000 C 
ATOM     12  C   UNL     1      34.352 -10.999 -24.415  0.00  0.00    -0.000 C 
ATOM     13  C   UNL     1      32.336 -11.567 -23.213  0.00  0.00    -0.000 C 
ATOM     14  C   UNL     1      34.286  -9.700 -23.912  0.00  0.00    -0.000 C 
ATOM     15  C   UNL     1      32.270 -10.267 -22.709  0.00  0.00    -0.000 C 
ATOM     16  C   UNL     1      33.246  -9.334 -23.059  0.00  0.00    -0.000 C 
ENDBRANCH   7  11
BRANCH   6  17
ATOM     17  N   UNL     1      33.945 -13.549 -21.484  0.00  0.00    -0.075 NA
BRANCH  17  18
ATOM     18  O   UNL     1      32.896 -13.752 -20.582  0.00  0.00    -0.294 OA
ATOM     19  H   UNL     1      32.409 -13.021 -20.259  0.00  0.00    +0.238 HD
ENDBRANCH  17  18
ENDBRANCH   6  17
BRANCH   2  20
ATOM     20  C   UNL     1      34.133 -18.018 -23.467  0.00  0.00    +0.128 C 
BRANCH  20  24
ATOM     21  F   UNL     1      38.699 -18.622 -21.908  0.00  0.00    -0.204 F 
ATOM     22  O   UNL     1      33.341 -19.752 -21.422  0.00  0.00    -0.448 OA
ATOM     23  O   UNL     1      33.849 -21.519 -19.879  0.00  0.00    -0.311 OA
ATOM     24  C   UNL     1      35.112 -18.642 -22.518  0.00  0.00    +0.034 C 
ATOM     25  C   UNL     1      34.688 -19.502 -21.504  0.00  0.00    +0.138 C 
ATOM     26  C   UNL     1      35.616 -20.089 -20.636  0.00  0.00    +0.043 C 
ATOM     27  C   UNL     1      36.469 -18.346 -22.653  0.00  0.00    +0.030 C 
ATOM     28  C   UNL     1      35.143 -21.012 -19.555  0.00  0.00    +0.176 C 
ATOM     29  C   UNL     1      36.973 -19.778 -20.771  0.00  0.00    +0.031 C 
ATOM     30  C   UNL     1      37.397 -18.911 -21.779  0.00  0.00    +0.140 C 
ATOM     31  C   UNL     1      32.972 -20.451 -20.228  0.00  0.00    +0.361 C 
ENDBRANCH  20  24
ENDBRANCH   2  20
TORSDOF 5
ENDMDL
MODEL 9
REMARK VINA RESULT:      -9.4      1.849      2.577
REMARK  Name = 45270264
REMARK  5 active torsions:
REMARK  status: ('A' for Active; 'I' for Inactive)
REMARK    1  A    between atoms: N_2  and  C_20
REMARK    2  A    between atoms: N_3  and  C_7
REMARK    3  A    between atoms: N_3  and  O_18
REMARK    4  A    between atoms: C_8  and  C_12
REMARK    5  A    between atoms: C_20  and  C_24
REMARK                            x       y       z     vdW  Elec       q    Type
REMARK                         _______ _______ _______ _____ _____    ______ ____
ROOT
ATOM      1  O   UNL     1      32.655 -13.667 -20.957  0.00  0.00    -0.273 OA
ATOM      2  N   UNL     1      33.046 -14.268 -23.223  0.00  0.00    -0.253 N 
ATOM      3  C   UNL     1      33.650 -15.386 -23.831  0.00  0.00    +0.052 C 
ATOM      4  C   UNL     1      34.087 -16.291 -22.863  0.00  0.00    +0.018 C 
ATOM      5  C   UNL     1      33.061 -14.387 -21.844  0.00  0.00    +0.252 C 
ATOM      6  C   UNL     1      33.740 -15.711 -21.580  0.00  0.00    +0.202 C 
ATOM      7  C   UNL     1      34.715 -17.478 -23.174  0.00  0.00    -0.001 C 
ATOM      8  C   UNL     1      33.835 -15.653 -25.175  0.00  0.00    +0.015 C 
ATOM      9  C   UNL     1      34.905 -17.754 -24.528  0.00  0.00    -0.000 C 
ATOM     10  C   UNL     1      34.471 -16.852 -25.519  0.00  0.00    +0.001 C 
ENDROOT
BRANCH   7  11
ATOM     11  C   UNL     1      35.167 -18.414 -22.171  0.00  0.00    -0.000 C 
ATOM     12  C   UNL     1      34.260 -19.286 -21.571  0.00  0.00    -0.000 C 
ATOM     13  C   UNL     1      36.512 -18.445 -21.802  0.00  0.00    -0.000 C 
ATOM     14  C   UNL     1      34.697 -20.191 -20.603  0.00  0.00    -0.000 C 
ATOM     15  C   UNL     1      36.949 -19.349 -20.833  0.00  0.00    -0.000 C 
ATOM     16  C   UNL     1      36.041 -20.221 -20.234  0.00  0.00    -0.000 C 
ENDBRANCH   7  11
BRANCH   6  17
ATOM     17  N   UNL     1      33.944 -16.182 -20.402  0.00  0.00    -0.075 NA
BRANCH  17  18
ATOM     18  O   UNL     1      35.027 -15.504 -19.834  0.00  0.00    -0.294 OA
ATOM     19  H   UNL     1      35.234 -14.634 -20.115  0.00  0.00    +0.238 HD
ENDBRANCH  17  18
ENDBRANCH   6  17
BRANCH   2  20
ATOM     20  C   UNL     1      32.495 -13.161 -23.967  0.00  0.00    +0.128 C 
BRANCH  20  24
ATOM     21  F   UNL     1      30.367 -10.842 -20.261  0.00  0.00    -0.204 F 
ATOM     22  O   UNL     1      33.998 -10.841 -24.388  0.00  0.00    -0.448 OA
ATOM     23  O   UNL     1      34.273  -8.468 -24.152  0.00  0.00    -0.311 OA
ATOM     24  C   UNL     1      32.338 -11.935 -23.116  0.00  0.00    +0.034 C 
ATOM     25  C   UNL     1      33.105 -10.792 -23.348  0.00  0.00    +0.138 C 
ATOM     26  C   UNL     1      32.934  -9.650 -22.555  0.00  0.00    +0.043 C 
ATOM     27  C   UNL     1      31.413 -11.950 -22.073  0.00  0.00    +0.030 C 
ATOM     28  C   UNL     1      33.764  -8.431 -22.820  0.00  0.00    +0.176 C 
ATOM     29  C   UNL     1      32.012  -9.678 -21.503  0.00  0.00    +0.031 C 
ATOM     30  C   UNL     1      31.253 -10.824 -21.266  0.00  0.00    +0.140 C 
ATOM     31  C   UNL     1      34.894  -9.724 -24.410  0.00  0.00    +0.361 C 
ENDBRANCH  20  24
ENDBRANCH   2  20
TORSDOF 5
ENDMDL
