MODEL 1
REMARK VINA RESULT:      -9.2      0.000      0.000
REMARK  Name = 5282443
REMARK  4 active torsions:
REMARK  status: ('A' for Active; 'I' for Inactive)
REMARK    1  A    between atoms: C_1  and  C_16
REMARK    2  A    between atoms: C_2  and  C_3
REMARK    3  A    between atoms: C_2  and  C_11
REMARK    4  A    between atoms: C_16  and  N_17
REMARK                            x       y       z     vdW  Elec       q    Type
REMARK                         _______ _______ _______ _____ _____    ______ ____
ROOT
ATOM      1  C   UNL     1      33.007 -23.429 -15.605  0.00  0.00    -0.048 C 
ATOM      2  C   UNL     1      34.297 -23.373 -16.005  0.00  0.00    +0.011 C 
ENDROOT
BRANCH   2   3
ATOM      3  C   UNL     1      35.321 -23.970 -15.108  0.00  0.00    +0.001 C 
ATOM      4  C   UNL     1      35.864 -23.190 -14.107  0.00  0.00    -0.000 C 
ATOM      5  C   UNL     1      35.695 -25.283 -15.304  0.00  0.00    -0.000 C 
ATOM      6  C   UNL     1      37.222 -25.075 -13.443  0.00  0.00    -0.022 C 
ATOM      7  C   UNL     1      36.826 -23.749 -13.265  0.00  0.00    -0.004 C 
ATOM      8  C   UNL     1      36.657 -25.841 -14.462  0.00  0.00    -0.004 C 
ATOM      9  C   UNL     1      38.249 -25.673 -12.542  0.00  0.00    +0.031 C 
ENDBRANCH   2   3
BRANCH   2  11
ATOM     10  N   UNL     1      35.929 -22.334 -17.390  0.00  0.00    -0.244 NA
ATOM     11  C   UNL     1      34.655 -22.741 -17.293  0.00  0.00    +0.081 C 
ATOM     12  C   UNL     1      33.694 -22.619 -18.266  0.00  0.00    +0.019 C 
ATOM     13  C   UNL     1      34.078 -22.018 -19.459  0.00  0.00    +0.003 C 
ATOM     14  C   UNL     1      36.264 -21.754 -18.565  0.00  0.00    +0.099 C 
ATOM     15  C   UNL     1      35.386 -21.575 -19.620  0.00  0.00    +0.021 C 
ENDBRANCH   2  11
BRANCH   1  16
ATOM     16  C   UNL     1      32.453 -24.029 -14.341  0.00  0.00    -0.050 C 
BRANCH  16  17
ATOM     17  N   UNL     1      30.999 -23.990 -14.332  0.00  0.00    +0.390 N 
ATOM     18  C   UNL     1      30.404 -25.294 -14.622  0.00  0.00    -0.077 C 
ATOM     19  C   UNL     1      30.459 -23.091 -15.354  0.00  0.00    -0.077 C 
ATOM     20  C   UNL     1      28.957 -24.944 -14.942  0.00  0.00    -0.025 C 
ATOM     21  C   UNL     1      28.994 -23.498 -15.426  0.00  0.00    -0.025 C 
ATOM     22  H   UNL     1      30.764 -23.671 -13.392  0.00  0.00    -0.079 HD
ENDBRANCH  16  17
ENDBRANCH   1  16
TORSDOF 4
ENDMDL
MODEL 2
REMARK VINA RESULT:      -9.1      1.274      4.675
REMARK  Name = 5282443
REMARK  4 active torsions:
REMARK  status: ('A' for Active; 'I' for Inactive)
REMARK    1  A    between atoms: C_1  and  C_16
REMARK    2  A    between atoms: C_2  and  C_3
REMARK    3  A    between atoms: C_2  and  C_11
REMARK    4  A    between atoms: C_16  and  N_17
REMARK                            x       y       z     vdW  Elec       q    Type
REMARK                         _______ _______ _______ _____ _____    ______ ____
ROOT
ATOM      1  C   UNL     1      33.301 -23.839 -14.850  0.00  0.00    -0.048 C 
ATOM      2  C   UNL     1      34.535 -23.973 -15.386  0.00  0.00    +0.011 C 
ENDROOT
BRANCH   2   3
ATOM      3  C   UNL     1      34.843 -23.189 -16.610  0.00  0.00    +0.001 C 
ATOM      4  C   UNL     1      36.039 -22.506 -16.678  0.00  0.00    -0.000 C 
ATOM      5  C   UNL     1      33.923 -23.169 -17.637  0.00  0.00    -0.000 C 
ATOM      6  C   UNL     1      35.415 -21.732 -18.881  0.00  0.00    -0.022 C 
ATOM      7  C   UNL     1      36.329 -21.768 -17.827  0.00  0.00    -0.004 C 
ATOM      8  C   UNL     1      34.213 -22.432 -18.786  0.00  0.00    -0.004 C 
ATOM      9  C   UNL     1      35.725 -20.945 -20.108  0.00  0.00    +0.031 C 
ENDBRANCH   2   3
BRANCH   2  11
ATOM     10  N   UNL     1      35.984 -25.855 -15.548  0.00  0.00    -0.244 NA
ATOM     11  C   UNL     1      35.531 -24.870 -14.758  0.00  0.00    +0.081 C 
ATOM     12  C   UNL     1      35.907 -24.643 -13.458  0.00  0.00    +0.019 C 
ATOM     13  C   UNL     1      36.844 -25.512 -12.912  0.00  0.00    +0.003 C 
ATOM     14  C   UNL     1      36.893 -26.680 -14.982  0.00  0.00    +0.099 C 
ATOM     15  C   UNL     1      37.352 -26.552 -13.681  0.00  0.00    +0.021 C 
ENDBRANCH   2  11
BRANCH   1  16
ATOM     16  C   UNL     1      32.167 -22.980 -15.340  0.00  0.00    -0.050 C 
BRANCH  16  17
ATOM     17  N   UNL     1      30.988 -23.782 -15.633  0.00  0.00    +0.390 N 
ATOM     18  C   UNL     1      29.817 -22.961 -15.939  0.00  0.00    -0.077 C 
ATOM     19  C   UNL     1      30.582 -24.614 -14.500  0.00  0.00    -0.077 C 
ATOM     20  C   UNL     1      28.668 -23.951 -15.823  0.00  0.00    -0.025 C 
ATOM     21  C   UNL     1      29.169 -25.036 -14.875  0.00  0.00    -0.025 C 
ATOM     22  H   UNL     1      31.268 -24.350 -16.433  0.00  0.00    -0.079 HD
ENDBRANCH  16  17
ENDBRANCH   1  16
TORSDOF 4
ENDMDL
MODEL 3
REMARK VINA RESULT:      -8.7      1.466      5.306
REMARK  Name = 5282443
REMARK  4 active torsions:
REMARK  status: ('A' for Active; 'I' for Inactive)
REMARK    1  A    between atoms: C_1  and  C_16
REMARK    2  A    between atoms: C_2  and  C_3
REMARK    3  A    between atoms: C_2  and  C_11
REMARK    4  A    between atoms: C_16  and  N_17
REMARK                            x       y       z     vdW  Elec       q    Type
REMARK                         _______ _______ _______ _____ _____    ______ ____
ROOT
ATOM      1  C   UNL     1      33.489 -22.740 -17.894  0.00  0.00    -0.048 C 
ATOM      2  C   UNL     1      33.331 -23.149 -16.616  0.00  0.00    +0.011 C 
ENDROOT
BRANCH   2   3
ATOM      3  C   UNL     1      34.552 -23.541 -15.863  0.00  0.00    +0.001 C 
ATOM      4  C   UNL     1      34.798 -24.881 -15.647  0.00  0.00    -0.000 C 
ATOM      5  C   UNL     1      35.399 -22.553 -15.406  0.00  0.00    -0.000 C 
ATOM      6  C   UNL     1      36.816 -24.270 -14.467  0.00  0.00    -0.022 C 
ATOM      7  C   UNL     1      35.943 -25.250 -14.941  0.00  0.00    -0.004 C 
ATOM      8  C   UNL     1      36.544 -22.922 -14.700  0.00  0.00    -0.004 C 
ATOM      9  C   UNL     1      38.040 -24.664 -13.714  0.00  0.00    +0.031 C 
ENDBRANCH   2   3
BRANCH   2  11
ATOM     10  N   UNL     1      30.977 -22.873 -16.829  0.00  0.00    -0.244 NA
ATOM     11  C   UNL     1      31.985 -23.192 -16.004  0.00  0.00    +0.081 C 
ATOM     12  C   UNL     1      31.864 -23.543 -14.682  0.00  0.00    +0.019 C 
ATOM     13  C   UNL     1      30.580 -23.569 -14.151  0.00  0.00    +0.003 C 
ATOM     14  C   UNL     1      29.743 -22.909 -16.276  0.00  0.00    +0.099 C 
ATOM     15  C   UNL     1      29.493 -23.247 -14.957  0.00  0.00    +0.021 C 
ENDBRANCH   2  11
BRANCH   1  16
ATOM     16  C   UNL     1      34.767 -22.627 -18.680  0.00  0.00    -0.050 C 
BRANCH  16  17
ATOM     17  N   UNL     1      34.598 -21.764 -19.839  0.00  0.00    +0.390 N 
ATOM     18  C   UNL     1      35.673 -20.780 -19.965  0.00  0.00    -0.077 C 
ATOM     19  C   UNL     1      33.368 -20.974 -19.773  0.00  0.00    -0.077 C 
ATOM     20  C   UNL     1      35.105 -19.780 -20.962  0.00  0.00    -0.025 C 
ATOM     21  C   UNL     1      33.590 -19.905 -20.833  0.00  0.00    -0.025 C 
ATOM     22  H   UNL     1      34.585 -22.409 -20.629  0.00  0.00    -0.079 HD
ENDBRANCH  16  17
ENDBRANCH   1  16
TORSDOF 4
ENDMDL
MODEL 4
REMARK VINA RESULT:      -8.6      1.502      6.078
REMARK  Name = 5282443
REMARK  4 active torsions:
REMARK  status: ('A' for Active; 'I' for Inactive)
REMARK    1  A    between atoms: C_1  and  C_16
REMARK    2  A    between atoms: C_2  and  C_3
REMARK    3  A    between atoms: C_2  and  C_11
REMARK    4  A    between atoms: C_16  and  N_17
REMARK                            x       y       z     vdW  Elec       q    Type
REMARK                         _______ _______ _______ _____ _____    ______ ____
ROOT
ATOM      1  C   UNL     1      34.724 -24.640 -15.063  0.00  0.00    -0.048 C 
ATOM      2  C   UNL     1      34.010 -23.705 -15.728  0.00  0.00    +0.011 C 
ENDROOT
BRANCH   2   3
ATOM      3  C   UNL     1      34.689 -22.974 -16.830  0.00  0.00    +0.001 C 
ATOM      4  C   UNL     1      34.040 -22.844 -18.040  0.00  0.00    -0.000 C 
ATOM      5  C   UNL     1      35.945 -22.451 -16.608  0.00  0.00    -0.000 C 
ATOM      6  C   UNL     1      35.948 -21.620 -18.877  0.00  0.00    -0.022 C 
ATOM      7  C   UNL     1      34.677 -22.160 -19.075  0.00  0.00    -0.004 C 
ATOM      8  C   UNL     1      36.582 -21.766 -17.643  0.00  0.00    -0.004 C 
ATOM      9  C   UNL     1      36.628 -20.888 -19.982  0.00  0.00    +0.031 C 
ENDBRANCH   2   3
BRANCH   2  11
ATOM     10  N   UNL     1      32.349 -23.448 -14.043  0.00  0.00    -0.244 NA
ATOM     11  C   UNL     1      32.602 -23.435 -15.359  0.00  0.00    +0.081 C 
ATOM     12  C   UNL     1      31.686 -23.201 -16.354  0.00  0.00    +0.019 C 
ATOM     13  C   UNL     1      30.376 -22.954 -15.960  0.00  0.00    +0.003 C 
ATOM     14  C   UNL     1      31.064 -23.204 -13.698  0.00  0.00    +0.099 C 
ATOM     15  C   UNL     1      30.051 -22.953 -14.608  0.00  0.00    +0.021 C 
ENDBRANCH   2  11
BRANCH   1  16
ATOM     16  C   UNL     1      36.153 -25.052 -15.295  0.00  0.00    -0.050 C 
BRANCH  16  17
ATOM     17  N   UNL     1      36.860 -25.230 -14.035  0.00  0.00    +0.390 N 
ATOM     18  C   UNL     1      37.141 -23.959 -13.369  0.00  0.00    -0.077 C 
ATOM     19  C   UNL     1      38.167 -25.862 -14.214  0.00  0.00    -0.077 C 
ATOM     20  C   UNL     1      38.184 -24.344 -12.329  0.00  0.00    -0.025 C 
ATOM     21  C   UNL     1      38.861 -25.592 -12.886  0.00  0.00    -0.025 C 
ATOM     22  H   UNL     1      36.234 -25.815 -13.481  0.00  0.00    -0.079 HD
ENDBRANCH  16  17
ENDBRANCH   1  16
TORSDOF 4
ENDMDL
MODEL 5
REMARK VINA RESULT:      -8.5     13.759     17.027
REMARK  Name = 5282443
REMARK  4 active torsions:
REMARK  status: ('A' for Active; 'I' for Inactive)
REMARK    1  A    between atoms: C_1  and  C_16
REMARK    2  A    between atoms: C_2  and  C_3
REMARK    3  A    between atoms: C_2  and  C_11
REMARK    4  A    between atoms: C_16  and  N_17
REMARK                            x       y       z     vdW  Elec       q    Type
REMARK                         _______ _______ _______ _____ _____    ______ ____
ROOT
ATOM      1  C   UNL     1      33.213 -10.894 -23.536  0.00  0.00    -0.048 C 
ATOM      2  C   UNL     1      32.697  -9.841 -22.863  0.00  0.00    +0.011 C 
ENDROOT
BRANCH   2   3
ATOM      3  C   UNL     1      32.683  -8.524 -23.552  0.00  0.00    +0.001 C 
ATOM      4  C   UNL     1      31.470  -7.969 -23.900  0.00  0.00    -0.000 C 
ATOM      5  C   UNL     1      33.883  -7.899 -23.819  0.00  0.00    -0.000 C 
ATOM      6  C   UNL     1      32.656  -6.080 -24.829  0.00  0.00    -0.022 C 
ATOM      7  C   UNL     1      31.456  -6.733 -24.546  0.00  0.00    -0.004 C 
ATOM      8  C   UNL     1      33.869  -6.663 -24.465  0.00  0.00    -0.004 C 
ATOM      9  C   UNL     1      32.641  -4.758 -25.518  0.00  0.00    +0.031 C 
ENDBRANCH   2   3
BRANCH   2  11
ATOM     10  N   UNL     1      32.351  -8.970 -20.676  0.00  0.00    -0.244 NA
ATOM     11  C   UNL     1      32.165 -10.016 -21.494  0.00  0.00    +0.081 C 
ATOM     12  C   UNL     1      31.543 -11.195 -21.165  0.00  0.00    +0.019 C 
ATOM     13  C   UNL     1      31.061 -11.313 -19.867  0.00  0.00    +0.003 C 
ATOM     14  C   UNL     1      31.869  -9.122 -19.422  0.00  0.00    +0.099 C 
ATOM     15  C   UNL     1      31.223 -10.262 -18.972  0.00  0.00    +0.021 C 
ENDBRANCH   2  11
BRANCH   1  16
ATOM     16  C   UNL     1      33.792 -10.911 -24.926  0.00  0.00    -0.050 C 
BRANCH  16  17
ATOM     17  N   UNL     1      33.947 -12.273 -25.414  0.00  0.00    +0.390 N 
ATOM     18  C   UNL     1      33.341 -12.467 -26.730  0.00  0.00    -0.077 C 
ATOM     19  C   UNL     1      33.295 -13.255 -24.547  0.00  0.00    -0.077 C 
ATOM     20  C   UNL     1      33.275 -13.983 -26.855  0.00  0.00    -0.025 C 
ATOM     21  C   UNL     1      33.241 -14.500 -25.420  0.00  0.00    -0.025 C 
ATOM     22  H   UNL     1      34.957 -12.413 -25.442  0.00  0.00    -0.079 HD
ENDBRANCH  16  17
ENDBRANCH   1  16
TORSDOF 4
ENDMDL
MODEL 6
REMARK VINA RESULT:      -8.4     13.661     17.050
REMARK  Name = 5282443
REMARK  4 active torsions:
REMARK  status: ('A' for Active; 'I' for Inactive)
REMARK    1  A    between atoms: C_1  and  C_16
REMARK    2  A    between atoms: C_2  and  C_3
REMARK    3  A    between atoms: C_2  and  C_11
REMARK    4  A    between atoms: C_16  and  N_17
REMARK                            x       y       z     vdW  Elec       q    Type
REMARK                         _______ _______ _______ _____ _____    ______ ____
ROOT
ATOM      1  C   UNL     1      33.201 -10.872 -23.552  0.00  0.00    -0.048 C 
ATOM      2  C   UNL     1      32.674  -9.825 -22.879  0.00  0.00    +0.011 C 
ENDROOT
BRANCH   2   3
ATOM      3  C   UNL     1      32.660  -8.505 -23.563  0.00  0.00    +0.001 C 
ATOM      4  C   UNL     1      33.861  -7.881 -23.827  0.00  0.00    -0.000 C 
ATOM      5  C   UNL     1      31.448  -7.947 -23.910  0.00  0.00    -0.000 C 
ATOM      6  C   UNL     1      32.636  -6.056 -24.831  0.00  0.00    -0.022 C 
ATOM      7  C   UNL     1      33.850  -6.642 -24.468  0.00  0.00    -0.004 C 
ATOM      8  C   UNL     1      31.436  -6.708 -24.551  0.00  0.00    -0.004 C 
ATOM      9  C   UNL     1      32.624  -4.732 -25.516  0.00  0.00    +0.031 C 
ENDBRANCH   2   3
BRANCH   2  11
ATOM     10  N   UNL     1      31.528 -11.185 -21.299  0.00  0.00    -0.244 NA
ATOM     11  C   UNL     1      32.131 -10.008 -21.515  0.00  0.00    +0.081 C 
ATOM     12  C   UNL     1      32.276  -8.996 -20.599  0.00  0.00    +0.019 C 
ATOM     13  C   UNL     1      31.750  -9.213 -19.331  0.00  0.00    +0.003 C 
ATOM     14  C   UNL     1      31.028 -11.360 -20.054  0.00  0.00    +0.099 C 
ATOM     15  C   UNL     1      31.112 -10.415 -19.045  0.00  0.00    +0.021 C 
ENDBRANCH   2  11
BRANCH   1  16
ATOM     16  C   UNL     1      33.792 -10.882 -24.936  0.00  0.00    -0.050 C 
BRANCH  16  17
ATOM     17  N   UNL     1      33.951 -12.241 -25.431  0.00  0.00    +0.390 N 
ATOM     18  C   UNL     1      33.283 -12.448 -26.716  0.00  0.00    -0.077 C 
ATOM     19  C   UNL     1      33.362 -13.235 -24.533  0.00  0.00    -0.077 C 
ATOM     20  C   UNL     1      33.242 -13.965 -26.837  0.00  0.00    -0.025 C 
ATOM     21  C   UNL     1      33.290 -14.482 -25.403  0.00  0.00    -0.025 C 
ATOM     22  H   UNL     1      34.961 -12.360 -25.510  0.00  0.00    -0.079 HD
ENDBRANCH  16  17
ENDBRANCH   1  16
TORSDOF 4
ENDMDL
MODEL 7
REMARK VINA RESULT:      -8.4      5.994     10.403
REMARK  Name = 5282443
REMARK  4 active torsions:
REMARK  status: ('A' for Active; 'I' for Inactive)
REMARK    1  A    between atoms: C_1  and  C_16
REMARK    2  A    between atoms: C_2  and  C_3
REMARK    3  A    between atoms: C_2  and  C_11
REMARK    4  A    between atoms: C_16  and  N_17
REMARK                            x       y       z     vdW  Elec       q    Type
REMARK                         _______ _______ _______ _____ _____    ______ ____
ROOT
ATOM      1  C   UNL     1      35.358 -18.482 -22.694  0.00  0.00    -0.048 C 
ATOM      2  C   UNL     1      34.637 -18.421 -21.552  0.00  0.00    +0.011 C 
ENDROOT
BRANCH   2   3
ATOM      3  C   UNL     1      34.066 -17.103 -21.168  0.00  0.00    +0.001 C 
ATOM      4  C   UNL     1      32.701 -16.920 -21.255  0.00  0.00    -0.000 C 
ATOM      5  C   UNL     1      34.917 -16.107 -20.738  0.00  0.00    -0.000 C 
ATOM      6  C   UNL     1      33.003 -14.659 -20.457  0.00  0.00    -0.022 C 
ATOM      7  C   UNL     1      32.164 -15.684 -20.895  0.00  0.00    -0.004 C 
ATOM      8  C   UNL     1      34.379 -14.871 -20.378  0.00  0.00    -0.004 C 
ATOM      9  C   UNL     1      32.429 -13.339 -20.072  0.00  0.00    +0.031 C 
ENDBRANCH   2   3
BRANCH   2  11
ATOM     10  N   UNL     1      35.555 -20.182 -20.241  0.00  0.00    -0.244 NA
ATOM     11  C   UNL     1      34.433 -19.634 -20.730  0.00  0.00    +0.081 C 
ATOM     12  C   UNL     1      33.157 -20.098 -20.532  0.00  0.00    +0.019 C 
ATOM     13  C   UNL     1      33.014 -21.241 -19.754  0.00  0.00    +0.003 C 
ATOM     14  C   UNL     1      35.376 -21.292 -19.489  0.00  0.00    +0.099 C 
ATOM     15  C   UNL     1      34.141 -21.856 -19.218  0.00  0.00    +0.021 C 
ENDBRANCH   2  11
BRANCH   1  16
ATOM     16  C   UNL     1      35.667 -17.365 -23.655  0.00  0.00    -0.050 C 
BRANCH  16  17
ATOM     17  N   UNL     1      34.448 -16.754 -24.162  0.00  0.00    +0.390 N 
ATOM     18  C   UNL     1      34.233 -17.035 -25.581  0.00  0.00    -0.077 C 
ATOM     19  C   UNL     1      34.472 -15.294 -24.063  0.00  0.00    -0.077 C 
ATOM     20  C   UNL     1      33.171 -16.016 -25.972  0.00  0.00    -0.025 C 
ATOM     21  C   UNL     1      33.331 -14.871 -24.976  0.00  0.00    -0.025 C 
ATOM     22  H   UNL     1      33.710 -17.156 -23.584  0.00  0.00    -0.079 HD
ENDBRANCH  16  17
ENDBRANCH   1  16
TORSDOF 4
ENDMDL
MODEL 8
REMARK VINA RESULT:      -8.2      1.586      5.344
REMARK  Name = 5282443
REMARK  4 active torsions:
REMARK  status: ('A' for Active; 'I' for Inactive)
REMARK    1  A    between atoms: C_1  and  C_16
REMARK    2  A    between atoms: C_2  and  C_3
REMARK    3  A    between atoms: C_2  and  C_11
REMARK    4  A    between atoms: C_16  and  N_17
REMARK                            x       y       z     vdW  Elec       q    Type
REMARK                         _______ _______ _______ _____ _____    ______ ____
ROOT
ATOM      1  C   UNL     1      35.180 -24.091 -15.642  0.00  0.00    -0.048 C 
ATOM      2  C   UNL     1      34.404 -23.270 -16.383  0.00  0.00    +0.011 C 
ENDROOT
BRANCH   2   3
ATOM      3  C   UNL     1      32.976 -23.134 -15.993  0.00  0.00    +0.001 C 
ATOM      4  C   UNL     1      32.009 -23.216 -16.972  0.00  0.00    -0.000 C 
ATOM      5  C   UNL     1      32.665 -22.931 -14.665  0.00  0.00    -0.000 C 
ATOM      6  C   UNL     1      30.326 -22.883 -15.270  0.00  0.00    -0.022 C 
ATOM      7  C   UNL     1      30.669 -23.088 -16.607  0.00  0.00    -0.004 C 
ATOM      8  C   UNL     1      31.325 -22.804 -14.299  0.00  0.00    -0.004 C 
ATOM      9  C   UNL     1      28.894 -22.747 -14.880  0.00  0.00    +0.031 C 
ENDBRANCH   2   3
BRANCH   2  11
ATOM     10  N   UNL     1      36.262 -22.185 -17.400  0.00  0.00    -0.244 NA
ATOM     11  C   UNL     1      34.975 -22.537 -17.535  0.00  0.00    +0.081 C 
ATOM     12  C   UNL     1      34.178 -22.278 -18.622  0.00  0.00    +0.019 C 
ATOM     13  C   UNL     1      34.758 -21.586 -19.678  0.00  0.00    +0.003 C 
ATOM     14  C   UNL     1      36.791 -21.513 -18.448  0.00  0.00    +0.099 C 
ATOM     15  C   UNL     1      36.090 -21.193 -19.598  0.00  0.00    +0.021 C 
ENDBRANCH   2  11
BRANCH   1  16
ATOM     16  C   UNL     1      34.783 -24.910 -14.443  0.00  0.00    -0.050 C 
BRANCH  16  17
ATOM     17  N   UNL     1      35.918 -25.648 -13.909  0.00  0.00    +0.390 N 
ATOM     18  C   UNL     1      36.430 -25.064 -12.670  0.00  0.00    -0.077 C 
ATOM     19  C   UNL     1      37.059 -25.656 -14.825  0.00  0.00    -0.077 C 
ATOM     20  C   UNL     1      37.792 -25.726 -12.520  0.00  0.00    -0.025 C 
ATOM     21  C   UNL     1      38.207 -26.112 -13.937  0.00  0.00    -0.025 C 
ATOM     22  H   UNL     1      35.553 -26.588 -13.758  0.00  0.00    -0.079 HD
ENDBRANCH  16  17
ENDBRANCH   1  16
TORSDOF 4
ENDMDL
MODEL 9
REMARK VINA RESULT:      -8.1      1.555      6.254
REMARK  Name = 5282443
REMARK  4 active torsions:
REMARK  status: ('A' for Active; 'I' for Inactive)
REMARK    1  A    between atoms: C_1  and  C_16
REMARK    2  A    between atoms: C_2  and  C_3
REMARK    3  A    between atoms: C_2  and  C_11
REMARK    4  A    between atoms: C_16  and  N_17
REMARK                            x       y       z     vdW  Elec       q    Type
REMARK                         _______ _______ _______ _____ _____    ______ ____
ROOT
ATOM      1  C   UNL     1      34.776 -22.897 -17.544  0.00  0.00    -0.048 C 
ATOM      2  C   UNL     1      34.405 -23.329 -16.318  0.00  0.00    +0.011 C 
ENDROOT
BRANCH   2   3
ATOM      3  C   UNL     1      32.972 -23.196 -15.946  0.00  0.00    +0.001 C 
ATOM      4  C   UNL     1      32.631 -23.186 -14.610  0.00  0.00    -0.000 C 
ATOM      5  C   UNL     1      32.031 -23.088 -16.948  0.00  0.00    -0.000 C 
ATOM      6  C   UNL     1      30.314 -22.950 -15.254  0.00  0.00    -0.022 C 
ATOM      7  C   UNL     1      31.286 -23.062 -14.259  0.00  0.00    -0.004 C 
ATOM      8  C   UNL     1      30.686 -22.963 -16.598  0.00  0.00    -0.004 C 
ATOM      9  C   UNL     1      28.877 -22.816 -14.879  0.00  0.00    +0.031 C 
ENDBRANCH   2   3
BRANCH   2  11
ATOM     10  N   UNL     1      35.587 -25.237 -15.526  0.00  0.00    -0.244 NA
ATOM     11  C   UNL     1      35.404 -23.915 -15.396  0.00  0.00    +0.081 C 
ATOM     12  C   UNL     1      36.049 -23.096 -14.504  0.00  0.00    +0.019 C 
ATOM     13  C   UNL     1      36.977 -23.691 -13.659  0.00  0.00    +0.003 C 
ATOM     14  C   UNL     1      36.498 -25.780 -14.686  0.00  0.00    +0.099 C 
ATOM     15  C   UNL     1      37.212 -25.059 -13.745  0.00  0.00    +0.021 C 
ENDBRANCH   2  11
BRANCH   1  16
ATOM     16  C   UNL     1      33.911 -22.282 -18.611  0.00  0.00    -0.050 C 
BRANCH  16  17
ATOM     17  N   UNL     1      34.718 -21.687 -19.665  0.00  0.00    +0.390 N 
ATOM     18  C   UNL     1      36.053 -21.312 -19.200  0.00  0.00    -0.077 C 
ATOM     19  C   UNL     1      34.135 -20.449 -20.183  0.00  0.00    -0.077 C 
ATOM     20  C   UNL     1      36.551 -20.391 -20.305  0.00  0.00    -0.025 C 
ATOM     21  C   UNL     1      35.291 -19.821 -20.948  0.00  0.00    -0.025 C 
ATOM     22  H   UNL     1      34.760 -22.409 -20.383  0.00  0.00    -0.079 HD
ENDBRANCH  16  17
ENDBRANCH   1  16
TORSDOF 4
ENDMDL
