MODEL 1
REMARK VINA RESULT:      -6.1      0.000      0.000
REMARK  Name = 5284583
REMARK  3 active torsions:
REMARK  status: ('A' for Active; 'I' for Inactive)
REMARK    1  A    between atoms: C_1  and  N_3
REMARK    2  A    between atoms: C_1  and  C_10
REMARK    3  A    between atoms: C_1  and  C_13
REMARK                            x       y       z     vdW  Elec       q    Type
REMARK                         _______ _______ _______ _____ _____    ______ ____
ROOT
ATOM      1  C   UNL     1      35.224 -18.001 -22.029  0.00  0.00    +0.151 C 
ENDROOT
BRANCH   1   3
ATOM      2  O   UNL     1      36.612 -20.199 -20.538  0.00  0.00    -0.275 OA
ATOM      3  N   UNL     1      34.665 -19.087 -21.253  0.00  0.00    -0.273 N 
ATOM      4  C   UNL     1      33.247 -19.182 -20.997  0.00  0.00    +0.094 C 
ATOM      5  C   UNL     1      33.084 -20.601 -20.488  0.00  0.00    +0.031 C 
ATOM      6  C   UNL     1      34.412 -20.898 -19.800  0.00  0.00    +0.087 C 
ATOM      7  C   UNL     1      35.399 -20.054 -20.571  0.00  0.00    +0.226 C 
ENDBRANCH   1   3
BRANCH   1  10
ATOM      8  O   UNL     1      35.175 -16.417 -20.187  0.00  0.00    -0.274 OA
ATOM      9  N   UNL     1      34.157 -15.832 -22.160  0.00  0.00    -0.327 N 
ATOM     10  C   UNL     1      34.875 -16.684 -21.348  0.00  0.00    +0.237 C 
ATOM     11  H   UNL     1      33.877 -14.951 -21.823  0.00  0.00    +0.145 HD
ATOM     12  H   UNL     1      33.924 -16.106 -23.077  0.00  0.00    +0.145 HD
ENDBRANCH   1  10
BRANCH   1  13
ATOM     13  C   UNL     1      34.779 -18.048 -23.494  0.00  0.00    +0.029 C 
ATOM     14  C   UNL     1      34.948 -19.412 -24.155  0.00  0.00    +0.002 C 
ENDBRANCH   1  13
TORSDOF 3
ENDMDL
MODEL 2
REMARK VINA RESULT:      -6.1      8.926     10.508
REMARK  Name = 5284583
REMARK  3 active torsions:
REMARK  status: ('A' for Active; 'I' for Inactive)
REMARK    1  A    between atoms: C_1  and  N_3
REMARK    2  A    between atoms: C_1  and  C_10
REMARK    3  A    between atoms: C_1  and  C_13
REMARK                            x       y       z     vdW  Elec       q    Type
REMARK                         _______ _______ _______ _____ _____    ______ ____
ROOT
ATOM      1  C   UNL     1      32.830  -8.104 -21.926  0.00  0.00    +0.151 C 
ENDROOT
BRANCH   1   3
ATOM      2  O   UNL     1      32.187  -8.894 -19.107  0.00  0.00    -0.275 OA
ATOM      3  N   UNL     1      32.149  -9.280 -21.429  0.00  0.00    -0.273 N 
ATOM      4  C   UNL     1      31.554 -10.244 -22.324  0.00  0.00    +0.094 C 
ATOM      5  C   UNL     1      31.292 -11.434 -21.423  0.00  0.00    +0.031 C 
ATOM      6  C   UNL     1      31.043 -10.810 -20.055  0.00  0.00    +0.087 C 
ATOM      7  C   UNL     1      31.875  -9.550 -20.090  0.00  0.00    +0.226 C 
ENDBRANCH   1   3
BRANCH   1  10
ATOM      8  O   UNL     1      31.012  -6.780 -22.849  0.00  0.00    -0.274 OA
ATOM      9  N   UNL     1      31.995  -6.079 -20.895  0.00  0.00    -0.327 N 
ATOM     10  C   UNL     1      31.842  -6.945 -21.957  0.00  0.00    +0.237 C 
ATOM     11  H   UNL     1      31.409  -5.293 -20.814  0.00  0.00    +0.145 HD
ATOM     12  H   UNL     1      32.691  -6.247 -20.219  0.00  0.00    +0.145 HD
ENDBRANCH   1  10
BRANCH   1  13
ATOM     13  C   UNL     1      33.498  -8.351 -23.281  0.00  0.00    +0.029 C 
ATOM     14  C   UNL     1      34.762  -7.530 -23.515  0.00  0.00    +0.002 C 
ENDBRANCH   1  13
TORSDOF 3
ENDMDL
MODEL 3
REMARK VINA RESULT:      -6.0      1.641      2.493
REMARK  Name = 5284583
REMARK  3 active torsions:
REMARK  status: ('A' for Active; 'I' for Inactive)
REMARK    1  A    between atoms: C_1  and  N_3
REMARK    2  A    between atoms: C_1  and  C_10
REMARK    3  A    between atoms: C_1  and  C_13
REMARK                            x       y       z     vdW  Elec       q    Type
REMARK                         _______ _______ _______ _____ _____    ______ ____
ROOT
ATOM      1  C   UNL     1      34.388 -18.314 -21.692  0.00  0.00    +0.151 C 
ENDROOT
BRANCH   1   3
ATOM      2  O   UNL     1      36.567 -20.011 -20.527  0.00  0.00    -0.275 OA
ATOM      3  N   UNL     1      34.295 -19.515 -20.891  0.00  0.00    -0.273 N 
ATOM      4  C   UNL     1      33.023 -20.020 -20.430  0.00  0.00    +0.094 C 
ATOM      5  C   UNL     1      33.358 -21.425 -19.968  0.00  0.00    +0.031 C 
ATOM      6  C   UNL     1      34.805 -21.321 -19.501  0.00  0.00    +0.087 C 
ATOM      7  C   UNL     1      35.374 -20.226 -20.371  0.00  0.00    +0.226 C 
ENDBRANCH   1   3
BRANCH   1  10
ATOM      8  O   UNL     1      34.656 -19.349 -23.874  0.00  0.00    -0.274 OA
ATOM      9  N   UNL     1      36.390 -18.097 -23.036  0.00  0.00    -0.327 N 
ATOM     10  C   UNL     1      35.125 -18.645 -22.983  0.00  0.00    +0.237 C 
ATOM     11  H   UNL     1      36.957 -18.246 -23.826  0.00  0.00    +0.145 HD
ATOM     12  H   UNL     1      36.725 -17.558 -22.284  0.00  0.00    +0.145 HD
ENDBRANCH   1  10
BRANCH   1  13
ATOM     13  C   UNL     1      35.029 -17.154 -20.923  0.00  0.00    +0.029 C 
ATOM     14  C   UNL     1      34.246 -15.848 -20.995  0.00  0.00    +0.002 C 
ENDBRANCH   1  13
TORSDOF 3
ENDMDL
MODEL 4
REMARK VINA RESULT:      -6.0      1.586      4.015
REMARK  Name = 5284583
REMARK  3 active torsions:
REMARK  status: ('A' for Active; 'I' for Inactive)
REMARK    1  A    between atoms: C_1  and  N_3
REMARK    2  A    between atoms: C_1  and  C_10
REMARK    3  A    between atoms: C_1  and  C_13
REMARK                            x       y       z     vdW  Elec       q    Type
REMARK                         _______ _______ _______ _____ _____    ______ ____
ROOT
ATOM      1  C   UNL     1      35.002 -18.854 -21.272  0.00  0.00    +0.151 C 
ENDROOT
BRANCH   1   3
ATOM      2  O   UNL     1      34.950 -16.057 -22.348  0.00  0.00    -0.275 OA
ATOM      3  N   UNL     1      34.870 -18.392 -22.637  0.00  0.00    -0.273 N 
ATOM      4  C   UNL     1      34.855 -19.312 -23.749  0.00  0.00    +0.094 C 
ATOM      5  C   UNL     1      34.352 -18.458 -24.896  0.00  0.00    +0.031 C 
ATOM      6  C   UNL     1      34.848 -17.057 -24.553  0.00  0.00    +0.087 C 
ATOM      7  C   UNL     1      34.881 -17.060 -23.043  0.00  0.00    +0.226 C 
ENDBRANCH   1   3
BRANCH   1  10
ATOM      8  O   UNL     1      37.390 -18.703 -21.694  0.00  0.00    -0.274 OA
ATOM      9  N   UNL     1      36.676 -19.883 -19.858  0.00  0.00    -0.327 N 
ATOM     10  C   UNL     1      36.475 -19.113 -20.984  0.00  0.00    +0.237 C 
ATOM     11  H   UNL     1      37.590 -20.112 -19.576  0.00  0.00    +0.145 HD
ATOM     12  H   UNL     1      35.904 -20.203 -19.336  0.00  0.00    +0.145 HD
ENDBRANCH   1  10
BRANCH   1  13
ATOM     13  C   UNL     1      34.118 -20.072 -20.986  0.00  0.00    +0.029 C 
ATOM     14  C   UNL     1      32.685 -19.728 -20.597  0.00  0.00    +0.002 C 
ENDBRANCH   1  13
TORSDOF 3
ENDMDL
MODEL 5
REMARK VINA RESULT:      -6.0      2.002      2.942
REMARK  Name = 5284583
REMARK  3 active torsions:
REMARK  status: ('A' for Active; 'I' for Inactive)
REMARK    1  A    between atoms: C_1  and  N_3
REMARK    2  A    between atoms: C_1  and  C_10
REMARK    3  A    between atoms: C_1  and  C_13
REMARK                            x       y       z     vdW  Elec       q    Type
REMARK                         _______ _______ _______ _____ _____    ______ ____
ROOT
ATOM      1  C   UNL     1      34.466 -17.961 -21.708  0.00  0.00    +0.151 C 
ENDROOT
BRANCH   1   3
ATOM      2  O   UNL     1      32.929 -20.230 -20.494  0.00  0.00    -0.275 OA
ATOM      3  N   UNL     1      34.947 -19.130 -21.005  0.00  0.00    -0.273 N 
ATOM      4  C   UNL     1      36.357 -19.417 -20.891  0.00  0.00    +0.094 C 
ATOM      5  C   UNL     1      36.406 -20.482 -19.813  0.00  0.00    +0.031 C 
ATOM      6  C   UNL     1      35.079 -21.217 -19.964  0.00  0.00    +0.087 C 
ATOM      7  C   UNL     1      34.149 -20.150 -20.493  0.00  0.00    +0.226 C 
ENDBRANCH   1   3
BRANCH   1  10
ATOM      8  O   UNL     1      34.609 -18.994 -23.903  0.00  0.00    -0.274 OA
ATOM      9  N   UNL     1      35.677 -16.989 -23.565  0.00  0.00    -0.327 N 
ATOM     10  C   UNL     1      34.898 -18.054 -23.165  0.00  0.00    +0.237 C 
ATOM     11  H   UNL     1      36.014 -16.945 -24.488  0.00  0.00    +0.145 HD
ATOM     12  H   UNL     1      35.897 -16.273 -22.926  0.00  0.00    +0.145 HD
ENDBRANCH   1  10
BRANCH   1  13
ATOM     13  C   UNL     1      34.914 -16.658 -21.038  0.00  0.00    +0.029 C 
ATOM     14  C   UNL     1      33.797 -15.638 -20.844  0.00  0.00    +0.002 C 
ENDBRANCH   1  13
TORSDOF 3
ENDMDL
MODEL 6
REMARK VINA RESULT:      -5.8      9.109     10.741
REMARK  Name = 5284583
REMARK  3 active torsions:
REMARK  status: ('A' for Active; 'I' for Inactive)
REMARK    1  A    between atoms: C_1  and  N_3
REMARK    2  A    between atoms: C_1  and  C_10
REMARK    3  A    between atoms: C_1  and  C_13
REMARK                            x       y       z     vdW  Elec       q    Type
REMARK                         _______ _______ _______ _____ _____    ______ ____
ROOT
ATOM      1  C   UNL     1      35.723 -23.976 -12.705  0.00  0.00    +0.151 C 
ENDROOT
BRANCH   1   3
ATOM      2  O   UNL     1      37.723 -22.915 -14.670  0.00  0.00    -0.275 OA
ATOM      3  N   UNL     1      36.752 -24.675 -13.444  0.00  0.00    -0.273 N 
ATOM      4  C   UNL     1      37.027 -26.074 -13.218  0.00  0.00    +0.094 C 
ATOM      5  C   UNL     1      37.881 -26.454 -14.412  0.00  0.00    +0.031 C 
ATOM      6  C   UNL     1      38.619 -25.166 -14.758  0.00  0.00    +0.087 C 
ATOM      7  C   UNL     1      37.656 -24.086 -14.325  0.00  0.00    +0.226 C 
ENDBRANCH   1   3
BRANCH   1  10
ATOM      8  O   UNL     1      35.255 -24.993 -10.548  0.00  0.00    -0.274 OA
ATOM      9  N   UNL     1      36.960 -23.461 -10.689  0.00  0.00    -0.327 N 
ATOM     10  C   UNL     1      35.938 -24.221 -11.217  0.00  0.00    +0.237 C 
ATOM     11  H   UNL     1      37.188 -23.539  -9.735  0.00  0.00    +0.145 HD
ATOM     12  H   UNL     1      37.462 -22.841 -11.267  0.00  0.00    +0.145 HD
ENDBRANCH   1  10
BRANCH   1  13
ATOM     13  C   UNL     1      34.315 -24.356 -13.173  0.00  0.00    +0.029 C 
ATOM     14  C   UNL     1      33.978 -23.892 -14.585  0.00  0.00    +0.002 C 
ENDBRANCH   1  13
TORSDOF 3
ENDMDL
MODEL 7
REMARK VINA RESULT:      -5.8      9.810     10.882
REMARK  Name = 5284583
REMARK  3 active torsions:
REMARK  status: ('A' for Active; 'I' for Inactive)
REMARK    1  A    between atoms: C_1  and  N_3
REMARK    2  A    between atoms: C_1  and  C_10
REMARK    3  A    between atoms: C_1  and  C_13
REMARK                            x       y       z     vdW  Elec       q    Type
REMARK                         _______ _______ _______ _____ _____    ______ ____
ROOT
ATOM      1  C   UNL     1      36.401 -23.539 -12.804  0.00  0.00    +0.151 C 
ENDROOT
BRANCH   1   3
ATOM      2  O   UNL     1      36.923 -26.376 -11.993  0.00  0.00    -0.275 OA
ATOM      3  N   UNL     1      37.119 -24.582 -13.504  0.00  0.00    -0.273 N 
ATOM      4  C   UNL     1      37.621 -24.387 -14.843  0.00  0.00    +0.094 C 
ATOM      5  C   UNL     1      38.578 -25.549 -15.025  0.00  0.00    +0.031 C 
ATOM      6  C   UNL     1      37.983 -26.651 -14.156  0.00  0.00    +0.087 C 
ATOM      7  C   UNL     1      37.290 -25.888 -13.052  0.00  0.00    +0.226 C 
ENDBRANCH   1   3
BRANCH   1  10
ATOM      8  O   UNL     1      38.261 -22.527 -11.612  0.00  0.00    -0.274 OA
ATOM      9  N   UNL     1      36.618 -23.571 -10.394  0.00  0.00    -0.327 N 
ATOM     10  C   UNL     1      37.198 -23.141 -11.569  0.00  0.00    +0.237 C 
ATOM     11  H   UNL     1      37.048 -23.370  -9.532  0.00  0.00    +0.145 HD
ATOM     12  H   UNL     1      35.775 -24.079 -10.417  0.00  0.00    +0.145 HD
ENDBRANCH   1  10
BRANCH   1  13
ATOM     13  C   UNL     1      34.961 -23.947 -12.477  0.00  0.00    +0.029 C 
ATOM     14  C   UNL     1      34.062 -24.104 -13.698  0.00  0.00    +0.002 C 
ENDBRANCH   1  13
TORSDOF 3
ENDMDL
MODEL 8
REMARK VINA RESULT:      -5.8      2.494      4.549
REMARK  Name = 5284583
REMARK  3 active torsions:
REMARK  status: ('A' for Active; 'I' for Inactive)
REMARK    1  A    between atoms: C_1  and  N_3
REMARK    2  A    between atoms: C_1  and  C_10
REMARK    3  A    between atoms: C_1  and  C_13
REMARK                            x       y       z     vdW  Elec       q    Type
REMARK                         _______ _______ _______ _____ _____    ______ ____
ROOT
ATOM      1  C   UNL     1      34.324 -16.981 -22.284  0.00  0.00    +0.151 C 
ENDROOT
BRANCH   1   3
ATOM      2  O   UNL     1      31.918 -15.758 -20.982  0.00  0.00    -0.275 OA
ATOM      3  N   UNL     1      33.779 -15.648 -22.420  0.00  0.00    -0.273 N 
ATOM      4  C   UNL     1      34.454 -14.628 -23.186  0.00  0.00    +0.094 C 
ATOM      5  C   UNL     1      33.391 -13.561 -23.351  0.00  0.00    +0.031 C 
ATOM      6  C   UNL     1      32.538 -13.696 -22.095  0.00  0.00    +0.087 C 
ATOM      7  C   UNL     1      32.659 -15.162 -21.749  0.00  0.00    +0.226 C 
ENDBRANCH   1   3
BRANCH   1  10
ATOM      8  O   UNL     1      35.137 -16.148 -20.151  0.00  0.00    -0.274 OA
ATOM      9  N   UNL     1      35.714 -18.279 -20.786  0.00  0.00    -0.327 N 
ATOM     10  C   UNL     1      35.077 -17.068 -20.963  0.00  0.00    +0.237 C 
ATOM     11  H   UNL     1      36.231 -18.446 -19.966  0.00  0.00    +0.145 HD
ATOM     12  H   UNL     1      35.650 -18.975 -21.479  0.00  0.00    +0.145 HD
ENDBRANCH   1  10
BRANCH   1  13
ATOM     13  C   UNL     1      35.186 -17.378 -23.486  0.00  0.00    +0.029 C 
ATOM     14  C   UNL     1      34.655 -18.575 -24.268  0.00  0.00    +0.002 C 
ENDBRANCH   1  13
TORSDOF 3
ENDMDL
MODEL 9
REMARK VINA RESULT:      -5.7      7.557     10.014
REMARK  Name = 5284583
REMARK  3 active torsions:
REMARK  status: ('A' for Active; 'I' for Inactive)
REMARK    1  A    between atoms: C_1  and  N_3
REMARK    2  A    between atoms: C_1  and  C_10
REMARK    3  A    between atoms: C_1  and  C_13
REMARK                            x       y       z     vdW  Elec       q    Type
REMARK                         _______ _______ _______ _____ _____    ______ ____
ROOT
ATOM      1  C   UNL     1      37.687 -24.792 -13.883  0.00  0.00    +0.151 C 
ENDROOT
BRANCH   1   3
ATOM      2  O   UNL     1      37.876 -22.413 -15.696  0.00  0.00    -0.275 OA
ATOM      3  N   UNL     1      36.680 -24.199 -14.736  0.00  0.00    -0.273 N 
ATOM      4  C   UNL     1      35.381 -24.805 -14.908  0.00  0.00    +0.094 C 
ATOM      5  C   UNL     1      34.570 -23.702 -15.559  0.00  0.00    +0.031 C 
ATOM      6  C   UNL     1      35.599 -22.915 -16.361  0.00  0.00    +0.087 C 
ATOM      7  C   UNL     1      36.872 -23.097 -15.567  0.00  0.00    +0.226 C 
ENDBRANCH   1   3
BRANCH   1  10
ATOM      8  O   UNL     1      38.218 -27.020 -14.693  0.00  0.00    -0.274 OA
ATOM      9  N   UNL     1      39.514 -25.260 -15.400  0.00  0.00    -0.327 N 
ATOM     10  C   UNL     1      38.470 -25.817 -14.692  0.00  0.00    +0.237 C 
ATOM     11  H   UNL     1      40.088 -25.831 -15.959  0.00  0.00    +0.145 HD
ATOM     12  H   UNL     1      39.684 -24.292 -15.346  0.00  0.00    +0.145 HD
ENDBRANCH   1  10
BRANCH   1  13
ATOM     13  C   UNL     1      37.086 -25.378 -12.602  0.00  0.00    +0.029 C 
ATOM     14  C   UNL     1      36.682 -24.335 -11.566  0.00  0.00    +0.002 C 
ENDBRANCH   1  13
TORSDOF 3
ENDMDL
