MODEL 1
REMARK VINA RESULT:     -12.7      0.000      0.000
REMARK  Name = 44141871
REMARK  6 active torsions:
REMARK  status: ('A' for Active; 'I' for Inactive)
REMARK    1  A    between atoms: C_1  and  C_10
REMARK    2  A    between atoms: C_4  and  O_20
REMARK    3  A    between atoms: C_9  and  C_13
REMARK    4  A    between atoms: C_13  and  C_15
REMARK    5  A    between atoms: O_20  and  C_21
REMARK    6  A    between atoms: C_21  and  C_23
REMARK                            x       y       z     vdW  Elec       q    Type
REMARK                         _______ _______ _______ _____ _____    ______ ____
ROOT
ATOM      1  C   UNL     1      34.792 -18.969 -22.230  0.00  0.00    +0.015 C 
ATOM      2  C   UNL     1      33.627 -19.506 -21.682  0.00  0.00    +0.004 C 
ATOM      3  C   UNL     1      36.033 -19.296 -21.684  0.00  0.00    +0.004 C 
ATOM      4  C   UNL     1      34.944 -20.698 -20.044  0.00  0.00    +0.139 C 
ATOM      5  C   UNL     1      33.703 -20.371 -20.590  0.00  0.00    +0.037 C 
ATOM      6  C   UNL     1      36.109 -20.161 -20.592  0.00  0.00    +0.037 C 
ENDROOT
BRANCH   1  10
ATOM      7  N   UNL     1      34.558 -18.521 -24.638  0.00  0.00    -0.236 N 
ATOM      8  N   UNL     1      34.507 -17.537 -25.553  0.00  0.00    -0.180 NA
ATOM      9  C   UNL     1      34.767 -16.706 -23.441  0.00  0.00    +0.018 C 
ATOM     10  C   UNL     1      34.713 -18.076 -23.359  0.00  0.00    +0.063 C 
ATOM     11  C   UNL     1      34.635 -16.430 -24.816  0.00  0.00    +0.115 C 
ATOM     12  H   UNL     1      34.490 -19.475 -24.871  0.00  0.00    +0.174 HD
BRANCH   9  13
ATOM     13  C   UNL     1      34.927 -15.733 -22.347  0.00  0.00    +0.056 C 
BRANCH  13  15
ATOM     14  N   UNL     1      32.151 -12.427 -22.467  0.00  0.00    -0.242 NA
ATOM     15  C   UNL     1      33.948 -14.567 -22.389  0.00  0.00    -0.015 C 
ATOM     16  C   UNL     1      34.028 -13.625 -23.409  0.00  0.00    +0.017 C 
ATOM     17  C   UNL     1      32.970 -14.440 -21.409  0.00  0.00    +0.017 C 
ATOM     18  C   UNL     1      33.115 -12.583 -23.403  0.00  0.00    +0.099 C 
ATOM     19  C   UNL     1      32.104 -13.362 -21.492  0.00  0.00    +0.099 C 
ENDBRANCH  13  15
ENDBRANCH   9  13
ENDBRANCH   1  10
BRANCH   4  20
ATOM     20  O   UNL     1      35.019 -21.549 -18.974  0.00  0.00    -0.468 OA
BRANCH  20  21
ATOM     21  C   UNL     1      34.199 -22.710 -19.019  0.00  0.00    +0.264 C 
BRANCH  21  23
ATOM     22  N   UNL     1      32.237 -22.871 -17.610  0.00  0.00    -0.406 NA
ATOM     23  C   UNL     1      33.587 -22.936 -17.677  0.00  0.00    +0.152 C 
ATOM     24  C   UNL     1      32.399 -23.341 -15.253  0.00  0.00    +0.026 C 
ATOM     25  C   UNL     1      31.649 -23.071 -16.416  0.00  0.00    +0.113 C 
ATOM     26  C   UNL     1      34.404 -23.194 -16.596  0.00  0.00    +0.031 C 
ATOM     27  C   UNL     1      33.794 -23.399 -15.366  0.00  0.00    +0.005 C 
ATOM     28  C   UNL     1      31.751 -23.544 -14.022  0.00  0.00    +0.002 C 
ATOM     29  C   UNL     1      30.262 -23.013 -16.303  0.00  0.00    +0.085 C 
ATOM     30  C   UNL     1      30.363 -23.480 -13.937  0.00  0.00    -0.004 C 
ATOM     31  C   UNL     1      29.618 -23.215 -15.079  0.00  0.00    -0.019 C 
ENDBRANCH  21  23
ENDBRANCH  20  21
ENDBRANCH   4  20
TORSDOF 6
ENDMDL
MODEL 2
REMARK VINA RESULT:     -12.4      3.695     10.919
REMARK  Name = 44141871
REMARK  6 active torsions:
REMARK  status: ('A' for Active; 'I' for Inactive)
REMARK    1  A    between atoms: C_1  and  C_10
REMARK    2  A    between atoms: C_4  and  O_20
REMARK    3  A    between atoms: C_9  and  C_13
REMARK    4  A    between atoms: C_13  and  C_15
REMARK    5  A    between atoms: O_20  and  C_21
REMARK    6  A    between atoms: C_21  and  C_23
REMARK                            x       y       z     vdW  Elec       q    Type
REMARK                         _______ _______ _______ _____ _____    ______ ____
ROOT
ATOM      1  C   UNL     1      33.730 -15.694 -22.688  0.00  0.00    +0.015 C 
ATOM      2  C   UNL     1      33.461 -15.824 -21.326  0.00  0.00    +0.004 C 
ATOM      3  C   UNL     1      33.480 -14.484 -23.335  0.00  0.00    +0.004 C 
ATOM      4  C   UNL     1      32.695 -13.534 -21.257  0.00  0.00    +0.139 C 
ATOM      5  C   UNL     1      32.944 -14.744 -20.610  0.00  0.00    +0.037 C 
ATOM      6  C   UNL     1      32.964 -13.404 -22.620  0.00  0.00    +0.037 C 
ENDROOT
BRANCH   1  10
ATOM      7  N   UNL     1      34.031 -16.991 -24.758  0.00  0.00    -0.236 N 
ATOM      8  N   UNL     1      34.614 -18.091 -25.268  0.00  0.00    -0.180 NA
ATOM      9  C   UNL     1      35.053 -17.866 -23.037  0.00  0.00    +0.018 C 
ATOM     10  C   UNL     1      34.264 -16.811 -23.427  0.00  0.00    +0.063 C 
ATOM     11  C   UNL     1      35.236 -18.621 -24.212  0.00  0.00    +0.115 C 
ATOM     12  H   UNL     1      33.488 -16.372 -25.297  0.00  0.00    +0.174 HD
BRANCH   9  13
ATOM     13  C   UNL     1      35.592 -18.155 -21.697  0.00  0.00    +0.056 C 
BRANCH  13  15
ATOM     14  N   UNL     1      33.717 -21.489 -19.691  0.00  0.00    -0.242 NA
ATOM     15  C   UNL     1      34.930 -19.331 -20.990  0.00  0.00    -0.015 C 
ATOM     16  C   UNL     1      35.712 -20.313 -20.390  0.00  0.00    +0.017 C 
ATOM     17  C   UNL     1      33.545 -19.426 -20.941  0.00  0.00    +0.017 C 
ATOM     18  C   UNL     1      35.062 -21.362 -19.759  0.00  0.00    +0.099 C 
ATOM     19  C   UNL     1      32.992 -20.515 -20.285  0.00  0.00    +0.099 C 
ENDBRANCH  13  15
ENDBRANCH   9  13
ENDBRANCH   1  10
BRANCH   4  20
ATOM     20  O   UNL     1      32.190 -12.472 -20.555  0.00  0.00    -0.468 OA
BRANCH  20  21
ATOM     21  C   UNL     1      31.083 -11.791 -21.130  0.00  0.00    +0.264 C 
BRANCH  21  23
ATOM     22  N   UNL     1      31.206  -9.797 -22.497  0.00  0.00    -0.406 NA
ATOM     23  C   UNL     1      31.413 -10.343 -21.277  0.00  0.00    +0.152 C 
ATOM     24  C   UNL     1      31.997  -7.698 -21.619  0.00  0.00    +0.026 C 
ATOM     25  C   UNL     1      31.493  -8.493 -22.669  0.00  0.00    +0.113 C 
ATOM     26  C   UNL     1      31.903  -9.646 -20.191  0.00  0.00    +0.031 C 
ATOM     27  C   UNL     1      32.198  -8.303 -20.371  0.00  0.00    +0.005 C 
ATOM     28  C   UNL     1      32.285  -6.339 -21.834  0.00  0.00    +0.002 C 
ATOM     29  C   UNL     1      31.293  -7.891 -23.909  0.00  0.00    +0.085 C 
ATOM     30  C   UNL     1      32.077  -5.763 -23.084  0.00  0.00    -0.004 C 
ATOM     31  C   UNL     1      31.580  -6.541 -24.122  0.00  0.00    -0.019 C 
ENDBRANCH  21  23
ENDBRANCH  20  21
ENDBRANCH   4  20
TORSDOF 6
ENDMDL
MODEL 3
REMARK VINA RESULT:     -12.2      2.129      9.930
REMARK  Name = 44141871
REMARK  6 active torsions:
REMARK  status: ('A' for Active; 'I' for Inactive)
REMARK    1  A    between atoms: C_1  and  C_10
REMARK    2  A    between atoms: C_4  and  O_20
REMARK    3  A    between atoms: C_9  and  C_13
REMARK    4  A    between atoms: C_13  and  C_15
REMARK    5  A    between atoms: O_20  and  C_21
REMARK    6  A    between atoms: C_21  and  C_23
REMARK                            x       y       z     vdW  Elec       q    Type
REMARK                         _______ _______ _______ _____ _____    ______ ____
ROOT
ATOM      1  C   UNL     1      34.642 -22.893 -16.996  0.00  0.00    +0.015 C 
ATOM      2  C   UNL     1      33.626 -22.808 -17.948  0.00  0.00    +0.004 C 
ATOM      3  C   UNL     1      35.887 -22.317 -17.253  0.00  0.00    +0.004 C 
ATOM      4  C   UNL     1      35.097 -21.569 -19.411  0.00  0.00    +0.139 C 
ATOM      5  C   UNL     1      33.853 -22.146 -19.154  0.00  0.00    +0.037 C 
ATOM      6  C   UNL     1      36.114 -21.655 -18.460  0.00  0.00    +0.037 C 
ENDROOT
BRANCH   1  10
ATOM      7  N   UNL     1      35.240 -24.546 -15.274  0.00  0.00    -0.236 N 
ATOM      8  N   UNL     1      34.852 -25.067 -14.096  0.00  0.00    -0.180 NA
ATOM      9  C   UNL     1      33.403 -23.455 -14.819  0.00  0.00    +0.018 C 
ATOM     10  C   UNL     1      34.407 -23.577 -15.749  0.00  0.00    +0.063 C 
ATOM     11  C   UNL     1      33.730 -24.396 -13.823  0.00  0.00    +0.115 C 
ATOM     12  H   UNL     1      36.052 -24.838 -15.748  0.00  0.00    +0.174 HD
BRANCH   9  13
ATOM     13  C   UNL     1      32.242 -22.549 -14.845  0.00  0.00    +0.056 C 
BRANCH  13  15
ATOM     14  N   UNL     1      28.554 -24.398 -16.121  0.00  0.00    -0.242 NA
ATOM     15  C   UNL     1      30.941 -23.201 -15.296  0.00  0.00    -0.015 C 
ATOM     16  C   UNL     1      30.447 -24.311 -14.619  0.00  0.00    +0.017 C 
ATOM     17  C   UNL     1      30.244 -22.689 -16.384  0.00  0.00    +0.017 C 
ATOM     18  C   UNL     1      29.260 -24.867 -15.068  0.00  0.00    +0.099 C 
ATOM     19  C   UNL     1      29.066 -23.318 -16.753  0.00  0.00    +0.099 C 
ENDBRANCH  13  15
ENDBRANCH   9  13
ENDBRANCH   1  10
BRANCH   4  20
ATOM     20  O   UNL     1      35.319 -20.917 -20.594  0.00  0.00    -0.468 OA
BRANCH  20  21
ATOM     21  C   UNL     1      36.225 -19.821 -20.561  0.00  0.00    +0.264 C 
BRANCH  21  23
ATOM     22  N   UNL     1      35.357 -17.573 -20.795  0.00  0.00    -0.406 NA
ATOM     23  C   UNL     1      35.703 -18.720 -21.423  0.00  0.00    +0.152 C 
ATOM     24  C   UNL     1      34.739 -16.664 -22.938  0.00  0.00    +0.026 C 
ATOM     25  C   UNL     1      34.882 -16.558 -21.539  0.00  0.00    +0.113 C 
ATOM     26  C   UNL     1      35.598 -18.918 -22.784  0.00  0.00    +0.031 C 
ATOM     27  C   UNL     1      35.108 -17.870 -23.550  0.00  0.00    +0.005 C 
ATOM     28  C   UNL     1      34.240 -15.583 -23.685  0.00  0.00    +0.002 C 
ATOM     29  C   UNL     1      34.515 -15.359 -20.933  0.00  0.00    +0.085 C 
ATOM     30  C   UNL     1      33.880 -14.396 -23.052  0.00  0.00    -0.004 C 
ATOM     31  C   UNL     1      34.019 -14.284 -21.675  0.00  0.00    -0.019 C 
ENDBRANCH  21  23
ENDBRANCH  20  21
ENDBRANCH   4  20
TORSDOF 6
ENDMDL
MODEL 4
REMARK VINA RESULT:     -12.2      2.541      3.700
REMARK  Name = 44141871
REMARK  6 active torsions:
REMARK  status: ('A' for Active; 'I' for Inactive)
REMARK    1  A    between atoms: C_1  and  C_10
REMARK    2  A    between atoms: C_4  and  O_20
REMARK    3  A    between atoms: C_9  and  C_13
REMARK    4  A    between atoms: C_13  and  C_15
REMARK    5  A    between atoms: O_20  and  C_21
REMARK    6  A    between atoms: C_21  and  C_23
REMARK                            x       y       z     vdW  Elec       q    Type
REMARK                         _______ _______ _______ _____ _____    ______ ____
ROOT
ATOM      1  C   UNL     1      35.068 -19.655 -21.478  0.00  0.00    +0.015 C 
ATOM      2  C   UNL     1      33.953 -20.259 -20.897  0.00  0.00    +0.004 C 
ATOM      3  C   UNL     1      36.340 -19.895 -20.958  0.00  0.00    +0.004 C 
ATOM      4  C   UNL     1      35.382 -21.342 -19.277  0.00  0.00    +0.139 C 
ATOM      5  C   UNL     1      34.110 -21.102 -19.797  0.00  0.00    +0.037 C 
ATOM      6  C   UNL     1      36.497 -20.738 -19.858  0.00  0.00    +0.037 C 
ENDROOT
BRANCH   1  10
ATOM      7  N   UNL     1      34.790 -19.254 -23.890  0.00  0.00    -0.236 N 
ATOM      8  N   UNL     1      34.647 -18.287 -24.814  0.00  0.00    -0.180 NA
ATOM      9  C   UNL     1      34.834 -17.415 -22.711  0.00  0.00    +0.018 C 
ATOM     10  C   UNL     1      34.905 -18.784 -22.615  0.00  0.00    +0.063 C 
ATOM     11  C   UNL     1      34.675 -17.167 -24.088  0.00  0.00    +0.115 C 
ATOM     12  H   UNL     1      34.808 -20.212 -24.114  0.00  0.00    +0.174 HD
BRANCH   9  13
ATOM     13  C   UNL     1      34.907 -16.421 -21.626  0.00  0.00    +0.056 C 
BRANCH  13  15
ATOM     14  N   UNL     1      32.463 -12.915 -22.242  0.00  0.00    -0.242 NA
ATOM     15  C   UNL     1      34.045 -15.184 -21.843  0.00  0.00    -0.015 C 
ATOM     16  C   UNL     1      33.005 -14.897 -20.966  0.00  0.00    +0.017 C 
ATOM     17  C   UNL     1      34.294 -14.340 -22.919  0.00  0.00    +0.017 C 
ATOM     18  C   UNL     1      32.250 -13.760 -21.208  0.00  0.00    +0.099 C 
ATOM     19  C   UNL     1      33.482 -13.228 -23.072  0.00  0.00    +0.099 C 
ENDBRANCH  13  15
ENDBRANCH   9  13
ENDBRANCH   1  10
BRANCH   4  20
ATOM     20  O   UNL     1      35.537 -22.172 -18.199  0.00  0.00    -0.468 OA
BRANCH  20  21
ATOM     21  C   UNL     1      36.645 -21.916 -17.346  0.00  0.00    +0.264 C 
BRANCH  21  23
ATOM     22  N   UNL     1      37.627 -23.429 -15.733  0.00  0.00    -0.406 NA
ATOM     23  C   UNL     1      36.523 -22.746 -16.112  0.00  0.00    +0.152 C 
ATOM     24  C   UNL     1      36.373 -24.287 -13.864  0.00  0.00    +0.026 C 
ATOM     25  C   UNL     1      37.556 -24.190 -14.625  0.00  0.00    +0.113 C 
ATOM     26  C   UNL     1      35.322 -22.779 -15.434  0.00  0.00    +0.031 C 
ATOM     27  C   UNL     1      35.252 -23.564 -14.292  0.00  0.00    +0.005 C 
ATOM     28  C   UNL     1      36.335 -25.090 -12.711  0.00  0.00    +0.002 C 
ATOM     29  C   UNL     1      38.670 -24.909 -14.198  0.00  0.00    +0.085 C 
ATOM     30  C   UNL     1      37.463 -25.799 -12.308  0.00  0.00    -0.004 C 
ATOM     31  C   UNL     1      38.632 -25.708 -13.053  0.00  0.00    -0.019 C 
ENDBRANCH  21  23
ENDBRANCH  20  21
ENDBRANCH   4  20
TORSDOF 6
ENDMDL
MODEL 5
REMARK VINA RESULT:     -12.1      5.461      9.971
REMARK  Name = 44141871
REMARK  6 active torsions:
REMARK  status: ('A' for Active; 'I' for Inactive)
REMARK    1  A    between atoms: C_1  and  C_10
REMARK    2  A    between atoms: C_4  and  O_20
REMARK    3  A    between atoms: C_9  and  C_13
REMARK    4  A    between atoms: C_13  and  C_15
REMARK    5  A    between atoms: O_20  and  C_21
REMARK    6  A    between atoms: C_21  and  C_23
REMARK                            x       y       z     vdW  Elec       q    Type
REMARK                         _______ _______ _______ _____ _____    ______ ____
ROOT
ATOM      1  C   UNL     1      32.289  -9.648 -21.792  0.00  0.00    +0.015 C 
ATOM      2  C   UNL     1      32.992  -9.915 -22.967  0.00  0.00    +0.004 C 
ATOM      3  C   UNL     1      31.582 -10.669 -21.156  0.00  0.00    +0.004 C 
ATOM      4  C   UNL     1      32.280 -12.222 -22.871  0.00  0.00    +0.139 C 
ATOM      5  C   UNL     1      32.987 -11.201 -23.506  0.00  0.00    +0.037 C 
ATOM      6  C   UNL     1      31.578 -11.955 -21.695  0.00  0.00    +0.037 C 
ENDROOT
BRANCH   1  10
ATOM      7  N   UNL     1      32.928  -8.013 -20.066  0.00  0.00    -0.236 N 
ATOM      8  N   UNL     1      32.818  -6.721 -19.710  0.00  0.00    -0.180 NA
ATOM      9  C   UNL     1      31.730  -7.145 -21.674  0.00  0.00    +0.018 C 
ATOM     10  C   UNL     1      32.294  -8.318 -21.234  0.00  0.00    +0.063 C 
ATOM     11  C   UNL     1      32.086  -6.196 -20.695  0.00  0.00    +0.115 C 
ATOM     12  H   UNL     1      33.421  -8.678 -19.532  0.00  0.00    +0.174 HD
BRANCH   9  13
ATOM     13  C   UNL     1      30.931  -6.918 -22.890  0.00  0.00    +0.056 C 
BRANCH  13  15
ATOM     14  N   UNL     1      32.951  -4.656 -25.965  0.00  0.00    -0.242 NA
ATOM     15  C   UNL     1      31.643  -6.120 -23.974  0.00  0.00    -0.015 C 
ATOM     16  C   UNL     1      31.031  -5.005 -24.536  0.00  0.00    +0.017 C 
ATOM     17  C   UNL     1      32.908  -6.503 -24.406  0.00  0.00    +0.017 C 
ATOM     18  C   UNL     1      31.720  -4.314 -25.520  0.00  0.00    +0.099 C 
ATOM     19  C   UNL     1      33.514  -5.745 -25.395  0.00  0.00    +0.099 C 
ENDBRANCH  13  15
ENDBRANCH   9  13
ENDBRANCH   1  10
BRANCH   4  20
ATOM     20  O   UNL     1      32.279 -13.485 -23.398  0.00  0.00    -0.468 OA
BRANCH  20  21
ATOM     21  C   UNL     1      33.264 -13.771 -24.382  0.00  0.00    +0.264 C 
BRANCH  21  23
ATOM     22  N   UNL     1      34.071 -15.515 -22.911  0.00  0.00    -0.406 NA
ATOM     23  C   UNL     1      33.779 -15.157 -24.182  0.00  0.00    +0.152 C 
ATOM     24  C   UNL     1      34.726 -17.679 -23.741  0.00  0.00    +0.026 C 
ATOM     25  C   UNL     1      34.538 -16.758 -22.690  0.00  0.00    +0.113 C 
ATOM     26  C   UNL     1      33.930 -15.987 -25.273  0.00  0.00    +0.031 C 
ATOM     27  C   UNL     1      34.412 -17.268 -25.044  0.00  0.00    +0.005 C 
ATOM     28  C   UNL     1      35.215 -18.970 -23.475  0.00  0.00    +0.002 C 
ATOM     29  C   UNL     1      34.851 -17.167 -21.397  0.00  0.00    +0.085 C 
ATOM     30  C   UNL     1      35.520 -19.352 -22.172  0.00  0.00    -0.004 C 
ATOM     31  C   UNL     1      35.337 -18.450 -21.131  0.00  0.00    -0.019 C 
ENDBRANCH  21  23
ENDBRANCH  20  21
ENDBRANCH   4  20
TORSDOF 6
ENDMDL
MODEL 6
REMARK VINA RESULT:     -12.0      2.474      3.752
REMARK  Name = 44141871
REMARK  6 active torsions:
REMARK  status: ('A' for Active; 'I' for Inactive)
REMARK    1  A    between atoms: C_1  and  C_10
REMARK    2  A    between atoms: C_4  and  O_20
REMARK    3  A    between atoms: C_9  and  C_13
REMARK    4  A    between atoms: C_13  and  C_15
REMARK    5  A    between atoms: O_20  and  C_21
REMARK    6  A    between atoms: C_21  and  C_23
REMARK                            x       y       z     vdW  Elec       q    Type
REMARK                         _______ _______ _______ _____ _____    ______ ____
ROOT
ATOM      1  C   UNL     1      34.406 -16.482 -23.417  0.00  0.00    +0.015 C 
ATOM      2  C   UNL     1      34.497 -15.982 -22.118  0.00  0.00    +0.004 C 
ATOM      3  C   UNL     1      34.849 -17.775 -23.699  0.00  0.00    +0.004 C 
ATOM      4  C   UNL     1      35.472 -18.067 -21.383  0.00  0.00    +0.139 C 
ATOM      5  C   UNL     1      35.030 -16.775 -21.102  0.00  0.00    +0.037 C 
ATOM      6  C   UNL     1      35.381 -18.567 -22.682  0.00  0.00    +0.037 C 
ENDROOT
BRANCH   1  10
ATOM      7  N   UNL     1      34.019 -15.954 -25.790  0.00  0.00    -0.236 N 
ATOM      8  N   UNL     1      33.433 -15.071 -26.618  0.00  0.00    -0.180 NA
ATOM      9  C   UNL     1      33.109 -14.509 -24.426  0.00  0.00    +0.018 C 
ATOM     10  C   UNL     1      33.855 -15.663 -24.468  0.00  0.00    +0.063 C 
ATOM     11  C   UNL     1      32.878 -14.191 -25.779  0.00  0.00    +0.115 C 
ATOM     12  H   UNL     1      34.521 -16.738 -26.109  0.00  0.00    +0.174 HD
BRANCH   9  13
ATOM     13  C   UNL     1      32.649 -13.764 -23.243  0.00  0.00    +0.056 C 
BRANCH  13  15
ATOM     14  N   UNL     1      33.340  -9.505 -23.426  0.00  0.00    -0.242 NA
ATOM     15  C   UNL     1      32.892 -12.262 -23.307  0.00  0.00    -0.015 C 
ATOM     16  C   UNL     1      33.911 -11.754 -24.107  0.00  0.00    +0.017 C 
ATOM     17  C   UNL     1      32.098 -11.393 -22.567  0.00  0.00    +0.017 C 
ATOM     18  C   UNL     1      34.092 -10.380 -24.131  0.00  0.00    +0.099 C 
ATOM     19  C   UNL     1      32.360 -10.036 -22.660  0.00  0.00    +0.099 C 
ENDBRANCH  13  15
ENDBRANCH   9  13
ENDBRANCH   1  10
BRANCH   4  20
ATOM     20  O   UNL     1      35.992 -18.846 -20.385  0.00  0.00    -0.468 OA
BRANCH  20  21
ATOM     21  C   UNL     1      36.207 -20.219 -20.688  0.00  0.00    +0.264 C 
BRANCH  21  23
ATOM     22  N   UNL     1      36.641 -21.206 -18.521  0.00  0.00    -0.406 NA
ATOM     23  C   UNL     1      35.761 -21.057 -19.538  0.00  0.00    +0.152 C 
ATOM     24  C   UNL     1      35.011 -22.580 -17.399  0.00  0.00    +0.026 C 
ATOM     25  C   UNL     1      36.274 -21.956 -17.466  0.00  0.00    +0.113 C 
ATOM     26  C   UNL     1      34.505 -21.628 -19.563  0.00  0.00    +0.031 C 
ATOM     27  C   UNL     1      34.129 -22.401 -18.474  0.00  0.00    +0.005 C 
ATOM     28  C   UNL     1      34.661 -23.356 -16.281  0.00  0.00    +0.002 C 
ATOM     29  C   UNL     1      37.150 -22.135 -16.398  0.00  0.00    +0.085 C 
ATOM     30  C   UNL     1      35.556 -23.518 -15.228  0.00  0.00    -0.004 C 
ATOM     31  C   UNL     1      36.802 -22.906 -15.286  0.00  0.00    -0.019 C 
ENDBRANCH  21  23
ENDBRANCH  20  21
ENDBRANCH   4  20
TORSDOF 6
ENDMDL
MODEL 7
REMARK VINA RESULT:     -12.0      1.916      3.176
REMARK  Name = 44141871
REMARK  6 active torsions:
REMARK  status: ('A' for Active; 'I' for Inactive)
REMARK    1  A    between atoms: C_1  and  C_10
REMARK    2  A    between atoms: C_4  and  O_20
REMARK    3  A    between atoms: C_9  and  C_13
REMARK    4  A    between atoms: C_13  and  C_15
REMARK    5  A    between atoms: O_20  and  C_21
REMARK    6  A    between atoms: C_21  and  C_23
REMARK                            x       y       z     vdW  Elec       q    Type
REMARK                         _______ _______ _______ _____ _____    ______ ____
ROOT
ATOM      1  C   UNL     1      34.947 -19.782 -21.358  0.00  0.00    +0.015 C 
ATOM      2  C   UNL     1      36.198 -20.105 -20.831  0.00  0.00    +0.004 C 
ATOM      3  C   UNL     1      33.794 -20.349 -20.815  0.00  0.00    +0.004 C 
ATOM      4  C   UNL     1      35.142 -21.561 -19.218  0.00  0.00    +0.139 C 
ATOM      5  C   UNL     1      36.295 -20.994 -19.761  0.00  0.00    +0.037 C 
ATOM      6  C   UNL     1      33.891 -21.238 -19.745  0.00  0.00    +0.037 C 
ENDROOT
BRANCH   1  10
ATOM      7  N   UNL     1      34.767 -19.278 -23.761  0.00  0.00    -0.236 N 
ATOM      8  N   UNL     1      34.682 -18.272 -24.649  0.00  0.00    -0.180 NA
ATOM      9  C   UNL     1      34.813 -17.489 -22.507  0.00  0.00    +0.018 C 
ATOM     10  C   UNL     1      34.847 -18.862 -22.465  0.00  0.00    +0.063 C 
ATOM     11  C   UNL     1      34.710 -17.182 -23.878  0.00  0.00    +0.115 C 
ATOM     12  H   UNL     1      34.771 -20.227 -24.022  0.00  0.00    +0.174 HD
BRANCH   9  13
ATOM     13  C   UNL     1      34.870 -16.541 -21.381  0.00  0.00    +0.056 C 
BRANCH  13  15
ATOM     14  N   UNL     1      32.399 -13.033 -21.865  0.00  0.00    -0.242 NA
ATOM     15  C   UNL     1      33.998 -15.304 -21.552  0.00  0.00    -0.015 C 
ATOM     16  C   UNL     1      33.012 -15.011 -20.616  0.00  0.00    +0.017 C 
ATOM     17  C   UNL     1      34.186 -14.463 -22.643  0.00  0.00    +0.017 C 
ATOM     18  C   UNL     1      32.246 -13.874 -20.817  0.00  0.00    +0.099 C 
ATOM     19  C   UNL     1      33.367 -13.350 -22.753  0.00  0.00    +0.099 C 
ENDBRANCH  13  15
ENDBRANCH   9  13
ENDBRANCH   1  10
BRANCH   4  20
ATOM     20  O   UNL     1      35.236 -22.431 -18.165  0.00  0.00    -0.468 OA
BRANCH  20  21
ATOM     21  C   UNL     1      34.015 -22.885 -17.596  0.00  0.00    +0.264 C 
BRANCH  21  23
ATOM     22  N   UNL     1      35.537 -23.608 -15.859  0.00  0.00    -0.406 NA
ATOM     23  C   UNL     1      34.256 -23.330 -16.192  0.00  0.00    +0.152 C 
ATOM     24  C   UNL     1      34.772 -24.151 -13.640  0.00  0.00    +0.026 C 
ATOM     25  C   UNL     1      35.794 -24.013 -14.601  0.00  0.00    +0.113 C 
ATOM     26  C   UNL     1      33.190 -23.436 -15.323  0.00  0.00    +0.031 C 
ATOM     27  C   UNL     1      33.458 -23.853 -14.027  0.00  0.00    +0.005 C 
ATOM     28  C   UNL     1      35.076 -24.576 -12.335  0.00  0.00    +0.002 C 
ATOM     29  C   UNL     1      37.099 -24.309 -14.216  0.00  0.00    +0.085 C 
ATOM     30  C   UNL     1      36.390 -24.866 -11.977  0.00  0.00    -0.004 C 
ATOM     31  C   UNL     1      37.403 -24.731 -12.919  0.00  0.00    -0.019 C 
ENDBRANCH  21  23
ENDBRANCH  20  21
ENDBRANCH   4  20
TORSDOF 6
ENDMDL
MODEL 8
REMARK VINA RESULT:     -12.0      1.686      2.264
REMARK  Name = 44141871
REMARK  6 active torsions:
REMARK  status: ('A' for Active; 'I' for Inactive)
REMARK    1  A    between atoms: C_1  and  C_10
REMARK    2  A    between atoms: C_4  and  O_20
REMARK    3  A    between atoms: C_9  and  C_13
REMARK    4  A    between atoms: C_13  and  C_15
REMARK    5  A    between atoms: O_20  and  C_21
REMARK    6  A    between atoms: C_21  and  C_23
REMARK                            x       y       z     vdW  Elec       q    Type
REMARK                         _______ _______ _______ _____ _____    ______ ____
ROOT
ATOM      1  C   UNL     1      34.828 -19.111 -22.133  0.00  0.00    +0.015 C 
ATOM      2  C   UNL     1      33.689 -19.616 -21.505  0.00  0.00    +0.004 C 
ATOM      3  C   UNL     1      36.094 -19.434 -21.645  0.00  0.00    +0.004 C 
ATOM      4  C   UNL     1      35.083 -20.768 -19.902  0.00  0.00    +0.139 C 
ATOM      5  C   UNL     1      33.817 -20.445 -20.390  0.00  0.00    +0.037 C 
ATOM      6  C   UNL     1      36.222 -20.263 -20.530  0.00  0.00    +0.037 C 
ENDROOT
BRANCH   1  10
ATOM      7  N   UNL     1      34.451 -18.739 -24.536  0.00  0.00    -0.236 N 
ATOM      8  N   UNL     1      34.362 -17.785 -25.480  0.00  0.00    -0.180 NA
ATOM      9  C   UNL     1      34.771 -16.889 -23.418  0.00  0.00    +0.018 C 
ATOM     10  C   UNL     1      34.695 -18.254 -23.285  0.00  0.00    +0.063 C 
ATOM     11  C   UNL     1      34.558 -16.657 -24.791  0.00  0.00    +0.115 C 
ATOM     12  H   UNL     1      34.349 -19.698 -24.731  0.00  0.00    +0.174 HD
BRANCH   9  13
ATOM     13  C   UNL     1      35.019 -15.884 -22.371  0.00  0.00    +0.056 C 
BRANCH  13  15
ATOM     14  N   UNL     1      32.173 -12.637 -22.291  0.00  0.00    -0.242 NA
ATOM     15  C   UNL     1      34.015 -14.739 -22.343  0.00  0.00    -0.015 C 
ATOM     16  C   UNL     1      34.085 -13.727 -23.294  0.00  0.00    +0.017 C 
ATOM     17  C   UNL     1      33.027 -14.701 -21.367  0.00  0.00    +0.017 C 
ATOM     18  C   UNL     1      33.149 -12.708 -23.225  0.00  0.00    +0.099 C 
ATOM     19  C   UNL     1      32.138 -13.638 -21.384  0.00  0.00    +0.099 C 
ENDBRANCH  13  15
ENDBRANCH   9  13
ENDBRANCH   1  10
BRANCH   4  20
ATOM     20  O   UNL     1      35.209 -21.584 -18.810  0.00  0.00    -0.468 OA
BRANCH  20  21
ATOM     21  C   UNL     1      36.512 -21.718 -18.257  0.00  0.00    +0.264 C 
BRANCH  21  23
ATOM     22  N   UNL     1      35.182 -22.710 -16.495  0.00  0.00    -0.406 NA
ATOM     23  C   UNL     1      36.413 -22.317 -16.893  0.00  0.00    +0.152 C 
ATOM     24  C   UNL     1      36.157 -23.422 -14.410  0.00  0.00    +0.026 C 
ATOM     25  C   UNL     1      35.052 -23.255 -15.271  0.00  0.00    +0.113 C 
ATOM     26  C   UNL     1      37.551 -22.439 -16.123  0.00  0.00    +0.031 C 
ATOM     27  C   UNL     1      37.415 -23.001 -14.862  0.00  0.00    +0.005 C 
ATOM     28  C   UNL     1      35.985 -23.995 -13.138  0.00  0.00    +0.002 C 
ATOM     29  C   UNL     1      33.803 -23.674 -14.821  0.00  0.00    +0.085 C 
ATOM     30  C   UNL     1      34.724 -24.404 -12.714  0.00  0.00    -0.004 C 
ATOM     31  C   UNL     1      33.632 -24.244 -13.557  0.00  0.00    -0.019 C 
ENDBRANCH  21  23
ENDBRANCH  20  21
ENDBRANCH   4  20
TORSDOF 6
ENDMDL
MODEL 9
REMARK VINA RESULT:     -12.0      3.293      6.578
REMARK  Name = 44141871
REMARK  6 active torsions:
REMARK  status: ('A' for Active; 'I' for Inactive)
REMARK    1  A    between atoms: C_1  and  C_10
REMARK    2  A    between atoms: C_4  and  O_20
REMARK    3  A    between atoms: C_9  and  C_13
REMARK    4  A    between atoms: C_13  and  C_15
REMARK    5  A    between atoms: O_20  and  C_21
REMARK    6  A    between atoms: C_21  and  C_23
REMARK                            x       y       z     vdW  Elec       q    Type
REMARK                         _______ _______ _______ _____ _____    ______ ____
ROOT
ATOM      1  C   UNL     1      32.424 -13.208 -21.180  0.00  0.00    +0.015 C 
ATOM      2  C   UNL     1      32.685 -14.316 -20.374  0.00  0.00    +0.004 C 
ATOM      3  C   UNL     1      32.660 -13.274 -22.553  0.00  0.00    +0.004 C 
ATOM      4  C   UNL     1      33.418 -15.556 -22.314  0.00  0.00    +0.139 C 
ATOM      5  C   UNL     1      33.182 -15.490 -20.941  0.00  0.00    +0.037 C 
ATOM      6  C   UNL     1      33.157 -14.448 -23.120  0.00  0.00    +0.037 C 
ENDROOT
BRANCH   1  10
ATOM      7  N   UNL     1      31.701 -11.858 -19.253  0.00  0.00    -0.236 N 
ATOM      8  N   UNL     1      31.217 -10.655 -18.899  0.00  0.00    -0.180 NA
ATOM      9  C   UNL     1      31.536 -10.799 -21.157  0.00  0.00    +0.018 C 
ATOM     10  C   UNL     1      31.910 -11.995 -20.594  0.00  0.00    +0.063 C 
ATOM     11  C   UNL     1      31.118 -10.012 -20.066  0.00  0.00    +0.115 C 
ATOM     12  H   UNL     1      31.889 -12.574 -18.604  0.00  0.00    +0.174 HD
BRANCH   9  13
ATOM     13  C   UNL     1      31.561 -10.414 -22.579  0.00  0.00    +0.056 C 
BRANCH  13  15
ATOM     14  N   UNL     1      34.956  -8.003 -23.724  0.00  0.00    -0.242 NA
ATOM     15  C   UNL     1      32.758  -9.564 -22.982  0.00  0.00    -0.015 C 
ATOM     16  C   UNL     1      32.876  -8.259 -22.516  0.00  0.00    +0.017 C 
ATOM     17  C   UNL     1      33.738 -10.089 -23.818  0.00  0.00    +0.017 C 
ATOM     18  C   UNL     1      33.983  -7.527 -22.913  0.00  0.00    +0.099 C 
ATOM     19  C   UNL     1      34.807  -9.275 -24.156  0.00  0.00    +0.099 C 
ENDBRANCH  13  15
ENDBRANCH   9  13
ENDBRANCH   1  10
BRANCH   4  20
ATOM     20  O   UNL     1      33.902 -16.709 -22.871  0.00  0.00    -0.468 OA
BRANCH  20  21
ATOM     21  C   UNL     1      35.283 -16.987 -22.672  0.00  0.00    +0.264 C 
BRANCH  21  23
ATOM     22  N   UNL     1      34.279 -18.791 -21.408  0.00  0.00    -0.406 NA
ATOM     23  C   UNL     1      35.426 -18.201 -21.816  0.00  0.00    +0.152 C 
ATOM     24  C   UNL     1      35.613 -20.427 -20.247  0.00  0.00    +0.026 C 
ATOM     25  C   UNL     1      34.369 -19.888 -20.634  0.00  0.00    +0.113 C 
ATOM     26  C   UNL     1      36.688 -18.653 -21.489  0.00  0.00    +0.031 C 
ATOM     27  C   UNL     1      36.777 -19.784 -20.691  0.00  0.00    +0.005 C 
ATOM     28  C   UNL     1      35.669 -21.575 -19.438  0.00  0.00    +0.002 C 
ATOM     29  C   UNL     1      33.213 -20.527 -20.191  0.00  0.00    +0.085 C 
ATOM     30  C   UNL     1      34.498 -22.192 -19.009  0.00  0.00    -0.004 C 
ATOM     31  C   UNL     1      33.268 -21.668 -19.387  0.00  0.00    -0.019 C 
ENDBRANCH  21  23
ENDBRANCH  20  21
ENDBRANCH   4  20
TORSDOF 6
ENDMDL
