MODEL 1
REMARK VINA RESULT:      -8.6      0.000      0.000
REMARK  Name = 17754156
REMARK  14 active torsions:
REMARK  status: ('A' for Active; 'I' for Inactive)
REMARK    1  A    between atoms: C_1  and  C_4
REMARK    2  A    between atoms: C_1  and  C_18
REMARK    3  A    between atoms: C_1  and  C_30
REMARK    4  A    between atoms: N_3  and  C_8
REMARK    5  A    between atoms: N_7  and  C_14
REMARK    6  A    between atoms: C_14  and  C_15
REMARK    7  A    between atoms: C_15  and  O_16
REMARK    8  A    between atoms: C_18  and  C_21
REMARK    9  A    between atoms: C_18  and  C_25
REMARK   10  A    between atoms: N_20  and  O_23
REMARK   11  A    between atoms: C_25  and  C_26
REMARK   12  A    between atoms: C_26  and  C_27
REMARK   13  A    between atoms: C_27  and  O_28
REMARK   14  A    between atoms: C_30  and  C_31
REMARK                            x       y       z     vdW  Elec       q    Type
REMARK                         _______ _______ _______ _____ _____    ______ ____
ROOT
ATOM      1  C   UNL     1      34.780 -22.435 -17.417  0.00  0.00    +0.085 C 
ENDROOT
BRANCH   1   4
ATOM      2  O   UNL     1      33.350 -24.251 -18.163  0.00  0.00    -0.275 OA
ATOM      3  N   UNL     1      32.729 -23.056 -16.273  0.00  0.00    -0.298 N 
ATOM      4  C   UNL     1      33.559 -23.360 -17.342  0.00  0.00    +0.223 C 
ATOM      5  H   UNL     1      32.990 -22.321 -15.673  0.00  0.00    +0.150 HD
BRANCH   3   8
ATOM      6  O   UNL     1      30.566 -21.867 -17.156  0.00  0.00    -0.273 OA
ATOM      7  N   UNL     1      29.115 -23.601 -16.650  0.00  0.00    -0.276 N 
ATOM      8  C   UNL     1      31.500 -23.764 -15.996  0.00  0.00    +0.149 C 
ATOM      9  C   UNL     1      31.290 -23.881 -14.486  0.00  0.00    +0.029 C 
ATOM     10  C   UNL     1      30.410 -25.064 -14.086  0.00  0.00    +0.004 C 
ATOM     11  C   UNL     1      28.974 -24.991 -14.599  0.00  0.00    +0.022 C 
ATOM     12  C   UNL     1      28.879 -24.946 -16.121  0.00  0.00    +0.094 C 
ATOM     13  C   UNL     1      30.368 -22.982 -16.665  0.00  0.00    +0.244 C 
BRANCH   7  14
ATOM     14  C   UNL     1      27.952 -22.901 -17.180  0.00  0.00    +0.125 C 
BRANCH  14  15
ATOM     15  C   UNL     1      27.142 -22.250 -16.074  0.00  0.00    +0.164 C 
BRANCH  15  16
ATOM     16  O   UNL     1      25.890 -21.823 -16.595  0.00  0.00    -0.349 OA
ATOM     17  C   UNL     1      26.038 -21.206 -17.867  0.00  0.00    +0.174 C 
ENDBRANCH  15  16
ENDBRANCH  14  15
ENDBRANCH   7  14
ENDBRANCH   3   8
ENDBRANCH   1   4
BRANCH   1  18
ATOM     18  C   UNL     1      35.905 -23.002 -16.494  0.00  0.00    +0.087 C 
BRANCH  18  21
ATOM     19  O   UNL     1      38.277 -22.504 -16.330  0.00  0.00    -0.273 OA
ATOM     20  N   UNL     1      36.843 -20.842 -17.043  0.00  0.00    -0.197 N 
ATOM     21  C   UNL     1      37.146 -22.112 -16.611  0.00  0.00    +0.244 C 
ATOM     22  H   UNL     1      35.922 -20.569 -17.258  0.00  0.00    +0.182 HD
BRANCH  20  23
ATOM     23  O   UNL     1      37.926 -19.960 -17.161  0.00  0.00    -0.295 OA
ATOM     24  H   UNL     1      38.535 -20.095 -16.419  0.00  0.00    +0.241 HD
ENDBRANCH  20  23
ENDBRANCH  18  21
BRANCH  18  25
ATOM     25  C   UNL     1      35.462 -23.177 -15.026  0.00  0.00    +0.012 C 
BRANCH  25  26
ATOM     26  C   UNL     1      35.475 -24.631 -14.524  0.00  0.00    +0.032 C 
BRANCH  26  27
ATOM     27  C   UNL     1      36.625 -25.482 -15.049  0.00  0.00    +0.137 C 
BRANCH  27  28
ATOM     28  O   UNL     1      36.121 -26.610 -15.747  0.00  0.00    -0.382 OA
ATOM     29  H   UNL     1      36.108 -26.424 -16.698  0.00  0.00    +0.210 HD
ENDBRANCH  27  28
ENDBRANCH  26  27
ENDBRANCH  25  26
ENDBRANCH  18  25
ENDBRANCH   1  18
BRANCH   1  30
ATOM     30  C   UNL     1      35.242 -22.214 -18.874  0.00  0.00    +0.010 C 
BRANCH  30  31
ATOM     31  C   UNL     1      34.704 -20.921 -19.531  0.00  0.00    +0.000 C 
ATOM     32  C   UNL     1      35.650 -20.486 -20.654  0.00  0.00    +0.000 C 
ATOM     33  C   UNL     1      33.291 -21.095 -20.093  0.00  0.00    +0.000 C 
ENDBRANCH  30  31
ENDBRANCH   1  30
TORSDOF 14
ENDMDL
MODEL 2
REMARK VINA RESULT:      -8.3      3.279      6.935
REMARK  Name = 17754156
REMARK  14 active torsions:
REMARK  status: ('A' for Active; 'I' for Inactive)
REMARK    1  A    between atoms: C_1  and  C_4
REMARK    2  A    between atoms: C_1  and  C_18
REMARK    3  A    between atoms: C_1  and  C_30
REMARK    4  A    between atoms: N_3  and  C_8
REMARK    5  A    between atoms: N_7  and  C_14
REMARK    6  A    between atoms: C_14  and  C_15
REMARK    7  A    between atoms: C_15  and  O_16
REMARK    8  A    between atoms: C_18  and  C_21
REMARK    9  A    between atoms: C_18  and  C_25
REMARK   10  A    between atoms: N_20  and  O_23
REMARK   11  A    between atoms: C_25  and  C_26
REMARK   12  A    between atoms: C_26  and  C_27
REMARK   13  A    between atoms: C_27  and  O_28
REMARK   14  A    between atoms: C_30  and  C_31
REMARK                            x       y       z     vdW  Elec       q    Type
REMARK                         _______ _______ _______ _____ _____    ______ ____
ROOT
ATOM      1  C   UNL     1      36.436 -24.906 -13.696  0.00  0.00    +0.085 C 
ENDROOT
BRANCH   1   4
ATOM      2  O   UNL     1      35.704 -25.793 -15.835  0.00  0.00    -0.275 OA
ATOM      3  N   UNL     1      35.752 -23.490 -15.548  0.00  0.00    -0.298 N 
ATOM      4  C   UNL     1      35.919 -24.804 -15.136  0.00  0.00    +0.223 C 
ATOM      5  H   UNL     1      35.953 -22.771 -14.907  0.00  0.00    +0.150 HD
BRANCH   3   8
ATOM      6  O   UNL     1      37.037 -21.472 -16.619  0.00  0.00    -0.273 OA
ATOM      7  N   UNL     1      36.043 -21.634 -18.705  0.00  0.00    -0.276 N 
ATOM      8  C   UNL     1      35.300 -23.125 -16.871  0.00  0.00    +0.149 C 
ATOM      9  C   UNL     1      33.839 -22.673 -16.820  0.00  0.00    +0.029 C 
ATOM     10  C   UNL     1      33.106 -22.840 -18.149  0.00  0.00    +0.004 C 
ATOM     11  C   UNL     1      33.659 -21.993 -19.292  0.00  0.00    +0.022 C 
ATOM     12  C   UNL     1      35.116 -22.301 -19.622  0.00  0.00    +0.094 C 
ATOM     13  C   UNL     1      36.219 -22.009 -17.371  0.00  0.00    +0.244 C 
BRANCH   7  14
ATOM     14  C   UNL     1      36.806 -20.520 -19.253  0.00  0.00    +0.125 C 
BRANCH  14  15
ATOM     15  C   UNL     1      36.227 -20.043 -20.573  0.00  0.00    +0.164 C 
BRANCH  15  16
ATOM     16  O   UNL     1      36.064 -18.632 -20.535  0.00  0.00    -0.349 OA
ATOM     17  C   UNL     1      35.698 -18.114 -21.807  0.00  0.00    +0.174 C 
ENDBRANCH  15  16
ENDBRANCH  14  15
ENDBRANCH   7  14
ENDBRANCH   3   8
ENDBRANCH   1   4
BRANCH   1  18
ATOM     18  C   UNL     1      35.220 -24.893 -12.717  0.00  0.00    +0.087 C 
BRANCH  18  21
ATOM     19  O   UNL     1      35.375 -24.958 -10.294  0.00  0.00    -0.273 OA
ATOM     20  N   UNL     1      36.465 -23.270 -11.428  0.00  0.00    -0.197 N 
ATOM     21  C   UNL     1      35.686 -24.400 -11.343  0.00  0.00    +0.244 C 
ATOM     22  H   UNL     1      36.691 -22.855 -12.291  0.00  0.00    +0.182 HD
BRANCH  20  23
ATOM     23  O   UNL     1      36.920 -22.747 -10.210  0.00  0.00    -0.295 OA
ATOM     24  H   UNL     1      37.821 -22.407 -10.321  0.00  0.00    +0.241 HD
ENDBRANCH  20  23
ENDBRANCH  18  21
BRANCH  18  25
ATOM     25  C   UNL     1      34.020 -24.077 -13.241  0.00  0.00    +0.012 C 
BRANCH  25  26
ATOM     26  C   UNL     1      32.803 -24.922 -13.655  0.00  0.00    +0.032 C 
BRANCH  26  27
ATOM     27  C   UNL     1      31.476 -24.173 -13.668  0.00  0.00    +0.137 C 
BRANCH  27  28
ATOM     28  O   UNL     1      30.546 -24.809 -12.804  0.00  0.00    -0.382 OA
ATOM     29  H   UNL     1      29.654 -24.474 -12.985  0.00  0.00    +0.210 HD
ENDBRANCH  27  28
ENDBRANCH  26  27
ENDBRANCH  25  26
ENDBRANCH  18  25
ENDBRANCH   1  18
BRANCH   1  30
ATOM     30  C   UNL     1      37.360 -26.129 -13.504  0.00  0.00    +0.010 C 
BRANCH  30  31
ATOM     31  C   UNL     1      38.864 -25.789 -13.394  0.00  0.00    +0.000 C 
ATOM     32  C   UNL     1      39.508 -25.859 -14.782  0.00  0.00    +0.000 C 
ATOM     33  C   UNL     1      39.109 -24.406 -12.788  0.00  0.00    +0.000 C 
ENDBRANCH  30  31
ENDBRANCH   1  30
TORSDOF 14
ENDMDL
MODEL 3
REMARK VINA RESULT:      -8.3      8.400     12.275
REMARK  Name = 17754156
REMARK  14 active torsions:
REMARK  status: ('A' for Active; 'I' for Inactive)
REMARK    1  A    between atoms: C_1  and  C_4
REMARK    2  A    between atoms: C_1  and  C_18
REMARK    3  A    between atoms: C_1  and  C_30
REMARK    4  A    between atoms: N_3  and  C_8
REMARK    5  A    between atoms: N_7  and  C_14
REMARK    6  A    between atoms: C_14  and  C_15
REMARK    7  A    between atoms: C_15  and  O_16
REMARK    8  A    between atoms: C_18  and  C_21
REMARK    9  A    between atoms: C_18  and  C_25
REMARK   10  A    between atoms: N_20  and  O_23
REMARK   11  A    between atoms: C_25  and  C_26
REMARK   12  A    between atoms: C_26  and  C_27
REMARK   13  A    between atoms: C_27  and  O_28
REMARK   14  A    between atoms: C_30  and  C_31
REMARK                            x       y       z     vdW  Elec       q    Type
REMARK                         _______ _______ _______ _____ _____    ______ ____
ROOT
ATOM      1  C   UNL     1      33.166 -12.609 -23.190  0.00  0.00    +0.085 C 
ENDROOT
BRANCH   1   4
ATOM      2  O   UNL     1      32.330 -14.482 -24.489  0.00  0.00    -0.275 OA
ATOM      3  N   UNL     1      34.018 -14.872 -22.945  0.00  0.00    -0.298 N 
ATOM      4  C   UNL     1      33.112 -14.077 -23.632  0.00  0.00    +0.223 C 
ATOM      5  H   UNL     1      34.601 -14.445 -22.276  0.00  0.00    +0.150 HD
BRANCH   3   8
ATOM      6  O   UNL     1      35.348 -16.138 -21.075  0.00  0.00    -0.273 OA
ATOM      7  N   UNL     1      34.923 -18.269 -21.879  0.00  0.00    -0.276 N 
ATOM      8  C   UNL     1      34.146 -16.295 -23.159  0.00  0.00    +0.149 C 
ATOM      9  C   UNL     1      34.930 -16.563 -24.445  0.00  0.00    +0.029 C 
ATOM     10  C   UNL     1      34.623 -17.923 -25.070  0.00  0.00    +0.004 C 
ATOM     11  C   UNL     1      35.010 -19.122 -24.208  0.00  0.00    +0.022 C 
ATOM     12  C   UNL     1      34.293 -19.153 -22.862  0.00  0.00    +0.094 C 
ATOM     13  C   UNL     1      34.855 -16.874 -21.934  0.00  0.00    +0.244 C 
BRANCH   7  14
ATOM     14  C   UNL     1      35.656 -18.918 -20.800  0.00  0.00    +0.125 C 
BRANCH  14  15
ATOM     15  C   UNL     1      35.168 -20.337 -20.569  0.00  0.00    +0.164 C 
BRANCH  15  16
ATOM     16  O   UNL     1      35.756 -20.850 -19.381  0.00  0.00    -0.349 OA
ATOM     17  C   UNL     1      35.090 -22.024 -18.934  0.00  0.00    +0.174 C 
ENDBRANCH  15  16
ENDBRANCH  14  15
ENDBRANCH   7  14
ENDBRANCH   3   8
ENDBRANCH   1   4
BRANCH   1  18
ATOM     18  C   UNL     1      33.257 -11.698 -24.455  0.00  0.00    +0.087 C 
BRANCH  18  21
ATOM     19  O   UNL     1      32.612  -9.487 -23.685  0.00  0.00    -0.273 OA
ATOM     20  N   UNL     1      34.848  -9.922 -24.056  0.00  0.00    -0.197 N 
ATOM     21  C   UNL     1      33.514 -10.254 -24.017  0.00  0.00    +0.244 C 
ATOM     22  H   UNL     1      35.539 -10.568 -24.328  0.00  0.00    +0.182 HD
BRANCH  20  23
ATOM     23  O   UNL     1      35.164  -8.609 -23.683  0.00  0.00    -0.295 OA
ATOM     24  H   UNL     1      34.749  -8.406 -22.831  0.00  0.00    +0.241 HD
ENDBRANCH  20  23
ENDBRANCH  18  21
BRANCH  18  25
ATOM     25  C   UNL     1      34.302 -12.179 -25.482  0.00  0.00    +0.012 C 
BRANCH  25  26
ATOM     26  C   UNL     1      33.817 -12.169 -26.942  0.00  0.00    +0.032 C 
BRANCH  26  27
ATOM     27  C   UNL     1      32.989 -13.381 -27.352  0.00  0.00    +0.137 C 
BRANCH  27  28
ATOM     28  O   UNL     1      33.715 -14.576 -27.106  0.00  0.00    -0.382 OA
ATOM     29  H   UNL     1      34.556 -14.361 -26.674  0.00  0.00    +0.210 HD
ENDBRANCH  27  28
ENDBRANCH  26  27
ENDBRANCH  25  26
ENDBRANCH  18  25
ENDBRANCH   1  18
BRANCH   1  30
ATOM     30  C   UNL     1      31.986 -12.247 -22.262  0.00  0.00    +0.010 C 
BRANCH  30  31
ATOM     31  C   UNL     1      32.318 -12.287 -20.752  0.00  0.00    +0.000 C 
ATOM     32  C   UNL     1      31.318 -11.417 -19.985  0.00  0.00    +0.000 C 
ATOM     33  C   UNL     1      32.297 -13.708 -20.185  0.00  0.00    +0.000 C 
ENDBRANCH  30  31
ENDBRANCH   1  30
TORSDOF 14
ENDMDL
MODEL 4
REMARK VINA RESULT:      -8.3      2.703      7.930
REMARK  Name = 17754156
REMARK  14 active torsions:
REMARK  status: ('A' for Active; 'I' for Inactive)
REMARK    1  A    between atoms: C_1  and  C_4
REMARK    2  A    between atoms: C_1  and  C_18
REMARK    3  A    between atoms: C_1  and  C_30
REMARK    4  A    between atoms: N_3  and  C_8
REMARK    5  A    between atoms: N_7  and  C_14
REMARK    6  A    between atoms: C_14  and  C_15
REMARK    7  A    between atoms: C_15  and  O_16
REMARK    8  A    between atoms: C_18  and  C_21
REMARK    9  A    between atoms: C_18  and  C_25
REMARK   10  A    between atoms: N_20  and  O_23
REMARK   11  A    between atoms: C_25  and  C_26
REMARK   12  A    between atoms: C_26  and  C_27
REMARK   13  A    between atoms: C_27  and  O_28
REMARK   14  A    between atoms: C_30  and  C_31
REMARK                            x       y       z     vdW  Elec       q    Type
REMARK                         _______ _______ _______ _____ _____    ______ ____
ROOT
ATOM      1  C   UNL     1      31.973 -23.536 -16.511  0.00  0.00    +0.085 C 
ENDROOT
BRANCH   1   4
ATOM      2  O   UNL     1      32.651 -22.382 -14.484  0.00  0.00    -0.275 OA
ATOM      3  N   UNL     1      34.010 -24.077 -15.301  0.00  0.00    -0.298 N 
ATOM      4  C   UNL     1      32.891 -23.256 -15.314  0.00  0.00    +0.223 C 
ATOM      5  H   UNL     1      34.107 -24.747 -16.016  0.00  0.00    +0.150 HD
BRANCH   3   8
ATOM      6  O   UNL     1      36.055 -25.666 -15.705  0.00  0.00    -0.273 OA
ATOM      7  N   UNL     1      37.351 -24.833 -13.974  0.00  0.00    -0.276 N 
ATOM      8  C   UNL     1      35.042 -23.995 -14.292  0.00  0.00    +0.149 C 
ATOM      9  C   UNL     1      34.481 -24.419 -12.934  0.00  0.00    +0.029 C 
ATOM     10  C   UNL     1      35.245 -23.826 -11.751  0.00  0.00    +0.004 C 
ATOM     11  C   UNL     1      36.701 -24.273 -11.645  0.00  0.00    +0.022 C 
ATOM     12  C   UNL     1      37.537 -23.896 -12.864  0.00  0.00    +0.094 C 
ATOM     13  C   UNL     1      36.185 -24.906 -14.740  0.00  0.00    +0.244 C 
BRANCH   7  14
ATOM     14  C   UNL     1      38.467 -25.725 -14.262  0.00  0.00    +0.125 C 
BRANCH  14  15
ATOM     15  C   UNL     1      39.500 -25.058 -15.152  0.00  0.00    +0.164 C 
BRANCH  15  16
ATOM     16  O   UNL     1      40.578 -25.956 -15.378  0.00  0.00    -0.349 OA
ATOM     17  C   UNL     1      40.940 -26.648 -14.190  0.00  0.00    +0.174 C 
ENDBRANCH  15  16
ENDBRANCH  14  15
ENDBRANCH   7  14
ENDBRANCH   3   8
ENDBRANCH   1   4
BRANCH   1  18
ATOM     18  C   UNL     1      30.518 -23.765 -15.993  0.00  0.00    +0.087 C 
BRANCH  18  21
ATOM     19  O   UNL     1      30.605 -25.932 -14.901  0.00  0.00    -0.273 OA
ATOM     20  N   UNL     1      30.514 -24.035 -13.591  0.00  0.00    -0.197 N 
ATOM     21  C   UNL     1      30.556 -24.709 -14.788  0.00  0.00    +0.244 C 
ATOM     22  H   UNL     1      30.476 -23.052 -13.546  0.00  0.00    +0.182 HD
BRANCH  20  23
ATOM     23  O   UNL     1      30.530 -24.831 -12.438  0.00  0.00    -0.295 OA
ATOM     24  H   UNL     1      31.225 -25.502 -12.517  0.00  0.00    +0.241 HD
ENDBRANCH  20  23
ENDBRANCH  18  21
BRANCH  18  25
ATOM     25  C   UNL     1      29.770 -22.455 -15.670  0.00  0.00    +0.012 C 
BRANCH  25  26
ATOM     26  C   UNL     1      28.241 -22.538 -15.819  0.00  0.00    +0.032 C 
BRANCH  26  27
ATOM     27  C   UNL     1      27.740 -22.626 -17.256  0.00  0.00    +0.137 C 
BRANCH  27  28
ATOM     28  O   UNL     1      27.559 -23.983 -17.630  0.00  0.00    -0.382 OA
ATOM     29  H   UNL     1      28.416 -24.436 -17.630  0.00  0.00    +0.210 HD
ENDBRANCH  27  28
ENDBRANCH  26  27
ENDBRANCH  25  26
ENDBRANCH  18  25
ENDBRANCH   1  18
BRANCH   1  30
ATOM     30  C   UNL     1      32.073 -22.427 -17.581  0.00  0.00    +0.010 C 
BRANCH  30  31
ATOM     31  C   UNL     1      33.431 -22.362 -18.317  0.00  0.00    +0.000 C 
ATOM     32  C   UNL     1      33.799 -23.754 -18.836  0.00  0.00    +0.000 C 
ATOM     33  C   UNL     1      33.417 -21.370 -19.483  0.00  0.00    +0.000 C 
ENDBRANCH  30  31
ENDBRANCH   1  30
TORSDOF 14
ENDMDL
MODEL 5
REMARK VINA RESULT:      -8.2      1.648      2.205
REMARK  Name = 17754156
REMARK  14 active torsions:
REMARK  status: ('A' for Active; 'I' for Inactive)
REMARK    1  A    between atoms: C_1  and  C_4
REMARK    2  A    between atoms: C_1  and  C_18
REMARK    3  A    between atoms: C_1  and  C_30
REMARK    4  A    between atoms: N_3  and  C_8
REMARK    5  A    between atoms: N_7  and  C_14
REMARK    6  A    between atoms: C_14  and  C_15
REMARK    7  A    between atoms: C_15  and  O_16
REMARK    8  A    between atoms: C_18  and  C_21
REMARK    9  A    between atoms: C_18  and  C_25
REMARK   10  A    between atoms: N_20  and  O_23
REMARK   11  A    between atoms: C_25  and  C_26
REMARK   12  A    between atoms: C_26  and  C_27
REMARK   13  A    between atoms: C_27  and  O_28
REMARK   14  A    between atoms: C_30  and  C_31
REMARK                            x       y       z     vdW  Elec       q    Type
REMARK                         _______ _______ _______ _____ _____    ______ ____
ROOT
ATOM      1  C   UNL     1      34.452 -21.706 -18.721  0.00  0.00    +0.085 C 
ENDROOT
BRANCH   1   4
ATOM      2  O   UNL     1      33.607 -23.982 -18.664  0.00  0.00    -0.275 OA
ATOM      3  N   UNL     1      33.118 -22.574 -16.885  0.00  0.00    -0.298 N 
ATOM      4  C   UNL     1      33.695 -22.890 -18.106  0.00  0.00    +0.223 C 
ATOM      5  H   UNL     1      33.251 -21.667 -16.526  0.00  0.00    +0.150 HD
BRANCH   3   8
ATOM      6  O   UNL     1      30.532 -22.157 -16.982  0.00  0.00    -0.273 OA
ATOM      7  N   UNL     1      29.936 -24.081 -15.837  0.00  0.00    -0.276 N 
ATOM      8  C   UNL     1      32.330 -23.509 -16.114  0.00  0.00    +0.149 C 
ATOM      9  C   UNL     1      32.688 -23.398 -14.631  0.00  0.00    +0.029 C 
ATOM     10  C   UNL     1      32.397 -24.672 -13.840  0.00  0.00    +0.004 C 
ATOM     11  C   UNL     1      30.922 -25.063 -13.781  0.00  0.00    +0.022 C 
ATOM     12  C   UNL     1      30.312 -25.322 -15.155  0.00  0.00    +0.094 C 
ATOM     13  C   UNL     1      30.859 -23.177 -16.367  0.00  0.00    +0.244 C 
BRANCH   7  14
ATOM     14  C   UNL     1      28.508 -23.809 -15.943  0.00  0.00    +0.125 C 
BRANCH  14  15
ATOM     15  C   UNL     1      28.034 -23.875 -17.384  0.00  0.00    +0.164 C 
BRANCH  15  16
ATOM     16  O   UNL     1      27.051 -22.872 -17.603  0.00  0.00    -0.349 OA
ATOM     17  C   UNL     1      26.957 -21.982 -16.499  0.00  0.00    +0.174 C 
ENDBRANCH  15  16
ENDBRANCH  14  15
ENDBRANCH   7  14
ENDBRANCH   3   8
ENDBRANCH   1   4
BRANCH   1  18
ATOM     18  C   UNL     1      35.987 -21.944 -18.560  0.00  0.00    +0.087 C 
BRANCH  18  21
ATOM     19  O   UNL     1      37.086 -21.941 -20.726  0.00  0.00    -0.273 OA
ATOM     20  N   UNL     1      36.930 -19.955 -19.561  0.00  0.00    -0.197 N 
ATOM     21  C   UNL     1      36.721 -21.302 -19.742  0.00  0.00    +0.244 C 
ATOM     22  H   UNL     1      36.620 -19.482 -18.756  0.00  0.00    +0.182 HD
BRANCH  20  23
ATOM     23  O   UNL     1      37.611 -19.297 -20.594  0.00  0.00    -0.295 OA
ATOM     24  H   UNL     1      38.380 -19.824 -20.862  0.00  0.00    +0.241 HD
ENDBRANCH  20  23
ENDBRANCH  18  21
BRANCH  18  25
ATOM     25  C   UNL     1      36.544 -21.456 -17.207  0.00  0.00    +0.012 C 
BRANCH  25  26
ATOM     26  C   UNL     1      37.577 -22.397 -16.564  0.00  0.00    +0.032 C 
BRANCH  26  27
ATOM     27  C   UNL     1      37.044 -23.243 -15.414  0.00  0.00    +0.137 C 
BRANCH  27  28
ATOM     28  O   UNL     1      35.905 -23.979 -15.832  0.00  0.00    -0.382 OA
ATOM     29  H   UNL     1      35.105 -23.575 -15.462  0.00  0.00    +0.210 HD
ENDBRANCH  27  28
ENDBRANCH  26  27
ENDBRANCH  25  26
ENDBRANCH  18  25
ENDBRANCH   1  18
BRANCH   1  30
ATOM     30  C   UNL     1      34.024 -21.450 -20.183  0.00  0.00    +0.010 C 
BRANCH  30  31
ATOM     31  C   UNL     1      33.742 -19.968 -20.522  0.00  0.00    +0.000 C 
ATOM     32  C   UNL     1      34.325 -19.638 -21.899  0.00  0.00    +0.000 C 
ATOM     33  C   UNL     1      32.248 -19.639 -20.509  0.00  0.00    +0.000 C 
ENDBRANCH  30  31
ENDBRANCH   1  30
TORSDOF 14
ENDMDL
MODEL 6
REMARK VINA RESULT:      -8.2     12.520     15.719
REMARK  Name = 17754156
REMARK  14 active torsions:
REMARK  status: ('A' for Active; 'I' for Inactive)
REMARK    1  A    between atoms: C_1  and  C_4
REMARK    2  A    between atoms: C_1  and  C_18
REMARK    3  A    between atoms: C_1  and  C_30
REMARK    4  A    between atoms: N_3  and  C_8
REMARK    5  A    between atoms: N_7  and  C_14
REMARK    6  A    between atoms: C_14  and  C_15
REMARK    7  A    between atoms: C_15  and  O_16
REMARK    8  A    between atoms: C_18  and  C_21
REMARK    9  A    between atoms: C_18  and  C_25
REMARK   10  A    between atoms: N_20  and  O_23
REMARK   11  A    between atoms: C_25  and  C_26
REMARK   12  A    between atoms: C_26  and  C_27
REMARK   13  A    between atoms: C_27  and  O_28
REMARK   14  A    between atoms: C_30  and  C_31
REMARK                            x       y       z     vdW  Elec       q    Type
REMARK                         _______ _______ _______ _____ _____    ______ ____
ROOT
ATOM      1  C   UNL     1      33.471  -7.531 -23.939  0.00  0.00    +0.085 C 
ENDROOT
BRANCH   1   4
ATOM      2  O   UNL     1      35.149  -9.272 -23.719  0.00  0.00    -0.275 OA
ATOM      3  N   UNL     1      32.916  -9.846 -23.454  0.00  0.00    -0.298 N 
ATOM      4  C   UNL     1      33.960  -8.963 -23.689  0.00  0.00    +0.223 C 
ATOM      5  H   UNL     1      31.997  -9.493 -23.451  0.00  0.00    +0.150 HD
BRANCH   3   8
ATOM      6  O   UNL     1      33.073 -11.305 -25.626  0.00  0.00    -0.273 OA
ATOM      7  N   UNL     1      33.643 -13.276 -24.550  0.00  0.00    -0.276 N 
ATOM      8  C   UNL     1      33.110 -11.258 -23.216  0.00  0.00    +0.149 C 
ATOM      9  C   UNL     1      31.917 -11.829 -22.448  0.00  0.00    +0.029 C 
ATOM     10  C   UNL     1      32.257 -13.085 -21.646  0.00  0.00    +0.004 C 
ATOM     11  C   UNL     1      32.691 -14.281 -22.490  0.00  0.00    +0.022 C 
ATOM     12  C   UNL     1      33.942 -14.010 -23.319  0.00  0.00    +0.094 C 
ATOM     13  C   UNL     1      33.277 -11.928 -24.580  0.00  0.00    +0.244 C 
BRANCH   7  14
ATOM     14  C   UNL     1      33.739 -14.031 -25.794  0.00  0.00    +0.125 C 
BRANCH  14  15
ATOM     15  C   UNL     1      33.404 -15.496 -25.584  0.00  0.00    +0.164 C 
BRANCH  15  16
ATOM     16  O   UNL     1      34.543 -16.289 -25.890  0.00  0.00    -0.349 OA
ATOM     17  C   UNL     1      34.582 -17.473 -25.105  0.00  0.00    +0.174 C 
ENDBRANCH  15  16
ENDBRANCH  14  15
ENDBRANCH   7  14
ENDBRANCH   3   8
ENDBRANCH   1   4
BRANCH   1  18
ATOM     18  C   UNL     1      33.063  -6.887 -22.576  0.00  0.00    +0.087 C 
BRANCH  18  21
ATOM     19  O   UNL     1      30.726  -7.290 -23.097  0.00  0.00    -0.273 OA
ATOM     20  N   UNL     1      31.302  -5.314 -22.054  0.00  0.00    -0.197 N 
ATOM     21  C   UNL     1      31.571  -6.543 -22.610  0.00  0.00    +0.244 C 
ATOM     22  H   UNL     1      32.011  -4.747 -21.673  0.00  0.00    +0.182 HD
BRANCH  20  23
ATOM     23  O   UNL     1      29.958  -4.919 -22.061  0.00  0.00    -0.295 OA
ATOM     24  H   UNL     1      29.887  -4.019 -22.413  0.00  0.00    +0.241 HD
ENDBRANCH  20  23
ENDBRANCH  18  21
BRANCH  18  25
ATOM     25  C   UNL     1      33.422  -7.759 -21.355  0.00  0.00    +0.012 C 
BRANCH  25  26
ATOM     26  C   UNL     1      32.315  -7.857 -20.291  0.00  0.00    +0.032 C 
BRANCH  26  27
ATOM     27  C   UNL     1      31.896  -9.277 -19.930  0.00  0.00    +0.137 C 
BRANCH  27  28
ATOM     28  O   UNL     1      32.667  -9.753 -18.838  0.00  0.00    -0.382 OA
ATOM     29  H   UNL     1      32.481  -9.217 -18.052  0.00  0.00    +0.210 HD
ENDBRANCH  27  28
ENDBRANCH  26  27
ENDBRANCH  25  26
ENDBRANCH  18  25
ENDBRANCH   1  18
BRANCH   1  30
ATOM     30  C   UNL     1      34.512  -6.698 -24.719  0.00  0.00    +0.010 C 
BRANCH  30  31
ATOM     31  C   UNL     1      33.963  -6.004 -25.987  0.00  0.00    +0.000 C 
ATOM     32  C   UNL     1      32.823  -5.059 -25.600  0.00  0.00    +0.000 C 
ATOM     33  C   UNL     1      35.042  -5.222 -26.739  0.00  0.00    +0.000 C 
ENDBRANCH  30  31
ENDBRANCH   1  30
TORSDOF 14
ENDMDL
MODEL 7
REMARK VINA RESULT:      -8.2      1.713      2.277
REMARK  Name = 17754156
REMARK  14 active torsions:
REMARK  status: ('A' for Active; 'I' for Inactive)
REMARK    1  A    between atoms: C_1  and  C_4
REMARK    2  A    between atoms: C_1  and  C_18
REMARK    3  A    between atoms: C_1  and  C_30
REMARK    4  A    between atoms: N_3  and  C_8
REMARK    5  A    between atoms: N_7  and  C_14
REMARK    6  A    between atoms: C_14  and  C_15
REMARK    7  A    between atoms: C_15  and  O_16
REMARK    8  A    between atoms: C_18  and  C_21
REMARK    9  A    between atoms: C_18  and  C_25
REMARK   10  A    between atoms: N_20  and  O_23
REMARK   11  A    between atoms: C_25  and  C_26
REMARK   12  A    between atoms: C_26  and  C_27
REMARK   13  A    between atoms: C_27  and  O_28
REMARK   14  A    between atoms: C_30  and  C_31
REMARK                            x       y       z     vdW  Elec       q    Type
REMARK                         _______ _______ _______ _____ _____    ______ ____
ROOT
ATOM      1  C   UNL     1      35.204 -22.981 -15.713  0.00  0.00    +0.085 C 
ENDROOT
BRANCH   1   4
ATOM      2  O   UNL     1      33.803 -23.766 -13.891  0.00  0.00    -0.275 OA
ATOM      3  N   UNL     1      32.866 -23.576 -16.006  0.00  0.00    -0.298 N 
ATOM      4  C   UNL     1      33.896 -23.476 -15.082  0.00  0.00    +0.223 C 
ATOM      5  H   UNL     1      33.048 -23.318 -16.938  0.00  0.00    +0.150 HD
BRANCH   3   8
ATOM      6  O   UNL     1      30.919 -22.209 -17.105  0.00  0.00    -0.273 OA
ATOM      7  N   UNL     1      29.214 -23.613 -16.405  0.00  0.00    -0.276 N 
ATOM      8  C   UNL     1      31.541 -24.043 -15.668  0.00  0.00    +0.149 C 
ATOM      9  C   UNL     1      31.306 -23.912 -14.162  0.00  0.00    +0.029 C 
ATOM     10  C   UNL     1      30.251 -24.878 -13.627  0.00  0.00    +0.004 C 
ATOM     11  C   UNL     1      28.847 -24.662 -14.185  0.00  0.00    +0.022 C 
ATOM     12  C   UNL     1      28.770 -24.818 -15.700  0.00  0.00    +0.094 C 
ATOM     13  C   UNL     1      30.548 -23.200 -16.470  0.00  0.00    +0.244 C 
BRANCH   7  14
ATOM     14  C   UNL     1      28.177 -22.826 -17.058  0.00  0.00    +0.125 C 
BRANCH  14  15
ATOM     15  C   UNL     1      27.209 -22.233 -16.051  0.00  0.00    +0.164 C 
BRANCH  15  16
ATOM     16  O   UNL     1      26.009 -21.856 -16.714  0.00  0.00    -0.349 OA
ATOM     17  C   UNL     1      26.261 -21.432 -18.047  0.00  0.00    +0.174 C 
ENDBRANCH  15  16
ENDBRANCH  14  15
ENDBRANCH   7  14
ENDBRANCH   3   8
ENDBRANCH   1   4
BRANCH   1  18
ATOM     18  C   UNL     1      36.282 -24.104 -15.596  0.00  0.00    +0.087 C 
BRANCH  18  21
ATOM     19  O   UNL     1      38.583 -23.595 -15.007  0.00  0.00    -0.273 OA
ATOM     20  N   UNL     1      36.937 -23.269 -13.424  0.00  0.00    -0.197 N 
ATOM     21  C   UNL     1      37.403 -23.629 -14.666  0.00  0.00    +0.244 C 
ATOM     22  H   UNL     1      35.981 -23.312 -13.192  0.00  0.00    +0.182 HD
BRANCH  20  23
ATOM     23  O   UNL     1      37.905 -22.837 -12.507  0.00  0.00    -0.295 OA
ATOM     24  H   UNL     1      37.662 -23.133 -11.617  0.00  0.00    +0.241 HD
ENDBRANCH  20  23
ENDBRANCH  18  21
BRANCH  18  25
ATOM     25  C   UNL     1      35.705 -25.464 -15.150  0.00  0.00    +0.012 C 
BRANCH  25  26
ATOM     26  C   UNL     1      36.719 -26.621 -15.152  0.00  0.00    +0.032 C 
BRANCH  26  27
ATOM     27  C   UNL     1      37.431 -26.853 -13.825  0.00  0.00    +0.137 C 
BRANCH  27  28
ATOM     28  O   UNL     1      36.641 -26.364 -12.752  0.00  0.00    -0.382 OA
ATOM     29  H   UNL     1      37.216 -25.965 -12.082  0.00  0.00    +0.210 HD
ENDBRANCH  27  28
ENDBRANCH  26  27
ENDBRANCH  25  26
ENDBRANCH  18  25
ENDBRANCH   1  18
BRANCH   1  30
ATOM     30  C   UNL     1      34.990 -22.490 -17.162  0.00  0.00    +0.010 C 
BRANCH  30  31
ATOM     31  C   UNL     1      36.286 -22.091 -17.905  0.00  0.00    +0.000 C 
ATOM     32  C   UNL     1      35.930 -21.498 -19.272  0.00  0.00    +0.000 C 
ATOM     33  C   UNL     1      37.127 -21.085 -17.116  0.00  0.00    +0.000 C 
ENDBRANCH  30  31
ENDBRANCH   1  30
TORSDOF 14
ENDMDL
MODEL 8
REMARK VINA RESULT:      -8.2      1.756      3.917
REMARK  Name = 17754156
REMARK  14 active torsions:
REMARK  status: ('A' for Active; 'I' for Inactive)
REMARK    1  A    between atoms: C_1  and  C_4
REMARK    2  A    between atoms: C_1  and  C_18
REMARK    3  A    between atoms: C_1  and  C_30
REMARK    4  A    between atoms: N_3  and  C_8
REMARK    5  A    between atoms: N_7  and  C_14
REMARK    6  A    between atoms: C_14  and  C_15
REMARK    7  A    between atoms: C_15  and  O_16
REMARK    8  A    between atoms: C_18  and  C_21
REMARK    9  A    between atoms: C_18  and  C_25
REMARK   10  A    between atoms: N_20  and  O_23
REMARK   11  A    between atoms: C_25  and  C_26
REMARK   12  A    between atoms: C_26  and  C_27
REMARK   13  A    between atoms: C_27  and  O_28
REMARK   14  A    between atoms: C_30  and  C_31
REMARK                            x       y       z     vdW  Elec       q    Type
REMARK                         _______ _______ _______ _____ _____    ______ ____
ROOT
ATOM      1  C   UNL     1      35.145 -22.587 -17.910  0.00  0.00    +0.085 C 
ENDROOT
BRANCH   1   4
ATOM      2  O   UNL     1      33.524 -24.311 -18.456  0.00  0.00    -0.275 OA
ATOM      3  N   UNL     1      33.232 -23.095 -16.500  0.00  0.00    -0.298 N 
ATOM      4  C   UNL     1      33.893 -23.439 -17.671  0.00  0.00    +0.223 C 
ATOM      5  H   UNL     1      33.614 -22.380 -15.941  0.00  0.00    +0.150 HD
BRANCH   3   8
ATOM      6  O   UNL     1      31.037 -21.916 -17.311  0.00  0.00    -0.273 OA
ATOM      7  N   UNL     1      29.586 -23.546 -16.532  0.00  0.00    -0.276 N 
ATOM      8  C   UNL     1      32.012 -23.732 -16.061  0.00  0.00    +0.149 C 
ATOM      9  C   UNL     1      31.927 -23.707 -14.534  0.00  0.00    +0.029 C 
ATOM     10  C   UNL     1      31.051 -24.818 -13.957  0.00  0.00    +0.004 C 
ATOM     11  C   UNL     1      29.580 -24.741 -14.357  0.00  0.00    +0.022 C 
ATOM     12  C   UNL     1      29.359 -24.829 -15.863  0.00  0.00    +0.094 C 
ATOM     13  C   UNL     1      30.850 -22.975 -16.704  0.00  0.00    +0.244 C 
BRANCH   7  14
ATOM     14  C   UNL     1      28.403 -22.856 -17.027  0.00  0.00    +0.125 C 
BRANCH  14  15
ATOM     15  C   UNL     1      27.525 -22.366 -15.890  0.00  0.00    +0.164 C 
BRANCH  15  16
ATOM     16  O   UNL     1      26.229 -22.066 -16.389  0.00  0.00    -0.349 OA
ATOM     17  C   UNL     1      26.292 -21.436 -17.661  0.00  0.00    +0.174 C 
ENDBRANCH  15  16
ENDBRANCH  14  15
ENDBRANCH   7  14
ENDBRANCH   3   8
ENDBRANCH   1   4
BRANCH   1  18
ATOM     18  C   UNL     1      34.786 -21.414 -18.877  0.00  0.00    +0.087 C 
BRANCH  18  21
ATOM     19  O   UNL     1      36.702 -21.993 -20.253  0.00  0.00    -0.273 OA
ATOM     20  N   UNL     1      36.190 -19.763 -19.948  0.00  0.00    -0.197 N 
ATOM     21  C   UNL     1      35.993 -21.112 -19.770  0.00  0.00    +0.244 C 
ATOM     22  H   UNL     1      35.597 -19.090 -19.543  0.00  0.00    +0.182 HD
BRANCH  20  23
ATOM     23  O   UNL     1      37.287 -19.404 -20.742  0.00  0.00    -0.295 OA
ATOM     24  H   UNL     1      37.996 -19.059 -20.178  0.00  0.00    +0.241 HD
ENDBRANCH  20  23
ENDBRANCH  18  21
BRANCH  18  25
ATOM     25  C   UNL     1      33.510 -21.673 -19.706  0.00  0.00    +0.012 C 
BRANCH  25  26
ATOM     26  C   UNL     1      32.680 -20.415 -20.011  0.00  0.00    +0.032 C 
BRANCH  26  27
ATOM     27  C   UNL     1      33.023 -19.722 -21.324  0.00  0.00    +0.137 C 
BRANCH  27  28
ATOM     28  O   UNL     1      33.778 -18.546 -21.075  0.00  0.00    -0.382 OA
ATOM     29  H   UNL     1      34.207 -18.614 -20.208  0.00  0.00    +0.210 HD
ENDBRANCH  27  28
ENDBRANCH  26  27
ENDBRANCH  25  26
ENDBRANCH  18  25
ENDBRANCH   1  18
BRANCH   1  30
ATOM     30  C   UNL     1      35.775 -22.111 -16.583  0.00  0.00    +0.010 C 
BRANCH  30  31
ATOM     31  C   UNL     1      36.482 -23.220 -15.770  0.00  0.00    +0.000 C 
ATOM     32  C   UNL     1      37.999 -23.031 -15.855  0.00  0.00    +0.000 C 
ATOM     33  C   UNL     1      36.051 -23.234 -14.302  0.00  0.00    +0.000 C 
ENDBRANCH  30  31
ENDBRANCH   1  30
TORSDOF 14
ENDMDL
MODEL 9
REMARK VINA RESULT:      -8.1     12.002     15.621
REMARK  Name = 17754156
REMARK  14 active torsions:
REMARK  status: ('A' for Active; 'I' for Inactive)
REMARK    1  A    between atoms: C_1  and  C_4
REMARK    2  A    between atoms: C_1  and  C_18
REMARK    3  A    between atoms: C_1  and  C_30
REMARK    4  A    between atoms: N_3  and  C_8
REMARK    5  A    between atoms: N_7  and  C_14
REMARK    6  A    between atoms: C_14  and  C_15
REMARK    7  A    between atoms: C_15  and  O_16
REMARK    8  A    between atoms: C_18  and  C_21
REMARK    9  A    between atoms: C_18  and  C_25
REMARK   10  A    between atoms: N_20  and  O_23
REMARK   11  A    between atoms: C_25  and  C_26
REMARK   12  A    between atoms: C_26  and  C_27
REMARK   13  A    between atoms: C_27  and  O_28
REMARK   14  A    between atoms: C_30  and  C_31
REMARK                            x       y       z     vdW  Elec       q    Type
REMARK                         _______ _______ _______ _____ _____    ______ ____
ROOT
ATOM      1  C   UNL     1      32.916  -9.017 -21.939  0.00  0.00    +0.085 C 
ENDROOT
BRANCH   1   4
ATOM      2  O   UNL     1      31.617  -9.594 -23.908  0.00  0.00    -0.275 OA
ATOM      3  N   UNL     1      33.392 -10.965 -23.310  0.00  0.00    -0.298 N 
ATOM      4  C   UNL     1      32.557  -9.866 -23.164  0.00  0.00    +0.223 C 
ATOM      5  H   UNL     1      34.118 -11.091 -22.657  0.00  0.00    +0.150 HD
BRANCH   3   8
ATOM      6  O   UNL     1      34.132 -13.397 -22.670  0.00  0.00    -0.273 OA
ATOM      7  N   UNL     1      33.391 -14.396 -24.624  0.00  0.00    -0.276 N 
ATOM      8  C   UNL     1      33.247 -11.936 -24.371  0.00  0.00    +0.149 C 
ATOM      9  C   UNL     1      34.139 -11.556 -25.555  0.00  0.00    +0.029 C 
ATOM     10  C   UNL     1      33.648 -12.116 -26.888  0.00  0.00    +0.004 C 
ATOM     11  C   UNL     1      33.641 -13.640 -26.975  0.00  0.00    +0.022 C 
ATOM     12  C   UNL     1      32.742 -14.299 -25.933  0.00  0.00    +0.094 C 
ATOM     13  C   UNL     1      33.628 -13.299 -23.792  0.00  0.00    +0.244 C 
BRANCH   7  14
ATOM     14  C   UNL     1      33.802 -15.729 -24.203  0.00  0.00    +0.125 C 
BRANCH  14  15
ATOM     15  C   UNL     1      34.863 -16.303 -25.125  0.00  0.00    +0.164 C 
BRANCH  15  16
ATOM     16  O   UNL     1      34.389 -17.519 -25.689  0.00  0.00    -0.349 OA
ATOM     17  C   UNL     1      34.403 -18.576 -24.739  0.00  0.00    +0.174 C 
ENDBRANCH  15  16
ENDBRANCH  14  15
ENDBRANCH   7  14
ENDBRANCH   3   8
ENDBRANCH   1   4
BRANCH   1  18
ATOM     18  C   UNL     1      33.090  -7.530 -22.384  0.00  0.00    +0.087 C 
BRANCH  18  21
ATOM     19  O   UNL     1      35.156  -8.139 -23.506  0.00  0.00    -0.273 OA
ATOM     20  N   UNL     1      33.794  -6.551 -24.480  0.00  0.00    -0.197 N 
ATOM     21  C   UNL     1      34.132  -7.460 -23.505  0.00  0.00    +0.244 C 
ATOM     22  H   UNL     1      32.962  -6.027 -24.440  0.00  0.00    +0.182 HD
BRANCH  20  23
ATOM     23  O   UNL     1      34.706  -6.417 -25.535  0.00  0.00    -0.295 OA
ATOM     24  H   UNL     1      35.567  -6.138 -25.186  0.00  0.00    +0.241 HD
ENDBRANCH  20  23
ENDBRANCH  18  21
BRANCH  18  25
ATOM     25  C   UNL     1      31.765  -6.853 -22.791  0.00  0.00    +0.012 C 
BRANCH  25  26
ATOM     26  C   UNL     1      31.418  -5.590 -21.985  0.00  0.00    +0.032 C 
BRANCH  26  27
ATOM     27  C   UNL     1      31.127  -4.352 -22.826  0.00  0.00    +0.137 C 
BRANCH  27  28
ATOM     28  O   UNL     1      30.286  -3.460 -22.110  0.00  0.00    -0.382 OA
ATOM     29  H   UNL     1      29.548  -3.187 -22.676  0.00  0.00    +0.210 HD
ENDBRANCH  27  28
ENDBRANCH  26  27
ENDBRANCH  25  26
ENDBRANCH  18  25
ENDBRANCH   1  18
BRANCH   1  30
ATOM     30  C   UNL     1      31.891  -9.195 -20.798  0.00  0.00    +0.010 C 
BRANCH  30  31
ATOM     31  C   UNL     1      31.721 -10.651 -20.306  0.00  0.00    +0.000 C 
ATOM     32  C   UNL     1      31.491 -10.657 -18.792  0.00  0.00    +0.000 C 
ATOM     33  C   UNL     1      30.563 -11.372 -21.001  0.00  0.00    +0.000 C 
ENDBRANCH  30  31
ENDBRANCH   1  30
TORSDOF 14
ENDMDL
