MODEL 1
REMARK VINA RESULT:     -10.3      0.000      0.000
REMARK  Name = 9797919
REMARK  5 active torsions:
REMARK  status: ('A' for Active; 'I' for Inactive)
REMARK    1  A    between atoms: C_1  and  N_18
REMARK    2  A    between atoms: C_2  and  C_9
REMARK    3  A    between atoms: N_8  and  C_12
REMARK    4  A    between atoms: N_18  and  C_20
REMARK    5  A    between atoms: C_20  and  C_22
REMARK                            x       y       z     vdW  Elec       q    Type
REMARK                         _______ _______ _______ _____ _____    ______ ____
ROOT
ATOM      1  C   UNL     1      34.190 -15.981 -22.985  0.00  0.00    +0.049 C 
ATOM      2  C   UNL     1      34.603 -17.313 -22.965  0.00  0.00    +0.067 C 
ATOM      3  C   UNL     1      34.024 -15.320 -24.202  0.00  0.00    +0.014 C 
ATOM      4  C   UNL     1      34.850 -17.984 -24.163  0.00  0.00    +0.006 C 
ATOM      5  C   UNL     1      34.271 -15.992 -25.400  0.00  0.00    +0.001 C 
ATOM      6  C   UNL     1      34.684 -17.324 -25.380  0.00  0.00    +0.000 C 
ENDROOT
BRANCH   2   9
ATOM      7  O   UNL     1      35.273 -17.433 -20.741  0.00  0.00    -0.270 OA
ATOM      8  N   UNL     1      34.361 -19.366 -21.706  0.00  0.00    -0.280 N 
ATOM      9  C   UNL     1      34.786 -18.032 -21.710  0.00  0.00    +0.251 C 
ATOM     10  H   UNL     1      33.994 -19.702 -22.556  0.00  0.00    +0.155 HD
BRANCH   8  12
ATOM     11 CL   UNL     1      34.479 -23.235 -17.245  0.00  0.00    -0.082 Cl
ATOM     12  C   UNL     1      34.389 -20.294 -20.637  0.00  0.00    +0.051 C 
ATOM     13  C   UNL     1      35.611 -20.725 -20.146  0.00  0.00    +0.016 C 
ATOM     14  C   UNL     1      33.195 -20.750 -20.105  0.00  0.00    +0.016 C 
ATOM     15  C   UNL     1      35.638 -21.639 -19.093  0.00  0.00    +0.013 C 
ATOM     16  C   UNL     1      33.223 -21.664 -19.051  0.00  0.00    +0.013 C 
ATOM     17  C   UNL     1      34.445 -22.108 -18.546  0.00  0.00    +0.058 C 
ENDBRANCH   8  12
ENDBRANCH   2   9
BRANCH   1  18
ATOM     18  N   UNL     1      33.934 -15.283 -21.784  0.00  0.00    -0.329 N 
ATOM     19  H   UNL     1      34.700 -14.971 -21.248  0.00  0.00    +0.147 HD
BRANCH  18  20
ATOM     20  C   UNL     1      32.613 -15.009 -21.312  0.00  0.00    +0.114 C 
BRANCH  20  22
ATOM     21  N   UNL     1      31.724 -10.817 -21.380  0.00  0.00    -0.242 NA
ATOM     22  C   UNL     1      32.301 -13.541 -21.336  0.00  0.00    +0.000 C 
ATOM     23  C   UNL     1      32.014 -12.880 -20.154  0.00  0.00    +0.018 C 
ATOM     24  C   UNL     1      32.302 -12.857 -22.542  0.00  0.00    +0.018 C 
ATOM     25  C   UNL     1      31.734 -11.525 -20.228  0.00  0.00    +0.099 C 
ATOM     26  C   UNL     1      32.009 -11.503 -22.510  0.00  0.00    +0.099 C 
ENDBRANCH  20  22
ENDBRANCH  18  20
ENDBRANCH   1  18
TORSDOF 5
ENDMDL
MODEL 2
REMARK VINA RESULT:     -10.3      1.331      2.048
REMARK  Name = 9797919
REMARK  5 active torsions:
REMARK  status: ('A' for Active; 'I' for Inactive)
REMARK    1  A    between atoms: C_1  and  N_18
REMARK    2  A    between atoms: C_2  and  C_9
REMARK    3  A    between atoms: N_8  and  C_12
REMARK    4  A    between atoms: N_18  and  C_20
REMARK    5  A    between atoms: C_20  and  C_22
REMARK                            x       y       z     vdW  Elec       q    Type
REMARK                         _______ _______ _______ _____ _____    ______ ____
ROOT
ATOM      1  C   UNL     1      33.447 -14.525 -23.422  0.00  0.00    +0.049 C 
ATOM      2  C   UNL     1      34.016 -15.792 -23.562  0.00  0.00    +0.067 C 
ATOM      3  C   UNL     1      32.959 -13.852 -24.542  0.00  0.00    +0.014 C 
ATOM      4  C   UNL     1      34.096 -16.384 -24.823  0.00  0.00    +0.006 C 
ATOM      5  C   UNL     1      33.039 -14.445 -25.802  0.00  0.00    +0.001 C 
ATOM      6  C   UNL     1      33.607 -15.711 -25.942  0.00  0.00    +0.000 C 
ENDROOT
BRANCH   2   9
ATOM      7  O   UNL     1      34.916 -15.885 -21.419  0.00  0.00    -0.270 OA
ATOM      8  N   UNL     1      34.537 -17.917 -22.528  0.00  0.00    -0.280 N 
ATOM      9  C   UNL     1      34.536 -16.521 -22.413  0.00  0.00    +0.251 C 
ATOM     10  H   UNL     1      34.204 -18.277 -23.382  0.00  0.00    +0.155 HD
BRANCH   8  12
ATOM     11 CL   UNL     1      36.282 -21.922 -18.554  0.00  0.00    -0.082 Cl
ATOM     12  C   UNL     1      34.955 -18.877 -21.575  0.00  0.00    +0.051 C 
ATOM     13  C   UNL     1      34.018 -19.731 -21.018  0.00  0.00    +0.016 C 
ATOM     14  C   UNL     1      36.292 -18.941 -21.221  0.00  0.00    +0.016 C 
ATOM     15  C   UNL     1      34.430 -20.677 -20.079  0.00  0.00    +0.013 C 
ATOM     16  C   UNL     1      36.705 -19.888 -20.283  0.00  0.00    +0.013 C 
ATOM     17  C   UNL     1      35.773 -20.755 -19.712  0.00  0.00    +0.058 C 
ENDBRANCH   8  12
ENDBRANCH   2   9
BRANCH   1  18
ATOM     18  N   UNL     1      33.357 -13.908 -22.155  0.00  0.00    -0.329 N 
ATOM     19  H   UNL     1      34.190 -13.656 -21.692  0.00  0.00    +0.147 HD
BRANCH  18  20
ATOM     20  C   UNL     1      32.109 -13.631 -21.515  0.00  0.00    +0.114 C 
BRANCH  20  22
ATOM     21  N   UNL     1      31.641  -9.459 -20.651  0.00  0.00    -0.242 NA
ATOM     22  C   UNL     1      31.944 -12.170 -21.213  0.00  0.00    +0.000 C 
ATOM     23  C   UNL     1      31.773 -11.754 -19.903  0.00  0.00    +0.018 C 
ATOM     24  C   UNL     1      31.966 -11.247 -22.246  0.00  0.00    +0.018 C 
ATOM     25  C   UNL     1      31.627 -10.395 -19.675  0.00  0.00    +0.099 C 
ATOM     26  C   UNL     1      31.810  -9.911 -21.914  0.00  0.00    +0.099 C 
ENDBRANCH  20  22
ENDBRANCH  18  20
ENDBRANCH   1  18
TORSDOF 5
ENDMDL
MODEL 3
REMARK VINA RESULT:     -10.2      3.083      7.688
REMARK  Name = 9797919
REMARK  5 active torsions:
REMARK  status: ('A' for Active; 'I' for Inactive)
REMARK    1  A    between atoms: C_1  and  N_18
REMARK    2  A    between atoms: C_2  and  C_9
REMARK    3  A    between atoms: N_8  and  C_12
REMARK    4  A    between atoms: N_18  and  C_20
REMARK    5  A    between atoms: C_20  and  C_22
REMARK                            x       y       z     vdW  Elec       q    Type
REMARK                         _______ _______ _______ _____ _____    ______ ____
ROOT
ATOM      1  C   UNL     1      34.394 -18.052 -22.745  0.00  0.00    +0.049 C 
ATOM      2  C   UNL     1      34.337 -16.730 -23.186  0.00  0.00    +0.067 C 
ATOM      3  C   UNL     1      34.623 -19.082 -23.658  0.00  0.00    +0.014 C 
ATOM      4  C   UNL     1      34.509 -16.438 -24.540  0.00  0.00    +0.006 C 
ATOM      5  C   UNL     1      34.796 -18.790 -25.011  0.00  0.00    +0.001 C 
ATOM      6  C   UNL     1      34.739 -17.467 -25.451  0.00  0.00    +0.000 C 
ENDROOT
BRANCH   2   9
ATOM      7  O   UNL     1      34.888 -15.456 -21.319  0.00  0.00    -0.270 OA
ATOM      8  N   UNL     1      32.979 -14.836 -22.533  0.00  0.00    -0.280 N 
ATOM      9  C   UNL     1      34.098 -15.631 -22.258  0.00  0.00    +0.251 C 
ATOM     10  H   UNL     1      32.446 -15.102 -23.317  0.00  0.00    +0.155 HD
BRANCH   8  12
ATOM     11 CL   UNL     1      31.047 -10.088 -19.599  0.00  0.00    -0.082 Cl
ATOM     12  C   UNL     1      32.516 -13.697 -21.830  0.00  0.00    +0.051 C 
ATOM     13  C   UNL     1      32.114 -12.579 -22.541  0.00  0.00    +0.016 C 
ATOM     14  C   UNL     1      32.475 -13.727 -20.447  0.00  0.00    +0.016 C 
ATOM     15  C   UNL     1      31.658 -11.457 -21.848  0.00  0.00    +0.013 C 
ATOM     16  C   UNL     1      32.019 -12.605 -19.753  0.00  0.00    +0.013 C 
ATOM     17  C   UNL     1      31.611 -11.471 -20.455  0.00  0.00    +0.058 C 
ENDBRANCH   8  12
ENDBRANCH   2   9
BRANCH   1  18
ATOM     18  N   UNL     1      34.222 -18.370 -21.379  0.00  0.00    -0.329 N 
ATOM     19  H   UNL     1      34.767 -17.892 -20.712  0.00  0.00    +0.147 HD
BRANCH  18  20
ATOM     20  C   UNL     1      33.290 -19.353 -20.924  0.00  0.00    +0.114 C 
BRANCH  20  22
ATOM     21  N   UNL     1      35.221 -22.508 -18.757  0.00  0.00    -0.242 NA
ATOM     22  C   UNL     1      33.966 -20.458 -20.166  0.00  0.00    +0.000 C 
ATOM     23  C   UNL     1      35.347 -20.561 -20.186  0.00  0.00    +0.018 C 
ATOM     24  C   UNL     1      33.204 -21.368 -19.451  0.00  0.00    +0.018 C 
ATOM     25  C   UNL     1      35.924 -21.597 -19.468  0.00  0.00    +0.099 C 
ATOM     26  C   UNL     1      33.876 -22.369 -18.768  0.00  0.00    +0.099 C 
ENDBRANCH  20  22
ENDBRANCH  18  20
ENDBRANCH   1  18
TORSDOF 5
ENDMDL
MODEL 4
REMARK VINA RESULT:     -10.1      5.305     10.783
REMARK  Name = 9797919
REMARK  5 active torsions:
REMARK  status: ('A' for Active; 'I' for Inactive)
REMARK    1  A    between atoms: C_1  and  N_18
REMARK    2  A    between atoms: C_2  and  C_9
REMARK    3  A    between atoms: N_8  and  C_12
REMARK    4  A    between atoms: N_18  and  C_20
REMARK    5  A    between atoms: C_20  and  C_22
REMARK                            x       y       z     vdW  Elec       q    Type
REMARK                         _______ _______ _______ _____ _____    ______ ____
ROOT
ATOM      1  C   UNL     1      33.777 -23.468 -15.997  0.00  0.00    +0.049 C 
ATOM      2  C   UNL     1      32.943 -23.121 -17.060  0.00  0.00    +0.067 C 
ATOM      3  C   UNL     1      33.226 -23.811 -14.762  0.00  0.00    +0.014 C 
ATOM      4  C   UNL     1      31.559 -23.115 -16.887  0.00  0.00    +0.006 C 
ATOM      5  C   UNL     1      31.842 -23.806 -14.590  0.00  0.00    +0.001 C 
ATOM      6  C   UNL     1      31.008 -23.458 -15.653  0.00  0.00    +0.000 C 
ENDROOT
BRANCH   2   9
ATOM      7  O   UNL     1      33.872 -23.656 -19.124  0.00  0.00    -0.270 OA
ATOM      8  N   UNL     1      33.504 -21.388 -18.654  0.00  0.00    -0.280 N 
ATOM      9  C   UNL     1      33.487 -22.757 -18.363  0.00  0.00    +0.251 C 
ATOM     10  H   UNL     1      33.164 -20.795 -17.946  0.00  0.00    +0.155 HD
BRANCH   8  12
ATOM     11 CL   UNL     1      35.349 -18.711 -23.585  0.00  0.00    -0.082 Cl
ATOM     12  C   UNL     1      33.946 -20.746 -19.837  0.00  0.00    +0.051 C 
ATOM     13  C   UNL     1      33.014 -20.176 -20.687  0.00  0.00    +0.016 C 
ATOM     14  C   UNL     1      35.301 -20.704 -20.117  0.00  0.00    +0.016 C 
ATOM     15  C   UNL     1      33.449 -19.544 -21.852  0.00  0.00    +0.013 C 
ATOM     16  C   UNL     1      35.737 -20.071 -21.282  0.00  0.00    +0.013 C 
ATOM     17  C   UNL     1      34.810 -19.492 -22.149  0.00  0.00    +0.058 C 
ENDBRANCH   8  12
ENDBRANCH   2   9
BRANCH   1  18
ATOM     18  N   UNL     1      35.182 -23.480 -16.150  0.00  0.00    -0.329 N 
ATOM     19  H   UNL     1      35.556 -23.551 -17.059  0.00  0.00    +0.147 HD
BRANCH  18  20
ATOM     20  C   UNL     1      36.082 -23.393 -15.044  0.00  0.00    +0.114 C 
BRANCH  20  22
ATOM     21  N   UNL     1      38.496 -26.914 -14.659  0.00  0.00    -0.242 NA
ATOM     22  C   UNL     1      36.927 -24.626 -14.910  0.00  0.00    +0.000 C 
ATOM     23  C   UNL     1      38.295 -24.506 -14.725  0.00  0.00    +0.018 C 
ATOM     24  C   UNL     1      36.334 -25.877 -14.973  0.00  0.00    +0.018 C 
ATOM     25  C   UNL     1      39.031 -25.674 -14.605  0.00  0.00    +0.099 C 
ATOM     26  C   UNL     1      37.158 -26.984 -14.842  0.00  0.00    +0.099 C 
ENDBRANCH  20  22
ENDBRANCH  18  20
ENDBRANCH   1  18
TORSDOF 5
ENDMDL
MODEL 5
REMARK VINA RESULT:      -9.9      1.224      1.972
REMARK  Name = 9797919
REMARK  5 active torsions:
REMARK  status: ('A' for Active; 'I' for Inactive)
REMARK    1  A    between atoms: C_1  and  N_18
REMARK    2  A    between atoms: C_2  and  C_9
REMARK    3  A    between atoms: N_8  and  C_12
REMARK    4  A    between atoms: N_18  and  C_20
REMARK    5  A    between atoms: C_20  and  C_22
REMARK                            x       y       z     vdW  Elec       q    Type
REMARK                         _______ _______ _______ _____ _____    ______ ____
ROOT
ATOM      1  C   UNL     1      34.899 -17.179 -22.871  0.00  0.00    +0.049 C 
ATOM      2  C   UNL     1      34.995 -18.560 -22.697  0.00  0.00    +0.067 C 
ATOM      3  C   UNL     1      34.636 -16.653 -24.136  0.00  0.00    +0.014 C 
ATOM      4  C   UNL     1      34.830 -19.414 -23.788  0.00  0.00    +0.006 C 
ATOM      5  C   UNL     1      34.470 -17.507 -25.226  0.00  0.00    +0.001 C 
ATOM      6  C   UNL     1      34.567 -18.888 -25.052  0.00  0.00    +0.000 C 
ENDROOT
BRANCH   2   9
ATOM      7  O   UNL     1      36.049 -18.558 -20.623  0.00  0.00    -0.270 OA
ATOM      8  N   UNL     1      34.589 -20.331 -21.098  0.00  0.00    -0.280 N 
ATOM      9  C   UNL     1      35.269 -19.142 -21.389  0.00  0.00    +0.251 C 
ATOM     10  H   UNL     1      34.002 -20.674 -21.809  0.00  0.00    +0.155 HD
BRANCH   8  12
ATOM     11 CL   UNL     1      34.786 -23.548 -16.149  0.00  0.00    -0.082 Cl
ATOM     12  C   UNL     1      34.636 -21.102 -19.911  0.00  0.00    +0.051 C 
ATOM     13  C   UNL     1      33.475 -21.692 -19.440  0.00  0.00    +0.016 C 
ATOM     14  C   UNL     1      35.842 -21.250 -19.247  0.00  0.00    +0.016 C 
ATOM     15  C   UNL     1      33.521 -22.452 -18.271  0.00  0.00    +0.013 C 
ATOM     16  C   UNL     1      35.889 -22.010 -18.078  0.00  0.00    +0.013 C 
ATOM     17  C   UNL     1      34.728 -22.610 -17.591  0.00  0.00    +0.058 C 
ENDBRANCH   8  12
ENDBRANCH   2   9
BRANCH   1  18
ATOM     18  N   UNL     1      35.063 -16.297 -21.780  0.00  0.00    -0.329 N 
ATOM     19  H   UNL     1      35.977 -16.055 -21.504  0.00  0.00    +0.147 HD
BRANCH  18  20
ATOM     20  C   UNL     1      33.961 -15.742 -21.060  0.00  0.00    +0.114 C 
BRANCH  20  22
ATOM     21  N   UNL     1      32.544 -12.113 -22.848  0.00  0.00    -0.242 NA
ATOM     22  C   UNL     1      33.465 -14.471 -21.685  0.00  0.00    +0.000 C 
ATOM     23  C   UNL     1      34.103 -13.961 -22.804  0.00  0.00    +0.018 C 
ATOM     24  C   UNL     1      32.373 -13.816 -21.140  0.00  0.00    +0.018 C 
ATOM     25  C   UNL     1      33.606 -12.786 -23.346  0.00  0.00    +0.099 C 
ATOM     26  C   UNL     1      31.954 -12.647 -21.755  0.00  0.00    +0.099 C 
ENDBRANCH  20  22
ENDBRANCH  18  20
ENDBRANCH   1  18
TORSDOF 5
ENDMDL
MODEL 6
REMARK VINA RESULT:      -9.9      5.569      8.721
REMARK  Name = 9797919
REMARK  5 active torsions:
REMARK  status: ('A' for Active; 'I' for Inactive)
REMARK    1  A    between atoms: C_1  and  N_18
REMARK    2  A    between atoms: C_2  and  C_9
REMARK    3  A    between atoms: N_8  and  C_12
REMARK    4  A    between atoms: N_18  and  C_20
REMARK    5  A    between atoms: C_20  and  C_22
REMARK                            x       y       z     vdW  Elec       q    Type
REMARK                         _______ _______ _______ _____ _____    ______ ____
ROOT
ATOM      1  C   UNL     1      35.303 -21.263 -19.446  0.00  0.00    +0.049 C 
ATOM      2  C   UNL     1      33.924 -21.476 -19.462  0.00  0.00    +0.067 C 
ATOM      3  C   UNL     1      35.864 -20.273 -20.254  0.00  0.00    +0.014 C 
ATOM      4  C   UNL     1      33.108 -20.698 -20.284  0.00  0.00    +0.006 C 
ATOM      5  C   UNL     1      35.048 -19.496 -21.075  0.00  0.00    +0.001 C 
ATOM      6  C   UNL     1      33.669 -19.709 -21.090  0.00  0.00    +0.000 C 
ENDROOT
BRANCH   2   9
ATOM      7  O   UNL     1      33.750 -23.658 -18.676  0.00  0.00    -0.270 OA
ATOM      8  N   UNL     1      32.251 -22.071 -17.817  0.00  0.00    -0.280 N 
ATOM      9  C   UNL     1      33.306 -22.502 -18.631  0.00  0.00    +0.251 C 
ATOM     10  H   UNL     1      32.012 -21.119 -17.893  0.00  0.00    +0.155 HD
BRANCH   8  12
ATOM     11 CL   UNL     1      29.059 -25.231 -13.983  0.00  0.00    -0.082 Cl
ATOM     12  C   UNL     1      31.485 -22.828 -16.898  0.00  0.00    +0.051 C 
ATOM     13  C   UNL     1      30.104 -22.812 -16.992  0.00  0.00    +0.016 C 
ATOM     14  C   UNL     1      32.135 -23.568 -15.924  0.00  0.00    +0.016 C 
ATOM     15  C   UNL     1      29.350 -23.559 -16.086  0.00  0.00    +0.013 C 
ATOM     16  C   UNL     1      31.381 -24.315 -15.019  0.00  0.00    +0.013 C 
ATOM     17  C   UNL     1      29.989 -24.310 -15.100  0.00  0.00    +0.058 C 
ENDBRANCH   8  12
ENDBRANCH   2   9
BRANCH   1  18
ATOM     18  N   UNL     1      36.148 -22.038 -18.621  0.00  0.00    -0.329 N 
ATOM     19  H   UNL     1      36.270 -22.992 -18.837  0.00  0.00    +0.147 HD
BRANCH  18  20
ATOM     20  C   UNL     1      36.832 -21.499 -17.489  0.00  0.00    +0.114 C 
BRANCH  20  22
ATOM     21  N   UNL     1      36.677 -24.137 -14.114  0.00  0.00    -0.242 NA
ATOM     22  C   UNL     1      36.777 -22.423 -16.308  0.00  0.00    +0.000 C 
ATOM     23  C   UNL     1      37.913 -23.118 -15.925  0.00  0.00    +0.018 C 
ATOM     24  C   UNL     1      35.591 -22.575 -15.607  0.00  0.00    +0.018 C 
ATOM     25  C   UNL     1      37.812 -23.957 -14.827  0.00  0.00    +0.099 C 
ATOM     26  C   UNL     1      35.594 -23.440 -14.524  0.00  0.00    +0.099 C 
ENDBRANCH  20  22
ENDBRANCH  18  20
ENDBRANCH   1  18
TORSDOF 5
ENDMDL
MODEL 7
REMARK VINA RESULT:      -9.8      5.489      9.333
REMARK  Name = 9797919
REMARK  5 active torsions:
REMARK  status: ('A' for Active; 'I' for Inactive)
REMARK    1  A    between atoms: C_1  and  N_18
REMARK    2  A    between atoms: C_2  and  C_9
REMARK    3  A    between atoms: N_8  and  C_12
REMARK    4  A    between atoms: N_18  and  C_20
REMARK    5  A    between atoms: C_20  and  C_22
REMARK                            x       y       z     vdW  Elec       q    Type
REMARK                         _______ _______ _______ _____ _____    ______ ____
ROOT
ATOM      1  C   UNL     1      32.342 -23.077 -16.433  0.00  0.00    +0.049 C 
ATOM      2  C   UNL     1      33.048 -23.379 -15.269  0.00  0.00    +0.067 C 
ATOM      3  C   UNL     1      30.954 -22.946 -16.393  0.00  0.00    +0.014 C 
ATOM      4  C   UNL     1      32.365 -23.549 -14.064  0.00  0.00    +0.006 C 
ATOM      5  C   UNL     1      30.272 -23.116 -15.188  0.00  0.00    +0.001 C 
ATOM      6  C   UNL     1      30.978 -23.418 -14.023  0.00  0.00    +0.000 C 
ENDROOT
BRANCH   2   9
ATOM      7  O   UNL     1      35.184 -22.664 -15.850  0.00  0.00    -0.270 OA
ATOM      8  N   UNL     1      35.003 -24.639 -14.598  0.00  0.00    -0.280 N 
ATOM      9  C   UNL     1      34.499 -23.523 -15.277  0.00  0.00    +0.251 C 
ATOM     10  H   UNL     1      34.331 -25.234 -14.193  0.00  0.00    +0.155 HD
BRANCH   8  12
ATOM     11 CL   UNL     1      40.640 -26.234 -13.849  0.00  0.00    -0.082 Cl
ATOM     12  C   UNL     1      36.354 -25.022 -14.418  0.00  0.00    +0.051 C 
ATOM     13  C   UNL     1      36.843 -26.121 -15.104  0.00  0.00    +0.016 C 
ATOM     14  C   UNL     1      37.156 -24.289 -13.560  0.00  0.00    +0.016 C 
ATOM     15  C   UNL     1      38.175 -26.497 -14.927  0.00  0.00    +0.013 C 
ATOM     16  C   UNL     1      38.488 -24.666 -13.383  0.00  0.00    +0.013 C 
ATOM     17  C   UNL     1      38.997 -25.770 -14.067  0.00  0.00    +0.058 C 
ENDBRANCH   8  12
ENDBRANCH   2   9
BRANCH   1  18
ATOM     18  N   UNL     1      33.014 -22.900 -17.664  0.00  0.00    -0.329 N 
ATOM     19  H   UNL     1      33.828 -23.427 -17.835  0.00  0.00    +0.147 HD
BRANCH  18  20
ATOM     20  C   UNL     1      32.561 -21.992 -18.669  0.00  0.00    +0.114 C 
BRANCH  20  22
ATOM     21  N   UNL     1      35.823 -20.203 -20.799  0.00  0.00    -0.242 NA
ATOM     22  C   UNL     1      33.703 -21.366 -19.415  0.00  0.00    +0.000 C 
ATOM     23  C   UNL     1      33.457 -20.348 -20.322  0.00  0.00    +0.018 C 
ATOM     24  C   UNL     1      34.997 -21.811 -19.193  0.00  0.00    +0.018 C 
ATOM     25  C   UNL     1      34.545 -19.802 -20.984  0.00  0.00    +0.099 C 
ATOM     26  C   UNL     1      36.016 -21.200 -19.906  0.00  0.00    +0.099 C 
ENDBRANCH  20  22
ENDBRANCH  18  20
ENDBRANCH   1  18
TORSDOF 5
ENDMDL
MODEL 8
REMARK VINA RESULT:      -9.7      5.992      9.746
REMARK  Name = 9797919
REMARK  5 active torsions:
REMARK  status: ('A' for Active; 'I' for Inactive)
REMARK    1  A    between atoms: C_1  and  N_18
REMARK    2  A    between atoms: C_2  and  C_9
REMARK    3  A    between atoms: N_8  and  C_12
REMARK    4  A    between atoms: N_18  and  C_20
REMARK    5  A    between atoms: C_20  and  C_22
REMARK                            x       y       z     vdW  Elec       q    Type
REMARK                         _______ _______ _______ _____ _____    ______ ____
ROOT
ATOM      1  C   UNL     1      32.202 -23.421 -15.836  0.00  0.00    +0.049 C 
ATOM      2  C   UNL     1      32.494 -24.090 -14.647  0.00  0.00    +0.067 C 
ATOM      3  C   UNL     1      30.877 -23.277 -16.248  0.00  0.00    +0.014 C 
ATOM      4  C   UNL     1      31.460 -24.616 -13.871  0.00  0.00    +0.006 C 
ATOM      5  C   UNL     1      29.844 -23.801 -15.471  0.00  0.00    +0.001 C 
ATOM      6  C   UNL     1      30.136 -24.471 -14.282  0.00  0.00    +0.000 C 
ENDROOT
BRANCH   2   9
ATOM      7  O   UNL     1      34.151 -23.961 -13.019  0.00  0.00    -0.270 OA
ATOM      8  N   UNL     1      34.763 -24.779 -15.131  0.00  0.00    -0.280 N 
ATOM      9  C   UNL     1      33.867 -24.259 -14.189  0.00  0.00    +0.251 C 
ATOM     10  H   UNL     1      34.388 -24.966 -16.022  0.00  0.00    +0.155 HD
BRANCH   8  12
ATOM     11 CL   UNL     1      40.502 -25.996 -14.451  0.00  0.00    -0.082 Cl
ATOM     12  C   UNL     1      36.139 -25.071 -14.967  0.00  0.00    +0.051 C 
ATOM     13  C   UNL     1      36.529 -26.376 -14.720  0.00  0.00    +0.016 C 
ATOM     14  C   UNL     1      37.064 -24.044 -15.059  0.00  0.00    +0.016 C 
ATOM     15  C   UNL     1      37.885 -26.664 -14.559  0.00  0.00    +0.013 C 
ATOM     16  C   UNL     1      38.420 -24.332 -14.898  0.00  0.00    +0.013 C 
ATOM     17  C   UNL     1      38.830 -25.642 -14.648  0.00  0.00    +0.058 C 
ENDBRANCH   8  12
ENDBRANCH   2   9
BRANCH   1  18
ATOM     18  N   UNL     1      33.234 -22.882 -16.637  0.00  0.00    -0.329 N 
ATOM     19  H   UNL     1      33.833 -22.208 -16.241  0.00  0.00    +0.147 HD
BRANCH  18  20
ATOM     20  C   UNL     1      33.445 -23.273 -17.995  0.00  0.00    +0.114 C 
BRANCH  20  22
ATOM     21  N   UNL     1      35.337 -20.178 -20.278  0.00  0.00    -0.242 NA
ATOM     22  C   UNL     1      34.107 -22.190 -18.795  0.00  0.00    +0.000 C 
ATOM     23  C   UNL     1      33.337 -21.340 -19.572  0.00  0.00    +0.018 C 
ATOM     24  C   UNL     1      35.485 -22.046 -18.750  0.00  0.00    +0.018 C 
ATOM     25  C   UNL     1      33.996 -20.355 -20.290  0.00  0.00    +0.099 C 
ATOM     26  C   UNL     1      36.047 -21.030 -19.506  0.00  0.00    +0.099 C 
ENDBRANCH  20  22
ENDBRANCH  18  20
ENDBRANCH   1  18
TORSDOF 5
ENDMDL
MODEL 9
REMARK VINA RESULT:      -9.7      5.079      9.509
REMARK  Name = 9797919
REMARK  5 active torsions:
REMARK  status: ('A' for Active; 'I' for Inactive)
REMARK    1  A    between atoms: C_1  and  N_18
REMARK    2  A    between atoms: C_2  and  C_9
REMARK    3  A    between atoms: N_8  and  C_12
REMARK    4  A    between atoms: N_18  and  C_20
REMARK    5  A    between atoms: C_20  and  C_22
REMARK                            x       y       z     vdW  Elec       q    Type
REMARK                         _______ _______ _______ _____ _____    ______ ____
ROOT
ATOM      1  C   UNL     1      34.791 -23.088 -16.757  0.00  0.00    +0.049 C 
ATOM      2  C   UNL     1      35.720 -22.373 -17.513  0.00  0.00    +0.067 C 
ATOM      3  C   UNL     1      35.105 -23.478 -15.454  0.00  0.00    +0.014 C 
ATOM      4  C   UNL     1      36.962 -22.049 -16.967  0.00  0.00    +0.006 C 
ATOM      5  C   UNL     1      36.347 -23.153 -14.909  0.00  0.00    +0.001 C 
ATOM      6  C   UNL     1      37.276 -22.438 -15.666  0.00  0.00    +0.000 C 
ENDROOT
BRANCH   2   9
ATOM      7  O   UNL     1      34.861 -22.747 -19.642  0.00  0.00    -0.270 OA
ATOM      8  N   UNL     1      35.791 -20.639 -19.200  0.00  0.00    -0.280 N 
ATOM      9  C   UNL     1      35.424 -21.951 -18.877  0.00  0.00    +0.251 C 
ATOM     10  H   UNL     1      36.231 -20.128 -18.484  0.00  0.00    +0.155 HD
BRANCH   8  12
ATOM     11 CL   UNL     1      35.030 -17.778 -24.311  0.00  0.00    -0.082 Cl
ATOM     12  C   UNL     1      35.609 -19.952 -20.425  0.00  0.00    +0.051 C 
ATOM     13  C   UNL     1      36.668 -19.246 -20.970  0.00  0.00    +0.016 C 
ATOM     14  C   UNL     1      34.375 -20.003 -21.052  0.00  0.00    +0.016 C 
ATOM     15  C   UNL     1      36.488 -18.570 -22.177  0.00  0.00    +0.013 C 
ATOM     16  C   UNL     1      34.195 -19.327 -22.259  0.00  0.00    +0.013 C 
ATOM     17  C   UNL     1      35.252 -18.611 -22.821  0.00  0.00    +0.058 C 
ENDBRANCH   8  12
ENDBRANCH   2   9
BRANCH   1  18
ATOM     18  N   UNL     1      33.527 -23.426 -17.290  0.00  0.00    -0.329 N 
ATOM     19  H   UNL     1      33.469 -24.183 -17.919  0.00  0.00    +0.147 HD
BRANCH  18  20
ATOM     20  C   UNL     1      32.331 -22.720 -16.957  0.00  0.00    +0.114 C 
BRANCH  20  22
ATOM     21  N   UNL     1      30.286 -24.507 -13.641  0.00  0.00    -0.242 NA
ATOM     22  C   UNL     1      31.614 -23.345 -15.796  0.00  0.00    +0.000 C 
ATOM     23  C   UNL     1      30.745 -24.401 -16.012  0.00  0.00    +0.018 C 
ATOM     24  C   UNL     1      31.827 -22.861 -14.515  0.00  0.00    +0.018 C 
ATOM     25  C   UNL     1      30.110 -24.945 -14.908  0.00  0.00    +0.099 C 
ATOM     26  C   UNL     1      31.142 -23.473 -13.477  0.00  0.00    +0.099 C 
ENDBRANCH  20  22
ENDBRANCH  18  20
ENDBRANCH   1  18
TORSDOF 5
ENDMDL
