MODEL 1
REMARK VINA RESULT:      -7.8      0.000      0.000
REMARK  Name = 5327045
REMARK  6 active torsions:
REMARK  status: ('A' for Active; 'I' for Inactive)
REMARK    1  A    between atoms: C_4  and  O_14
REMARK    2  A    between atoms: C_6  and  C_11
REMARK    3  A    between atoms: C_11  and  O_12
REMARK    4  A    between atoms: O_14  and  C_15
REMARK    5  A    between atoms: C_15  and  C_17
REMARK    6  A    between atoms: C_17  and  O_18
REMARK                            x       y       z     vdW  Elec       q    Type
REMARK                         _______ _______ _______ _____ _____    ______ ____
ROOT
ATOM      1  S   UNL     1      34.758 -24.090 -13.919  0.00  0.00    -0.058 S 
ATOM      2  N   UNL     1      34.950 -22.743 -16.207  0.00  0.00    -0.237 NA
ATOM      3  C   UNL     1      36.990 -23.441 -15.048  0.00  0.00    +0.059 A 
ATOM      4  C   UNL     1      37.324 -24.150 -13.849  0.00  0.00    +0.153 A 
ATOM      5  C   UNL     1      35.610 -23.344 -15.194  0.00  0.00    +0.114 A 
ATOM      6  C   UNL     1      36.211 -24.557 -13.147  0.00  0.00    +0.140 A 
ATOM      7  C   UNL     1      37.778 -22.852 -16.057  0.00  0.00    +0.007 C 
ATOM      8  C   UNL     1      37.143 -22.219 -17.120  0.00  0.00    +0.021 C 
ATOM      9  C   UNL     1      35.760 -22.198 -17.139  0.00  0.00    +0.099 C 
ENDROOT
BRANCH   6  11
ATOM     10  O   UNL     1      35.521 -24.929 -10.886  0.00  0.00    -0.244 OA
ATOM     11  C   UNL     1      36.134 -25.281 -11.919  0.00  0.00    +0.347 C 
BRANCH  11  12
ATOM     12  O   UNL     1      36.817 -26.470 -11.942  0.00  0.00    -0.477 OA
ATOM     13  H   UNL     1      37.185 -26.783 -12.744  0.00  0.00    +0.295 HD
ENDBRANCH  11  12
ENDBRANCH   6  11
BRANCH   4  14
ATOM     14  O   UNL     1      38.577 -24.407 -13.429  0.00  0.00    -0.463 OA
BRANCH  14  15
ATOM     15  C   UNL     1      39.213 -25.594 -13.920  0.00  0.00    +0.314 C 
BRANCH  15  17
ATOM     16  O   UNL     1      41.219 -24.410 -14.612  0.00  0.00    -0.246 OA
ATOM     17  C   UNL     1      40.337 -25.222 -14.847  0.00  0.00    +0.359 C 
BRANCH  17  18
ATOM     18  O   UNL     1      40.240 -25.922 -16.005  0.00  0.00    -0.478 OA
ATOM     19  H   UNL     1      40.271 -26.859 -15.990  0.00  0.00    +0.295 HD
ENDBRANCH  17  18
ENDBRANCH  15  17
ENDBRANCH  14  15
ENDBRANCH   4  14
TORSDOF 6
ENDMDL
MODEL 2
REMARK VINA RESULT:      -7.4      2.873      3.770
REMARK  Name = 5327045
REMARK  6 active torsions:
REMARK  status: ('A' for Active; 'I' for Inactive)
REMARK    1  A    between atoms: C_4  and  O_14
REMARK    2  A    between atoms: C_6  and  C_11
REMARK    3  A    between atoms: C_11  and  O_12
REMARK    4  A    between atoms: O_14  and  C_15
REMARK    5  A    between atoms: C_15  and  C_17
REMARK    6  A    between atoms: C_17  and  O_18
REMARK                            x       y       z     vdW  Elec       q    Type
REMARK                         _______ _______ _______ _____ _____    ______ ____
ROOT
ATOM      1  S   UNL     1      32.114 -23.434 -16.347  0.00  0.00    -0.058 S 
ATOM      2  N   UNL     1      32.828 -22.412 -18.698  0.00  0.00    -0.237 NA
ATOM      3  C   UNL     1      34.530 -22.770 -16.975  0.00  0.00    +0.059 A 
ATOM      4  C   UNL     1      34.576 -23.273 -15.635  0.00  0.00    +0.153 A 
ATOM      5  C   UNL     1      33.231 -22.808 -17.472  0.00  0.00    +0.114 A 
ATOM      6  C   UNL     1      33.338 -23.666 -15.175  0.00  0.00    +0.140 A 
ATOM      7  C   UNL     1      35.525 -22.266 -17.837  0.00  0.00    +0.007 C 
ATOM      8  C   UNL     1      35.158 -21.844 -19.111  0.00  0.00    +0.021 C 
ATOM      9  C   UNL     1      33.826 -21.939 -19.474  0.00  0.00    +0.099 C 
ENDROOT
BRANCH   6  11
ATOM     10  O   UNL     1      32.068 -25.044 -13.687  0.00  0.00    -0.244 OA
ATOM     11  C   UNL     1      32.979 -24.215 -13.907  0.00  0.00    +0.347 C 
BRANCH  11  12
ATOM     12  O   UNL     1      33.747 -23.747 -12.872  0.00  0.00    -0.477 OA
ATOM     13  H   UNL     1      33.429 -23.054 -12.328  0.00  0.00    +0.295 HD
ENDBRANCH  11  12
ENDBRANCH   6  11
BRANCH   4  14
ATOM     14  O   UNL     1      35.687 -23.365 -14.882  0.00  0.00    -0.463 OA
BRANCH  14  15
ATOM     15  C   UNL     1      36.696 -24.296 -15.296  0.00  0.00    +0.314 C 
BRANCH  15  17
ATOM     16  O   UNL     1      36.173 -26.641 -15.666  0.00  0.00    -0.246 OA
ATOM     17  C   UNL     1      36.290 -25.690 -14.907  0.00  0.00    +0.359 C 
BRANCH  17  18
ATOM     18  O   UNL     1      36.065 -25.757 -13.570  0.00  0.00    -0.478 OA
ATOM     19  H   UNL     1      35.910 -24.973 -13.082  0.00  0.00    +0.295 HD
ENDBRANCH  17  18
ENDBRANCH  15  17
ENDBRANCH  14  15
ENDBRANCH   4  14
TORSDOF 6
ENDMDL
MODEL 3
REMARK VINA RESULT:      -7.4      5.636      7.531
REMARK  Name = 5327045
REMARK  6 active torsions:
REMARK  status: ('A' for Active; 'I' for Inactive)
REMARK    1  A    between atoms: C_4  and  O_14
REMARK    2  A    between atoms: C_6  and  C_11
REMARK    3  A    between atoms: C_11  and  O_12
REMARK    4  A    between atoms: O_14  and  C_15
REMARK    5  A    between atoms: C_15  and  C_17
REMARK    6  A    between atoms: C_17  and  O_18
REMARK                            x       y       z     vdW  Elec       q    Type
REMARK                         _______ _______ _______ _____ _____    ______ ____
ROOT
ATOM      1  S   UNL     1      33.411 -23.946 -14.345  0.00  0.00    -0.058 S 
ATOM      2  N   UNL     1      35.070 -23.030 -16.213  0.00  0.00    -0.237 NA
ATOM      3  C   UNL     1      32.688 -23.256 -16.727  0.00  0.00    +0.059 A 
ATOM      4  C   UNL     1      31.504 -23.687 -16.045  0.00  0.00    +0.153 A 
ATOM      5  C   UNL     1      33.799 -23.353 -15.896  0.00  0.00    +0.114 A 
ATOM      6  C   UNL     1      31.756 -24.086 -14.751  0.00  0.00    +0.140 A 
ATOM      7  C   UNL     1      32.911 -22.774 -18.033  0.00  0.00    +0.007 C 
ATOM      8  C   UNL     1      34.206 -22.429 -18.407  0.00  0.00    +0.021 C 
ATOM      9  C   UNL     1      35.219 -22.576 -17.476  0.00  0.00    +0.099 C 
ENDROOT
BRANCH   6  11
ATOM     10  O   UNL     1      30.742 -24.169 -12.585  0.00  0.00    -0.244 OA
ATOM     11  C   UNL     1      30.846 -24.575 -13.764  0.00  0.00    +0.347 C 
BRANCH  11  12
ATOM     12  O   UNL     1      30.035 -25.583 -14.219  0.00  0.00    -0.477 OA
ATOM     13  H   UNL     1      30.402 -26.296 -14.703  0.00  0.00    +0.295 HD
ENDBRANCH  11  12
ENDBRANCH   6  11
BRANCH   4  14
ATOM     14  O   UNL     1      30.270 -23.713 -16.582  0.00  0.00    -0.463 OA
BRANCH  14  15
ATOM     15  C   UNL     1      29.427 -22.573 -16.364  0.00  0.00    +0.314 C 
BRANCH  15  17
ATOM     16  O   UNL     1      27.697 -23.837 -17.511  0.00  0.00    -0.246 OA
ATOM     17  C   UNL     1      28.104 -22.782 -17.046  0.00  0.00    +0.359 C 
BRANCH  17  18
ATOM     18  O   UNL     1      27.405 -21.619 -17.080  0.00  0.00    -0.478 OA
ATOM     19  H   UNL     1      27.087 -21.289 -17.897  0.00  0.00    +0.295 HD
ENDBRANCH  17  18
ENDBRANCH  15  17
ENDBRANCH  14  15
ENDBRANCH   4  14
TORSDOF 6
ENDMDL
MODEL 4
REMARK VINA RESULT:      -7.4      2.367      2.846
REMARK  Name = 5327045
REMARK  6 active torsions:
REMARK  status: ('A' for Active; 'I' for Inactive)
REMARK    1  A    between atoms: C_4  and  O_14
REMARK    2  A    between atoms: C_6  and  C_11
REMARK    3  A    between atoms: C_11  and  O_12
REMARK    4  A    between atoms: O_14  and  C_15
REMARK    5  A    between atoms: C_15  and  C_17
REMARK    6  A    between atoms: C_17  and  O_18
REMARK                            x       y       z     vdW  Elec       q    Type
REMARK                         _______ _______ _______ _____ _____    ______ ____
ROOT
ATOM      1  S   UNL     1      33.390 -23.648 -16.033  0.00  0.00    -0.058 S 
ATOM      2  N   UNL     1      34.603 -22.557 -18.136  0.00  0.00    -0.237 NA
ATOM      3  C   UNL     1      35.771 -22.646 -15.986  0.00  0.00    +0.059 A 
ATOM      4  C   UNL     1      35.498 -23.123 -14.664  0.00  0.00    +0.153 A 
ATOM      5  C   UNL     1      34.687 -22.878 -16.827  0.00  0.00    +0.114 A 
ATOM      6  C   UNL     1      34.246 -23.687 -14.553  0.00  0.00    +0.140 A 
ATOM      7  C   UNL     1      36.893 -22.012 -16.557  0.00  0.00    +0.007 C 
ATOM      8  C   UNL     1      36.854 -21.661 -17.902  0.00  0.00    +0.021 C 
ATOM      9  C   UNL     1      35.709 -21.953 -18.622  0.00  0.00    +0.099 C 
ENDROOT
BRANCH   6  11
ATOM     10  O   UNL     1      32.385 -24.348 -13.203  0.00  0.00    -0.244 OA
ATOM     11  C   UNL     1      33.616 -24.268 -13.411  0.00  0.00    +0.347 C 
BRANCH  11  12
ATOM     12  O   UNL     1      34.503 -24.769 -12.493  0.00  0.00    -0.477 OA
ATOM     13  H   UNL     1      34.436 -24.519 -11.593  0.00  0.00    +0.295 HD
ENDBRANCH  11  12
ENDBRANCH   6  11
BRANCH   4  14
ATOM     14  O   UNL     1      36.349 -23.044 -13.624  0.00  0.00    -0.463 OA
BRANCH  14  15
ATOM     15  C   UNL     1      37.459 -23.951 -13.602  0.00  0.00    +0.314 C 
BRANCH  15  17
ATOM     16  O   UNL     1      38.765 -23.312 -11.656  0.00  0.00    -0.246 OA
ATOM     17  C   UNL     1      37.984 -24.078 -12.200  0.00  0.00    +0.359 C 
BRANCH  17  18
ATOM     18  O   UNL     1      37.465 -25.180 -11.602  0.00  0.00    -0.478 OA
ATOM     19  H   UNL     1      36.591 -25.162 -11.265  0.00  0.00    +0.295 HD
ENDBRANCH  17  18
ENDBRANCH  15  17
ENDBRANCH  14  15
ENDBRANCH   4  14
TORSDOF 6
ENDMDL
MODEL 5
REMARK VINA RESULT:      -7.3      4.280      6.271
REMARK  Name = 5327045
REMARK  6 active torsions:
REMARK  status: ('A' for Active; 'I' for Inactive)
REMARK    1  A    between atoms: C_4  and  O_14
REMARK    2  A    between atoms: C_6  and  C_11
REMARK    3  A    between atoms: C_11  and  O_12
REMARK    4  A    between atoms: O_14  and  C_15
REMARK    5  A    between atoms: C_15  and  C_17
REMARK    6  A    between atoms: C_17  and  O_18
REMARK                            x       y       z     vdW  Elec       q    Type
REMARK                         _______ _______ _______ _____ _____    ______ ____
ROOT
ATOM      1  S   UNL     1      35.562 -23.261 -15.114  0.00  0.00    -0.058 S 
ATOM      2  N   UNL     1      35.896 -22.335 -17.586  0.00  0.00    -0.237 NA
ATOM      3  C   UNL     1      33.670 -23.049 -16.860  0.00  0.00    +0.059 A 
ATOM      4  C   UNL     1      33.076 -23.584 -15.671  0.00  0.00    +0.153 A 
ATOM      5  C   UNL     1      35.031 -22.831 -16.675  0.00  0.00    +0.114 A 
ATOM      6  C   UNL     1      33.989 -23.748 -14.652  0.00  0.00    +0.140 A 
ATOM      7  C   UNL     1      33.139 -22.722 -18.124  0.00  0.00    +0.007 C 
ATOM      8  C   UNL     1      33.992 -22.208 -19.096  0.00  0.00    +0.021 C 
ATOM      9  C   UNL     1      35.327 -22.042 -18.776  0.00  0.00    +0.099 C 
ENDROOT
BRANCH   6  11
ATOM     10  O   UNL     1      34.464 -23.966 -12.317  0.00  0.00    -0.244 OA
ATOM     11  C   UNL     1      33.785 -24.247 -13.330  0.00  0.00    +0.347 C 
BRANCH  11  12
ATOM     12  O   UNL     1      32.725 -25.111 -13.229  0.00  0.00    -0.477 OA
ATOM     13  H   UNL     1      32.861 -26.033 -13.322  0.00  0.00    +0.295 HD
ENDBRANCH  11  12
ENDBRANCH   6  11
BRANCH   4  14
ATOM     14  O   UNL     1      31.776 -23.902 -15.534  0.00  0.00    -0.463 OA
BRANCH  14  15
ATOM     15  C   UNL     1      30.859 -22.840 -15.241  0.00  0.00    +0.314 C 
BRANCH  15  17
ATOM     16  O   UNL     1      28.663 -23.834 -15.548  0.00  0.00    -0.246 OA
ATOM     17  C   UNL     1      29.551 -23.091 -15.938  0.00  0.00    +0.359 C 
BRANCH  17  18
ATOM     18  O   UNL     1      29.484 -22.367 -17.085  0.00  0.00    -0.478 OA
ATOM     19  H   UNL     1      28.722 -22.422 -17.628  0.00  0.00    +0.295 HD
ENDBRANCH  17  18
ENDBRANCH  15  17
ENDBRANCH  14  15
ENDBRANCH   4  14
TORSDOF 6
ENDMDL
MODEL 6
REMARK VINA RESULT:      -7.3     12.119     13.797
REMARK  Name = 5327045
REMARK  6 active torsions:
REMARK  status: ('A' for Active; 'I' for Inactive)
REMARK    1  A    between atoms: C_4  and  O_14
REMARK    2  A    between atoms: C_6  and  C_11
REMARK    3  A    between atoms: C_11  and  O_12
REMARK    4  A    between atoms: O_14  and  C_15
REMARK    5  A    between atoms: C_15  and  C_17
REMARK    6  A    between atoms: C_17  and  O_18
REMARK                            x       y       z     vdW  Elec       q    Type
REMARK                         _______ _______ _______ _____ _____    ______ ____
ROOT
ATOM      1  S   UNL     1      33.383 -14.832 -25.363  0.00  0.00    -0.058 S 
ATOM      2  N   UNL     1      33.984 -17.411 -25.626  0.00  0.00    -0.237 NA
ATOM      3  C   UNL     1      34.609 -16.234 -23.573  0.00  0.00    +0.059 A 
ATOM      4  C   UNL     1      34.483 -14.909 -23.044  0.00  0.00    +0.153 A 
ATOM      5  C   UNL     1      34.042 -16.315 -24.841  0.00  0.00    +0.114 A 
ATOM      6  C   UNL     1      33.839 -14.053 -23.911  0.00  0.00    +0.140 A 
ATOM      7  C   UNL     1      35.181 -17.414 -23.056  0.00  0.00    +0.007 C 
ATOM      8  C   UNL     1      35.146 -18.570 -23.829  0.00  0.00    +0.021 C 
ATOM      9  C   UNL     1      34.549 -18.508 -25.076  0.00  0.00    +0.099 C 
ENDROOT
BRANCH   6  11
ATOM     10  O   UNL     1      32.592 -12.196 -23.062  0.00  0.00    -0.244 OA
ATOM     11  C   UNL     1      33.527 -12.669 -23.746  0.00  0.00    +0.347 C 
BRANCH  11  12
ATOM     12  O   UNL     1      34.371 -11.833 -24.429  0.00  0.00    -0.477 OA
ATOM     13  H   UNL     1      34.603 -11.002 -24.065  0.00  0.00    +0.295 HD
ENDBRANCH  11  12
ENDBRANCH   6  11
BRANCH   4  14
ATOM     14  O   UNL     1      34.932 -14.513 -21.839  0.00  0.00    -0.463 OA
BRANCH  14  15
ATOM     15  C   UNL     1      34.343 -15.114 -20.679  0.00  0.00    +0.314 C 
BRANCH  15  17
ATOM     16  O   UNL     1      32.007 -15.753 -20.881  0.00  0.00    -0.246 OA
ATOM     17  C   UNL     1      32.856 -14.895 -20.692  0.00  0.00    +0.359 C 
BRANCH  17  18
ATOM     18  O   UNL     1      32.573 -13.587 -20.462  0.00  0.00    -0.478 OA
ATOM     19  H   UNL     1      32.997 -13.134 -19.761  0.00  0.00    +0.295 HD
ENDBRANCH  17  18
ENDBRANCH  15  17
ENDBRANCH  14  15
ENDBRANCH   4  14
TORSDOF 6
ENDMDL
MODEL 7
REMARK VINA RESULT:      -7.3     11.169     13.227
REMARK  Name = 5327045
REMARK  6 active torsions:
REMARK  status: ('A' for Active; 'I' for Inactive)
REMARK    1  A    between atoms: C_4  and  O_14
REMARK    2  A    between atoms: C_6  and  C_11
REMARK    3  A    between atoms: C_11  and  O_12
REMARK    4  A    between atoms: O_14  and  C_15
REMARK    5  A    between atoms: C_15  and  C_17
REMARK    6  A    between atoms: C_17  and  O_18
REMARK                            x       y       z     vdW  Elec       q    Type
REMARK                         _______ _______ _______ _____ _____    ______ ____
ROOT
ATOM      1  S   UNL     1      33.147 -13.582 -24.522  0.00  0.00    -0.058 S 
ATOM      2  N   UNL     1      32.155 -12.034 -22.598  0.00  0.00    -0.237 NA
ATOM      3  C   UNL     1      32.918 -14.294 -22.050  0.00  0.00    +0.059 A 
ATOM      4  C   UNL     1      33.491 -15.406 -22.748  0.00  0.00    +0.153 A 
ATOM      5  C   UNL     1      32.684 -13.233 -22.919  0.00  0.00    +0.114 A 
ATOM      6  C   UNL     1      33.667 -15.153 -24.091  0.00  0.00    +0.140 A 
ATOM      7  C   UNL     1      32.565 -14.098 -20.699  0.00  0.00    +0.007 C 
ATOM      8  C   UNL     1      32.016 -12.878 -20.320  0.00  0.00    +0.021 C 
ATOM      9  C   UNL     1      31.839 -11.909 -21.291  0.00  0.00    +0.099 C 
ENDROOT
BRANCH   6  11
ATOM     10  O   UNL     1      33.752 -16.151 -26.263  0.00  0.00    -0.244 OA
ATOM     11  C   UNL     1      34.204 -16.001 -25.106  0.00  0.00    +0.347 C 
BRANCH  11  12
ATOM     12  O   UNL     1      35.322 -16.688 -24.709  0.00  0.00    -0.477 OA
ATOM     13  H   UNL     1      35.241 -17.423 -24.134  0.00  0.00    +0.295 HD
ENDBRANCH  11  12
ENDBRANCH   6  11
BRANCH   4  14
ATOM     14  O   UNL     1      33.829 -16.580 -22.184  0.00  0.00    -0.463 OA
BRANCH  14  15
ATOM     15  C   UNL     1      34.990 -16.604 -21.343  0.00  0.00    +0.314 C 
BRANCH  15  17
ATOM     16  O   UNL     1      35.587 -18.842 -20.610  0.00  0.00    -0.246 OA
ATOM     17  C   UNL     1      35.659 -17.946 -21.438  0.00  0.00    +0.359 C 
BRANCH  17  18
ATOM     18  O   UNL     1      36.370 -18.036 -22.590  0.00  0.00    -0.478 OA
ATOM     19  H   UNL     1      36.587 -18.877 -22.942  0.00  0.00    +0.295 HD
ENDBRANCH  17  18
ENDBRANCH  15  17
ENDBRANCH  14  15
ENDBRANCH   4  14
TORSDOF 6
ENDMDL
MODEL 8
REMARK VINA RESULT:      -7.2      2.624      4.413
REMARK  Name = 5327045
REMARK  6 active torsions:
REMARK  status: ('A' for Active; 'I' for Inactive)
REMARK    1  A    between atoms: C_4  and  O_14
REMARK    2  A    between atoms: C_6  and  C_11
REMARK    3  A    between atoms: C_11  and  O_12
REMARK    4  A    between atoms: O_14  and  C_15
REMARK    5  A    between atoms: C_15  and  C_17
REMARK    6  A    between atoms: C_17  and  O_18
REMARK                            x       y       z     vdW  Elec       q    Type
REMARK                         _______ _______ _______ _____ _____    ______ ____
ROOT
ATOM      1  S   UNL     1      34.927 -23.145 -16.457  0.00  0.00    -0.058 S 
ATOM      2  N   UNL     1      32.268 -23.191 -16.347  0.00  0.00    -0.237 NA
ATOM      3  C   UNL     1      33.565 -24.010 -14.440  0.00  0.00    +0.059 A 
ATOM      4  C   UNL     1      34.948 -24.157 -14.097  0.00  0.00    +0.153 A 
ATOM      5  C   UNL     1      33.428 -23.465 -15.712  0.00  0.00    +0.114 A 
ATOM      6  C   UNL     1      35.790 -23.727 -15.100  0.00  0.00    +0.140 A 
ATOM      7  C   UNL     1      32.376 -24.308 -13.744  0.00  0.00    +0.007 C 
ATOM      8  C   UNL     1      31.156 -24.045 -14.359  0.00  0.00    +0.021 C 
ATOM      9  C   UNL     1      31.167 -23.499 -15.630  0.00  0.00    +0.099 C 
ENDROOT
BRANCH   6  11
ATOM     10  O   UNL     1      37.938 -22.802 -15.602  0.00  0.00    -0.244 OA
ATOM     11  C   UNL     1      37.217 -23.712 -15.135  0.00  0.00    +0.347 C 
BRANCH  11  12
ATOM     12  O   UNL     1      37.790 -24.830 -14.586  0.00  0.00    -0.477 OA
ATOM     13  H   UNL     1      38.664 -25.071 -14.819  0.00  0.00    +0.295 HD
ENDBRANCH  11  12
ENDBRANCH   6  11
BRANCH   4  14
ATOM     14  O   UNL     1      35.407 -24.657 -12.935  0.00  0.00    -0.463 OA
BRANCH  14  15
ATOM     15  C   UNL     1      35.562 -23.749 -11.836  0.00  0.00    +0.314 C 
BRANCH  15  17
ATOM     16  O   UNL     1      37.820 -24.557 -11.449  0.00  0.00    -0.246 OA
ATOM     17  C   UNL     1      37.015 -23.638 -11.469  0.00  0.00    +0.359 C 
BRANCH  17  18
ATOM     18  O   UNL     1      37.323 -22.355 -11.155  0.00  0.00    -0.478 OA
ATOM     19  H   UNL     1      37.051 -21.657 -11.718  0.00  0.00    +0.295 HD
ENDBRANCH  17  18
ENDBRANCH  15  17
ENDBRANCH  14  15
ENDBRANCH   4  14
TORSDOF 6
ENDMDL
MODEL 9
REMARK VINA RESULT:      -7.2      2.857      5.074
REMARK  Name = 5327045
REMARK  6 active torsions:
REMARK  status: ('A' for Active; 'I' for Inactive)
REMARK    1  A    between atoms: C_4  and  O_14
REMARK    2  A    between atoms: C_6  and  C_11
REMARK    3  A    between atoms: C_11  and  O_12
REMARK    4  A    between atoms: O_14  and  C_15
REMARK    5  A    between atoms: C_15  and  C_17
REMARK    6  A    between atoms: C_17  and  O_18
REMARK                            x       y       z     vdW  Elec       q    Type
REMARK                         _______ _______ _______ _____ _____    ______ ____
ROOT
ATOM      1  S   UNL     1      37.177 -22.154 -16.265  0.00  0.00    -0.058 S 
ATOM      2  N   UNL     1      36.352 -21.312 -18.652  0.00  0.00    -0.237 NA
ATOM      3  C   UNL     1      34.855 -22.671 -17.272  0.00  0.00    +0.059 A 
ATOM      4  C   UNL     1      34.896 -23.301 -15.987  0.00  0.00    +0.153 A 
ATOM      5  C   UNL     1      36.050 -22.010 -17.536  0.00  0.00    +0.114 A 
ATOM      6  C   UNL     1      36.095 -23.100 -15.338  0.00  0.00    +0.140 A 
ATOM      7  C   UNL     1      33.860 -22.606 -18.269  0.00  0.00    +0.007 C 
ATOM      8  C   UNL     1      34.125 -21.899 -19.437  0.00  0.00    +0.021 C 
ATOM      9  C   UNL     1      35.360 -21.289 -19.567  0.00  0.00    +0.099 C 
ENDROOT
BRANCH   6  11
ATOM     10  O   UNL     1      37.527 -24.256 -13.809  0.00  0.00    -0.244 OA
ATOM     11  C   UNL     1      36.514 -23.563 -14.054  0.00  0.00    +0.347 C 
BRANCH  11  12
ATOM     12  O   UNL     1      35.685 -23.172 -13.035  0.00  0.00    -0.477 OA
ATOM     13  H   UNL     1      35.643 -23.676 -12.246  0.00  0.00    +0.295 HD
ENDBRANCH  11  12
ENDBRANCH   6  11
BRANCH   4  14
ATOM     14  O   UNL     1      33.894 -24.018 -15.446  0.00  0.00    -0.463 OA
BRANCH  14  15
ATOM     15  C   UNL     1      32.794 -23.297 -14.875  0.00  0.00    +0.314 C 
BRANCH  15  17
ATOM     16  O   UNL     1      31.216 -23.868 -13.118  0.00  0.00    -0.246 OA
ATOM     17  C   UNL     1      32.315 -23.999 -13.635  0.00  0.00    +0.359 C 
BRANCH  17  18
ATOM     18  O   UNL     1      33.286 -24.817 -13.155  0.00  0.00    -0.478 OA
ATOM     19  H   UNL     1      34.069 -24.451 -12.793  0.00  0.00    +0.295 HD
ENDBRANCH  17  18
ENDBRANCH  15  17
ENDBRANCH  14  15
ENDBRANCH   4  14
TORSDOF 6
ENDMDL
