MODEL 1
REMARK VINA RESULT:      -7.5      0.000      0.000
REMARK  Name = 69736
REMARK  2 active torsions:
REMARK  status: ('A' for Active; 'I' for Inactive)
REMARK    1  A    between atoms: CA_9  and  C_16
REMARK    2  A    between atoms: C_16  and  O_17
REMARK                            x       y       z     vdW  Elec       q    Type
REMARK                         _______ _______ _______ _____ _____    ______ ____
ROOT
ATOM      1  O   UNL     1      36.971 -26.203 -11.804  0.00  0.00    -0.206 OA
ATOM      2  N   UNL     1      38.361 -24.818 -15.287  0.00  0.00    -0.259 N 
ATOM      3  N   UNL     1      35.264 -24.854 -13.352  0.00  0.00    -0.391 NA
ATOM      4  N   UNL     1      36.215 -23.872 -15.805  0.00  0.00    -0.246 NA
ATOM      5  N   UNL     1      38.743 -26.001 -13.255  0.00  0.00    -0.300 NA
ATOM      6  N   UNL     1      40.435 -25.699 -14.849  0.00  0.00    -0.320 N 
ATOM      7  C   UNL     1      37.023 -24.562 -14.971  0.00  0.00    +0.173 C 
ATOM      8  C   UNL     1      36.534 -25.038 -13.766  0.00  0.00    +0.255 C 
ATOM      9  CA  UNL     1      34.474 -24.165 -14.196  0.00  0.00    +0.142 C 
ATOM     10  C   UNL     1      37.432 -25.792 -12.864  0.00  0.00    +0.240 C 
ATOM     11  C   UNL     1      39.148 -25.527 -14.405  0.00  0.00    +0.249 C 
ATOM     12  C   UNL     1      34.941 -23.683 -15.399  0.00  0.00    +0.183 C 
ATOM     13  H   UNL     1      38.740 -24.492 -16.136  0.00  0.00    +0.157 HD
ATOM     14  H   UNL     1      40.709 -25.329 -15.720  0.00  0.00    +0.146 HD
ATOM     15  H   UNL     1      41.084 -26.192 -14.298  0.00  0.00    +0.146 HD
ENDROOT
BRANCH   9  16
ATOM     16  C   UNL     1      33.061 -23.934 -13.786  0.00  0.00    +0.194 C 
BRANCH  16  17
ATOM     17  O   UNL     1      32.547 -25.110 -13.171  0.00  0.00    -0.375 OA
ATOM     18  H   UNL     1      32.774 -25.107 -12.228  0.00  0.00    +0.211 HD
ENDBRANCH  16  17
ENDBRANCH   9  16
TORSDOF 2
ENDMDL
MODEL 2
REMARK VINA RESULT:      -7.4     11.143     12.701
REMARK  Name = 69736
REMARK  2 active torsions:
REMARK  status: ('A' for Active; 'I' for Inactive)
REMARK    1  A    between atoms: CA_9  and  C_16
REMARK    2  A    between atoms: C_16  and  O_17
REMARK                            x       y       z     vdW  Elec       q    Type
REMARK                         _______ _______ _______ _____ _____    ______ ____
ROOT
ATOM      1  O   UNL     1      34.361 -15.192 -20.863  0.00  0.00    -0.206 OA
ATOM      2  N   UNL     1      35.667 -18.590 -22.516  0.00  0.00    -0.259 N 
ATOM      3  N   UNL     1      33.993 -15.495 -23.491  0.00  0.00    -0.391 NA
ATOM      4  N   UNL     1      34.899 -17.874 -24.676  0.00  0.00    -0.246 NA
ATOM      5  N   UNL     1      35.393 -17.227 -20.582  0.00  0.00    -0.300 NA
ATOM      6  N   UNL     1      36.423 -19.331 -20.479  0.00  0.00    -0.320 N 
ATOM      7  C   UNL     1      35.054 -17.653 -23.352  0.00  0.00    +0.173 C 
ATOM      8  C   UNL     1      34.599 -16.473 -22.788  0.00  0.00    +0.255 C 
ATOM      9  CA  UNL     1      33.848 -15.733 -24.807  0.00  0.00    +0.142 C 
ATOM     10  C   UNL     1      34.775 -16.246 -21.336  0.00  0.00    +0.240 C 
ATOM     11  C   UNL     1      35.802 -18.321 -21.171  0.00  0.00    +0.249 C 
ATOM     12  C   UNL     1      34.293 -16.901 -25.389  0.00  0.00    +0.183 C 
ATOM     13  H   UNL     1      36.002 -19.439 -22.886  0.00  0.00    +0.157 HD
ATOM     14  H   UNL     1      36.719 -20.142 -20.952  0.00  0.00    +0.146 HD
ATOM     15  H   UNL     1      36.571 -19.244 -19.510  0.00  0.00    +0.146 HD
ENDROOT
BRANCH   9  16
ATOM     16  C   UNL     1      33.184 -14.684 -25.630  0.00  0.00    +0.194 C 
BRANCH  16  17
ATOM     17  O   UNL     1      33.459 -14.915 -27.007  0.00  0.00    -0.375 OA
ATOM     18  H   UNL     1      32.711 -14.608 -27.542  0.00  0.00    +0.211 HD
ENDBRANCH  16  17
ENDBRANCH   9  16
TORSDOF 2
ENDMDL
MODEL 3
REMARK VINA RESULT:      -7.3      6.750      8.428
REMARK  Name = 69736
REMARK  2 active torsions:
REMARK  status: ('A' for Active; 'I' for Inactive)
REMARK    1  A    between atoms: CA_9  and  C_16
REMARK    2  A    between atoms: C_16  and  O_17
REMARK                            x       y       z     vdW  Elec       q    Type
REMARK                         _______ _______ _______ _____ _____    ______ ____
ROOT
ATOM      1  O   UNL     1      36.887 -21.725 -18.656  0.00  0.00    -0.206 OA
ATOM      2  N   UNL     1      32.933 -21.778 -19.239  0.00  0.00    -0.259 N 
ATOM      3  N   UNL     1      35.894 -20.026 -20.461  0.00  0.00    -0.391 NA
ATOM      4  N   UNL     1      33.120 -20.042 -20.889  0.00  0.00    -0.246 NA
ATOM      5  N   UNL     1      34.847 -22.632 -18.107  0.00  0.00    -0.300 NA
ATOM      6  N   UNL     1      32.689 -23.439 -17.673  0.00  0.00    -0.320 N 
ATOM      7  C   UNL     1      33.690 -20.876 -19.992  0.00  0.00    +0.173 C 
ATOM      8  C   UNL     1      35.061 -20.851 -19.796  0.00  0.00    +0.255 C 
ATOM      9  CA  UNL     1      35.308 -19.204 -21.350  0.00  0.00    +0.142 C 
ATOM     10  C   UNL     1      35.671 -21.770 -18.809  0.00  0.00    +0.240 C 
ATOM     11  C   UNL     1      33.559 -22.609 -18.336  0.00  0.00    +0.249 C 
ATOM     12  C   UNL     1      33.946 -19.212 -21.560  0.00  0.00    +0.183 C 
ATOM     13  H   UNL     1      31.956 -21.822 -19.355  0.00  0.00    +0.157 HD
ATOM     14  H   UNL     1      31.725 -23.398 -17.868  0.00  0.00    +0.146 HD
ATOM     15  H   UNL     1      33.029 -24.075 -17.003  0.00  0.00    +0.146 HD
ENDROOT
BRANCH   9  16
ATOM     16  C   UNL     1      36.184 -18.272 -22.111  0.00  0.00    +0.194 C 
BRANCH  16  17
ATOM     17  O   UNL     1      35.899 -18.380 -23.501  0.00  0.00    -0.375 OA
ATOM     18  H   UNL     1      34.978 -18.658 -23.621  0.00  0.00    +0.211 HD
ENDBRANCH  16  17
ENDBRANCH   9  16
TORSDOF 2
ENDMDL
MODEL 4
REMARK VINA RESULT:      -7.2     12.660     14.289
REMARK  Name = 69736
REMARK  2 active torsions:
REMARK  status: ('A' for Active; 'I' for Inactive)
REMARK    1  A    between atoms: CA_9  and  C_16
REMARK    2  A    between atoms: C_16  and  O_17
REMARK                            x       y       z     vdW  Elec       q    Type
REMARK                         _______ _______ _______ _____ _____    ______ ____
ROOT
ATOM      1  O   UNL     1      34.515 -18.102 -25.488  0.00  0.00    -0.206 OA
ATOM      2  N   UNL     1      34.700 -15.950 -22.125  0.00  0.00    -0.259 N 
ATOM      3  N   UNL     1      33.718 -15.557 -25.619  0.00  0.00    -0.391 NA
ATOM      4  N   UNL     1      33.840 -14.023 -23.271  0.00  0.00    -0.246 NA
ATOM      5  N   UNL     1      35.041 -18.020 -23.252  0.00  0.00    -0.300 NA
ATOM      6  N   UNL     1      35.525 -17.756 -20.973  0.00  0.00    -0.320 N 
ATOM      7  C   UNL     1      34.225 -15.317 -23.277  0.00  0.00    +0.173 C 
ATOM      8  C   UNL     1      34.158 -16.056 -24.447  0.00  0.00    +0.255 C 
ATOM      9  CA  UNL     1      33.338 -14.266 -25.593  0.00  0.00    +0.142 C 
ATOM     10  C   UNL     1      34.585 -17.473 -24.438  0.00  0.00    +0.240 C 
ATOM     11  C   UNL     1      35.083 -17.273 -22.179  0.00  0.00    +0.249 C 
ATOM     12  C   UNL     1      33.398 -13.514 -24.440  0.00  0.00    +0.183 C 
ATOM     13  H   UNL     1      34.760 -15.453 -21.276  0.00  0.00    +0.157 HD
ATOM     14  H   UNL     1      35.543 -17.168 -20.183  0.00  0.00    +0.146 HD
ATOM     15  H   UNL     1      35.824 -18.691 -20.897  0.00  0.00    +0.146 HD
ENDROOT
BRANCH   9  16
ATOM     16  C   UNL     1      32.844 -13.666 -26.863  0.00  0.00    +0.194 C 
BRANCH  16  17
ATOM     17  O   UNL     1      33.920 -13.562 -27.789  0.00  0.00    -0.375 OA
ATOM     18  H   UNL     1      33.610 -13.810 -28.674  0.00  0.00    +0.211 HD
ENDBRANCH  16  17
ENDBRANCH   9  16
TORSDOF 2
ENDMDL
MODEL 5
REMARK VINA RESULT:      -7.1      2.228      2.300
REMARK  Name = 69736
REMARK  2 active torsions:
REMARK  status: ('A' for Active; 'I' for Inactive)
REMARK    1  A    between atoms: CA_9  and  C_16
REMARK    2  A    between atoms: C_16  and  O_17
REMARK                            x       y       z     vdW  Elec       q    Type
REMARK                         _______ _______ _______ _____ _____    ______ ____
ROOT
ATOM      1  O   UNL     1      36.291 -27.419 -15.404  0.00  0.00    -0.206 OA
ATOM      2  N   UNL     1      39.022 -24.649 -14.481  0.00  0.00    -0.259 N 
ATOM      3  N   UNL     1      35.568 -24.860 -15.646  0.00  0.00    -0.391 NA
ATOM      4  N   UNL     1      37.468 -22.895 -15.006  0.00  0.00    -0.246 NA
ATOM      5  N   UNL     1      38.422 -26.946 -14.683  0.00  0.00    -0.300 NA
ATOM      6  N   UNL     1      40.552 -26.280 -13.963  0.00  0.00    -0.320 N 
ATOM      7  C   UNL     1      37.765 -24.208 -14.905  0.00  0.00    +0.173 C 
ATOM      8  C   UNL     1      36.813 -25.161 -15.226  0.00  0.00    +0.255 C 
ATOM      9  CA  UNL     1      35.291 -23.546 -15.740  0.00  0.00    +0.142 C 
ATOM     10  C   UNL     1      37.153 -26.597 -15.111  0.00  0.00    +0.240 C 
ATOM     11  C   UNL     1      39.279 -26.000 -14.394  0.00  0.00    +0.249 C 
ATOM     12  C   UNL     1      36.224 -22.582 -15.425  0.00  0.00    +0.183 C 
ATOM     13  H   UNL     1      39.721 -23.997 -14.244  0.00  0.00    +0.157 HD
ATOM     14  H   UNL     1      41.173 -25.546 -13.753  0.00  0.00    +0.146 HD
ATOM     15  H   UNL     1      40.844 -27.215 -13.865  0.00  0.00    +0.146 HD
ENDROOT
BRANCH   9  16
ATOM     16  C   UNL     1      33.929 -23.159 -16.200  0.00  0.00    +0.194 C 
BRANCH  16  17
ATOM     17  O   UNL     1      33.746 -23.576 -17.547  0.00  0.00    -0.375 OA
ATOM     18  H   UNL     1      32.834 -23.394 -17.821  0.00  0.00    +0.211 HD
ENDBRANCH  16  17
ENDBRANCH   9  16
TORSDOF 2
ENDMDL
MODEL 6
REMARK VINA RESULT:      -7.1      2.361      5.179
REMARK  Name = 69736
REMARK  2 active torsions:
REMARK  status: ('A' for Active; 'I' for Inactive)
REMARK    1  A    between atoms: CA_9  and  C_16
REMARK    2  A    between atoms: C_16  and  O_17
REMARK                            x       y       z     vdW  Elec       q    Type
REMARK                         _______ _______ _______ _____ _____    ______ ____
ROOT
ATOM      1  O   UNL     1      36.520 -22.997 -16.483  0.00  0.00    -0.206 OA
ATOM      2  N   UNL     1      34.983 -24.623 -13.170  0.00  0.00    -0.259 N 
ATOM      3  N   UNL     1      38.133 -24.535 -15.013  0.00  0.00    -0.391 NA
ATOM      4  N   UNL     1      37.078 -25.690 -12.682  0.00  0.00    -0.246 NA
ATOM      5  N   UNL     1      34.701 -23.255 -15.100  0.00  0.00    -0.300 NA
ATOM      6  N   UNL     1      32.955 -23.629 -13.581  0.00  0.00    -0.320 N 
ATOM      7  C   UNL     1      36.319 -24.901 -13.472  0.00  0.00    +0.173 C 
ATOM      8  C   UNL     1      36.859 -24.341 -14.617  0.00  0.00    +0.255 C 
ATOM      9  CA  UNL     1      38.874 -25.324 -14.213  0.00  0.00    +0.142 C 
ATOM     10  C   UNL     1      36.015 -23.478 -15.473  0.00  0.00    +0.240 C 
ATOM     11  C   UNL     1      34.247 -23.811 -14.006  0.00  0.00    +0.249 C 
ATOM     12  C   UNL     1      38.355 -25.891 -13.069  0.00  0.00    +0.183 C 
ATOM     13  H   UNL     1      34.568 -25.005 -12.362  0.00  0.00    +0.157 HD
ATOM     14  H   UNL     1      32.643 -24.061 -12.753  0.00  0.00    +0.146 HD
ATOM     15  H   UNL     1      32.339 -23.067 -14.104  0.00  0.00    +0.146 HD
ENDROOT
BRANCH   9  16
ATOM     16  C   UNL     1      40.289 -25.571 -14.605  0.00  0.00    +0.194 C 
BRANCH  16  17
ATOM     17  O   UNL     1      40.351 -25.879 -15.993  0.00  0.00    -0.375 OA
ATOM     18  H   UNL     1      41.163 -25.507 -16.370  0.00  0.00    +0.211 HD
ENDBRANCH  16  17
ENDBRANCH   9  16
TORSDOF 2
ENDMDL
MODEL 7
REMARK VINA RESULT:      -7.1      1.664      2.033
REMARK  Name = 69736
REMARK  2 active torsions:
REMARK  status: ('A' for Active; 'I' for Inactive)
REMARK    1  A    between atoms: CA_9  and  C_16
REMARK    2  A    between atoms: C_16  and  O_17
REMARK                            x       y       z     vdW  Elec       q    Type
REMARK                         _______ _______ _______ _____ _____    ______ ____
ROOT
ATOM      1  O   UNL     1      36.443 -26.977 -15.919  0.00  0.00    -0.206 OA
ATOM      2  N   UNL     1      38.747 -25.095 -13.248  0.00  0.00    -0.259 N 
ATOM      3  N   UNL     1      35.263 -25.178 -14.338  0.00  0.00    -0.391 NA
ATOM      4  N   UNL     1      36.858 -23.841 -12.454  0.00  0.00    -0.246 NA
ATOM      5  N   UNL     1      38.534 -26.687 -15.007  0.00  0.00    -0.300 NA
ATOM      6  N   UNL     1      40.589 -26.263 -13.962  0.00  0.00    -0.320 N 
ATOM      7  C   UNL     1      37.389 -24.764 -13.285  0.00  0.00    +0.173 C 
ATOM      8  C   UNL     1      36.584 -25.411 -14.207  0.00  0.00    +0.255 C 
ATOM      9  CA  UNL     1      34.753 -24.255 -13.501  0.00  0.00    +0.142 C 
ATOM     10  C   UNL     1      37.180 -26.420 -15.112  0.00  0.00    +0.240 C 
ATOM     11  C   UNL     1      39.243 -26.043 -14.116  0.00  0.00    +0.249 C 
ATOM     12  C   UNL     1      35.536 -23.600 -12.577  0.00  0.00    +0.183 C 
ATOM     13  H   UNL     1      39.346 -24.654 -12.603  0.00  0.00    +0.157 HD
ATOM     14  H   UNL     1      41.095 -25.762 -13.282  0.00  0.00    +0.146 HD
ATOM     15  H   UNL     1      41.049 -26.921 -14.532  0.00  0.00    +0.146 HD
ENDROOT
BRANCH   9  16
ATOM     16  C   UNL     1      33.297 -23.960 -13.604  0.00  0.00    +0.194 C 
BRANCH  16  17
ATOM     17  O   UNL     1      32.551 -25.119 -13.252  0.00  0.00    -0.375 OA
ATOM     18  H   UNL     1      32.846 -25.869 -13.791  0.00  0.00    +0.211 HD
ENDBRANCH  16  17
ENDBRANCH   9  16
TORSDOF 2
ENDMDL
MODEL 8
REMARK VINA RESULT:      -7.1     10.207     12.118
REMARK  Name = 69736
REMARK  2 active torsions:
REMARK  status: ('A' for Active; 'I' for Inactive)
REMARK    1  A    between atoms: CA_9  and  C_16
REMARK    2  A    between atoms: C_16  and  O_17
REMARK                            x       y       z     vdW  Elec       q    Type
REMARK                         _______ _______ _______ _____ _____    ______ ____
ROOT
ATOM      1  O   UNL     1      34.878 -15.335 -19.987  0.00  0.00    -0.206 OA
ATOM      2  N   UNL     1      34.289 -15.851 -23.908  0.00  0.00    -0.259 N 
ATOM      3  N   UNL     1      35.125 -17.815 -20.945  0.00  0.00    -0.391 NA
ATOM      4  N   UNL     1      34.719 -18.205 -23.696  0.00  0.00    -0.246 NA
ATOM      5  N   UNL     1      34.370 -14.396 -22.023  0.00  0.00    -0.300 NA
ATOM      6  N   UNL     1      33.868 -13.610 -24.175  0.00  0.00    -0.320 N 
ATOM      7  C   UNL     1      34.608 -16.977 -23.143  0.00  0.00    +0.173 C 
ATOM      8  C   UNL     1      34.813 -16.807 -21.784  0.00  0.00    +0.255 C 
ATOM      9  CA  UNL     1      35.230 -19.030 -21.514  0.00  0.00    +0.142 C 
ATOM     10  C   UNL     1      34.689 -15.456 -21.193  0.00  0.00    +0.240 C 
ATOM     11  C   UNL     1      34.188 -14.618 -23.300  0.00  0.00    +0.249 C 
ATOM     12  C   UNL     1      35.031 -19.221 -22.864  0.00  0.00    +0.183 C 
ATOM     13  H   UNL     1      34.136 -15.938 -24.877  0.00  0.00    +0.157 HD
ATOM     14  H   UNL     1      33.737 -13.811 -25.130  0.00  0.00    +0.146 HD
ATOM     15  H   UNL     1      33.771 -12.687 -23.848  0.00  0.00    +0.146 HD
ENDROOT
BRANCH   9  16
ATOM     16  C   UNL     1      35.573 -20.179 -20.631  0.00  0.00    +0.194 C 
BRANCH  16  17
ATOM     17  O   UNL     1      36.707 -19.846 -19.837  0.00  0.00    -0.375 OA
ATOM     18  H   UNL     1      36.916 -18.906 -19.951  0.00  0.00    +0.211 HD
ENDBRANCH  16  17
ENDBRANCH   9  16
TORSDOF 2
ENDMDL
MODEL 9
REMARK VINA RESULT:      -7.1     12.838     14.780
REMARK  Name = 69736
REMARK  2 active torsions:
REMARK  status: ('A' for Active; 'I' for Inactive)
REMARK    1  A    between atoms: CA_9  and  C_16
REMARK    2  A    between atoms: C_16  and  O_17
REMARK                            x       y       z     vdW  Elec       q    Type
REMARK                         _______ _______ _______ _____ _____    ______ ____
ROOT
ATOM      1  O   UNL     1      33.985 -17.328 -25.783  0.00  0.00    -0.206 OA
ATOM      2  N   UNL     1      33.333 -13.426 -25.203  0.00  0.00    -0.259 N 
ATOM      3  N   UNL     1      34.345 -16.381 -23.312  0.00  0.00    -0.391 NA
ATOM      4  N   UNL     1      33.892 -13.645 -22.877  0.00  0.00    -0.246 NA
ATOM      5  N   UNL     1      33.382 -15.297 -26.677  0.00  0.00    -0.300 NA
ATOM      6  N   UNL     1      32.788 -13.153 -27.416  0.00  0.00    -0.320 N 
ATOM      7  C   UNL     1      33.730 -14.191 -24.102  0.00  0.00    +0.173 C 
ATOM      8  C   UNL     1      33.959 -15.543 -24.294  0.00  0.00    +0.255 C 
ATOM      9  CA  UNL     1      34.501 -15.819 -22.099  0.00  0.00    +0.142 C 
ATOM     10  C   UNL     1      33.777 -16.127 -25.642  0.00  0.00    +0.240 C 
ATOM     11  C   UNL     1      33.181 -14.027 -26.434  0.00  0.00    +0.249 C 
ATOM     12  C   UNL     1      34.278 -14.476 -21.887  0.00  0.00    +0.183 C 
ATOM     13  H   UNL     1      33.163 -12.462 -25.100  0.00  0.00    +0.157 HD
ATOM     14  H   UNL     1      32.646 -12.202 -27.201  0.00  0.00    +0.146 HD
ATOM     15  H   UNL     1      32.649 -13.476 -28.335  0.00  0.00    +0.146 HD
ENDROOT
BRANCH   9  16
ATOM     16  C   UNL     1      34.927 -16.702 -20.979  0.00  0.00    +0.194 C 
BRANCH  16  17
ATOM     17  O   UNL     1      35.004 -15.942 -19.778  0.00  0.00    -0.375 OA
ATOM     18  H   UNL     1      34.159 -15.998 -19.305  0.00  0.00    +0.211 HD
ENDBRANCH  16  17
ENDBRANCH   9  16
TORSDOF 2
ENDMDL
