MODEL 1
REMARK VINA RESULT:     -10.9      0.000      0.000
REMARK  Name = 108144
REMARK  6 active torsions:
REMARK  status: ('A' for Active; 'I' for Inactive)
REMARK    1  A    between atoms: C_3  and  C_18
REMARK    2  A    between atoms: C_4  and  C_10
REMARK    3  A    between atoms: C_10  and  C_12
REMARK    4  A    between atoms: C_18  and  N_19
REMARK    5  A    between atoms: C_22  and  N_29
REMARK    6  A    between atoms: C_23  and  C_26
REMARK                            x       y       z     vdW  Elec       q    Type
REMARK                         _______ _______ _______ _____ _____    ______ ____
ROOT
ATOM      1 CL   UNL     1      35.014 -15.872 -20.479  0.00  0.00    -0.082 Cl
ATOM      2 CL   UNL     1      35.136 -19.025 -24.935  0.00  0.00    -0.082 Cl
ATOM      3  C   UNL     1      33.668 -15.388 -24.205  0.00  0.00    -0.003 C 
ATOM      4  C   UNL     1      35.001 -17.340 -22.786  0.00  0.00    +0.060 C 
ATOM      5  C   UNL     1      33.977 -15.184 -22.860  0.00  0.00    +0.009 C 
ATOM      6  C   UNL     1      34.033 -16.579 -24.831  0.00  0.00    +0.009 C 
ATOM      7  C   UNL     1      34.653 -16.171 -22.142  0.00  0.00    +0.061 C 
ATOM      8  C   UNL     1      34.707 -17.567 -24.114  0.00  0.00    +0.061 C 
ENDROOT
BRANCH   4  10
ATOM      9  O   UNL     1      36.959 -18.435 -22.125  0.00  0.00    -0.287 OA
ATOM     10  C   UNL     1      35.724 -18.399 -22.018  0.00  0.00    +0.197 C 
BRANCH  10  12
ATOM     11 CL   UNL     1      32.886 -22.345 -18.560  0.00  0.00    -0.082 Cl
ATOM     12  C   UNL     1      35.033 -19.360 -21.174  0.00  0.00    +0.039 C 
ATOM     13  C   UNL     1      35.761 -20.304 -20.450  0.00  0.00    +0.004 C 
ATOM     14  C   UNL     1      33.640 -19.339 -21.090  0.00  0.00    +0.004 C 
ATOM     15  C   UNL     1      35.097 -21.226 -19.642  0.00  0.00    +0.011 C 
ATOM     16  C   UNL     1      32.976 -20.263 -20.282  0.00  0.00    +0.011 C 
ATOM     17  C   UNL     1      33.705 -21.206 -19.558  0.00  0.00    +0.058 C 
ENDBRANCH  10  12
ENDBRANCH   4  10
BRANCH   3  18
ATOM     18  C   UNL     1      32.947 -14.332 -24.972  0.00  0.00    +0.124 C 
BRANCH  18  19
ATOM     19  N   UNL     1      33.023 -13.025 -24.309  0.00  0.00    -0.146 NA
ATOM     20  N   UNL     1      32.354 -12.836 -23.175  0.00  0.00    -0.061 NA
ATOM     21  N   UNL     1      32.594 -11.584 -22.802  0.00  0.00    -0.144 NA
ATOM     22  C   UNL     1      33.706 -11.937 -24.712  0.00  0.00    +0.179 C 
ATOM     23  C   UNL     1      33.420 -11.020 -23.733  0.00  0.00    +0.163 C 
BRANCH  23  26
ATOM     24  O   UNL     1      35.034  -9.310 -23.983  0.00  0.00    -0.269 OA
ATOM     25  N   UNL     1      32.989  -8.702 -23.180  0.00  0.00    -0.324 N 
ATOM     26  C   UNL     1      33.884  -9.670 -23.646  0.00  0.00    +0.261 C 
ATOM     27  H   UNL     1      33.274  -7.762 -23.107  0.00  0.00    +0.145 HD
ATOM     28  H   UNL     1      32.074  -8.959 -22.924  0.00  0.00    +0.145 HD
ENDBRANCH  23  26
BRANCH  22  29
ATOM     29  N   UNL     1      34.451 -11.904 -25.835  0.00  0.00    -0.303 NA
ATOM     30  H   UNL     1      35.061 -11.148 -25.998  0.00  0.00    +0.120 HD
ATOM     31  H   UNL     1      34.385 -12.634 -26.492  0.00  0.00    +0.120 HD
ENDBRANCH  22  29
ENDBRANCH  18  19
ENDBRANCH   3  18
TORSDOF 6
ENDMDL
MODEL 2
REMARK VINA RESULT:     -10.8      0.115      1.987
REMARK  Name = 108144
REMARK  6 active torsions:
REMARK  status: ('A' for Active; 'I' for Inactive)
REMARK    1  A    between atoms: C_3  and  C_18
REMARK    2  A    between atoms: C_4  and  C_10
REMARK    3  A    between atoms: C_10  and  C_12
REMARK    4  A    between atoms: C_18  and  N_19
REMARK    5  A    between atoms: C_22  and  N_29
REMARK    6  A    between atoms: C_23  and  C_26
REMARK                            x       y       z     vdW  Elec       q    Type
REMARK                         _______ _______ _______ _____ _____    ______ ____
ROOT
ATOM      1 CL   UNL     1      35.266 -19.099 -24.845  0.00  0.00    -0.082 Cl
ATOM      2 CL   UNL     1      35.027 -15.898 -20.429  0.00  0.00    -0.082 Cl
ATOM      3  C   UNL     1      33.747 -15.469 -24.184  0.00  0.00    -0.003 C 
ATOM      4  C   UNL     1      35.073 -17.392 -22.719  0.00  0.00    +0.060 C 
ATOM      5  C   UNL     1      34.136 -16.663 -24.791  0.00  0.00    +0.009 C 
ATOM      6  C   UNL     1      34.029 -15.248 -22.836  0.00  0.00    +0.009 C 
ATOM      7  C   UNL     1      34.806 -17.636 -24.049  0.00  0.00    +0.061 C 
ATOM      8  C   UNL     1      34.699 -16.220 -22.095  0.00  0.00    +0.061 C 
ENDROOT
BRANCH   4  10
ATOM      9  O   UNL     1      37.029 -18.445 -21.988  0.00  0.00    -0.287 OA
ATOM     10  C   UNL     1      35.791 -18.434 -21.923  0.00  0.00    +0.197 C 
BRANCH  10  12
ATOM     11 CL   UNL     1      32.918 -22.420 -18.542  0.00  0.00    -0.082 Cl
ATOM     12  C   UNL     1      35.091 -19.407 -21.101  0.00  0.00    +0.039 C 
ATOM     13  C   UNL     1      33.698 -19.387 -21.031  0.00  0.00    +0.004 C 
ATOM     14  C   UNL     1      35.812 -20.357 -20.379  0.00  0.00    +0.004 C 
ATOM     15  C   UNL     1      33.027 -20.319 -20.240  0.00  0.00    +0.011 C 
ATOM     16  C   UNL     1      35.140 -21.289 -19.587  0.00  0.00    +0.011 C 
ATOM     17  C   UNL     1      33.747 -21.270 -19.517  0.00  0.00    +0.058 C 
ENDBRANCH  10  12
ENDBRANCH   4  10
BRANCH   3  18
ATOM     18  C   UNL     1      33.030 -14.429 -24.976  0.00  0.00    +0.124 C 
BRANCH  18  19
ATOM     19  N   UNL     1      33.047 -13.123 -24.308  0.00  0.00    -0.146 NA
ATOM     20  N   UNL     1      32.342 -12.960 -23.191  0.00  0.00    -0.061 NA
ATOM     21  N   UNL     1      32.532 -11.702 -22.809  0.00  0.00    -0.144 NA
ATOM     22  C   UNL     1      33.705 -12.013 -24.691  0.00  0.00    +0.179 C 
ATOM     23  C   UNL     1      33.364 -11.108 -23.717  0.00  0.00    +0.163 C 
BRANCH  23  26
ATOM     24  O   UNL     1      34.921  -9.343 -23.940  0.00  0.00    -0.269 OA
ATOM     25  N   UNL     1      32.852  -8.811 -23.145  0.00  0.00    -0.324 N 
ATOM     26  C   UNL     1      33.782  -9.744 -23.614  0.00  0.00    +0.261 C 
ATOM     27  H   UNL     1      33.106  -7.863 -23.061  0.00  0.00    +0.145 HD
ATOM     28  H   UNL     1      31.944  -9.101 -22.898  0.00  0.00    +0.145 HD
ENDBRANCH  23  26
BRANCH  22  29
ATOM     29  N   UNL     1      34.477 -11.951 -25.793  0.00  0.00    -0.303 NA
ATOM     30  H   UNL     1      35.427 -11.702 -25.715  0.00  0.00    +0.120 HD
ATOM     31  H   UNL     1      34.093 -12.155 -26.676  0.00  0.00    +0.120 HD
ENDBRANCH  22  29
ENDBRANCH  18  19
ENDBRANCH   3  18
TORSDOF 6
ENDMDL
MODEL 3
REMARK VINA RESULT:     -10.5      1.586      2.618
REMARK  Name = 108144
REMARK  6 active torsions:
REMARK  status: ('A' for Active; 'I' for Inactive)
REMARK    1  A    between atoms: C_3  and  C_18
REMARK    2  A    between atoms: C_4  and  C_10
REMARK    3  A    between atoms: C_10  and  C_12
REMARK    4  A    between atoms: C_18  and  N_19
REMARK    5  A    between atoms: C_22  and  N_29
REMARK    6  A    between atoms: C_23  and  C_26
REMARK                            x       y       z     vdW  Elec       q    Type
REMARK                         _______ _______ _______ _____ _____    ______ ____
ROOT
ATOM      1 CL   UNL     1      34.797 -17.955 -25.134  0.00  0.00    -0.082 Cl
ATOM      2 CL   UNL     1      34.993 -15.866 -20.094  0.00  0.00    -0.082 Cl
ATOM      3  C   UNL     1      33.467 -14.548 -23.537  0.00  0.00    -0.003 C 
ATOM      4  C   UNL     1      34.820 -16.786 -22.663  0.00  0.00    +0.060 C 
ATOM      5  C   UNL     1      33.766 -15.576 -24.431  0.00  0.00    +0.009 C 
ATOM      6  C   UNL     1      33.852 -14.653 -22.200  0.00  0.00    +0.009 C 
ATOM      7  C   UNL     1      34.449 -16.708 -23.989  0.00  0.00    +0.061 C 
ATOM      8  C   UNL     1      34.536 -15.785 -21.758  0.00  0.00    +0.061 C 
ENDROOT
BRANCH   4  10
ATOM      9  O   UNL     1      36.738 -18.117 -22.531  0.00  0.00    -0.287 OA
ATOM     10  C   UNL     1      35.553 -17.999 -22.188  0.00  0.00    +0.197 C 
BRANCH  10  12
ATOM     11 CL   UNL     1      32.975 -22.158 -18.777  0.00  0.00    -0.082 Cl
ATOM     12  C   UNL     1      34.924 -19.014 -21.358  0.00  0.00    +0.039 C 
ATOM     13  C   UNL     1      33.537 -19.041 -21.219  0.00  0.00    +0.004 C 
ATOM     14  C   UNL     1      35.710 -19.959 -20.698  0.00  0.00    +0.004 C 
ATOM     15  C   UNL     1      32.935 -20.013 -20.421  0.00  0.00    +0.011 C 
ATOM     16  C   UNL     1      35.107 -20.931 -19.899  0.00  0.00    +0.011 C 
ATOM     17  C   UNL     1      33.719 -20.959 -19.761  0.00  0.00    +0.058 C 
ENDBRANCH  10  12
ENDBRANCH   4  10
BRANCH   3  18
ATOM     18  C   UNL     1      32.735 -13.338 -24.009  0.00  0.00    +0.124 C 
BRANCH  18  19
ATOM     19  N   UNL     1      32.380 -12.445 -22.901  0.00  0.00    -0.146 NA
ATOM     20  N   UNL     1      31.801 -12.958 -21.818  0.00  0.00    -0.061 NA
ATOM     21  N   UNL     1      31.589 -11.942 -20.989  0.00  0.00    -0.144 NA
ATOM     22  C   UNL     1      32.563 -11.114 -22.827  0.00  0.00    +0.179 C 
ATOM     23  C   UNL     1      32.050 -10.805 -21.592  0.00  0.00    +0.163 C 
BRANCH  23  26
ATOM     24  O   UNL     1      31.740  -8.461 -21.608  0.00  0.00    -0.269 OA
ATOM     25  N   UNL     1      32.168  -9.440 -19.595  0.00  0.00    -0.324 N 
ATOM     26  C   UNL     1      31.980  -9.515 -20.978  0.00  0.00    +0.261 C 
ATOM     27  H   UNL     1      32.126  -8.569 -19.139  0.00  0.00    +0.145 HD
ATOM     28  H   UNL     1      32.342 -10.259 -19.076  0.00  0.00    +0.145 HD
ENDBRANCH  23  26
BRANCH  22  29
ATOM     29  N   UNL     1      33.129 -10.387 -23.811  0.00  0.00    -0.303 NA
ATOM     30  H   UNL     1      33.557  -9.525 -23.602  0.00  0.00    +0.120 HD
ATOM     31  H   UNL     1      33.115 -10.718 -24.738  0.00  0.00    +0.120 HD
ENDBRANCH  22  29
ENDBRANCH  18  19
ENDBRANCH   3  18
TORSDOF 6
ENDMDL
MODEL 4
REMARK VINA RESULT:     -10.4      4.926     10.151
REMARK  Name = 108144
REMARK  6 active torsions:
REMARK  status: ('A' for Active; 'I' for Inactive)
REMARK    1  A    between atoms: C_3  and  C_18
REMARK    2  A    between atoms: C_4  and  C_10
REMARK    3  A    between atoms: C_10  and  C_12
REMARK    4  A    between atoms: C_18  and  N_19
REMARK    5  A    between atoms: C_22  and  N_29
REMARK    6  A    between atoms: C_23  and  C_26
REMARK                            x       y       z     vdW  Elec       q    Type
REMARK                         _______ _______ _______ _____ _____    ______ ____
ROOT
ATOM      1 CL   UNL     1      32.197  -7.965 -21.416  0.00  0.00    -0.082 Cl
ATOM      2 CL   UNL     1      35.396  -9.887 -25.401  0.00  0.00    -0.082 Cl
ATOM      3  C   UNL     1      32.600 -11.561 -23.099  0.00  0.00    -0.003 C 
ATOM      4  C   UNL     1      33.733  -9.065 -23.392  0.00  0.00    +0.060 C 
ATOM      5  C   UNL     1      32.179 -10.504 -22.291  0.00  0.00    +0.009 C 
ATOM      6  C   UNL     1      33.594 -11.354 -24.055  0.00  0.00    +0.009 C 
ATOM      7  C   UNL     1      32.752  -9.241 -22.440  0.00  0.00    +0.061 C 
ATOM      8  C   UNL     1      34.167 -10.092 -24.204  0.00  0.00    +0.061 C 
ENDROOT
BRANCH   4  10
ATOM      9  O   UNL     1      35.346  -7.456 -22.862  0.00  0.00    -0.287 OA
ATOM     10  C   UNL     1      34.348  -7.712 -23.553  0.00  0.00    +0.197 C 
BRANCH  10  12
ATOM     11 CL   UNL     1      32.175  -3.631 -27.321  0.00  0.00    -0.082 Cl
ATOM     12  C   UNL     1      33.818  -6.719 -24.472  0.00  0.00    +0.039 C 
ATOM     13  C   UNL     1      34.588  -6.286 -25.552  0.00  0.00    +0.004 C 
ATOM     14  C   UNL     1      32.540  -6.196 -24.273  0.00  0.00    +0.004 C 
ATOM     15  C   UNL     1      34.079  -5.331 -26.432  0.00  0.00    +0.011 C 
ATOM     16  C   UNL     1      32.032  -5.241 -25.154  0.00  0.00    +0.011 C 
ATOM     17  C   UNL     1      32.801  -4.808 -26.234  0.00  0.00    +0.058 C 
ENDBRANCH  10  12
ENDBRANCH   4  10
BRANCH   3  18
ATOM     18  C   UNL     1      31.987 -12.911 -22.940  0.00  0.00    +0.124 C 
BRANCH  18  19
ATOM     19  N   UNL     1      32.973 -13.984 -23.110  0.00  0.00    -0.146 NA
ATOM     20  N   UNL     1      33.754 -14.312 -22.084  0.00  0.00    -0.061 NA
ATOM     21  N   UNL     1      34.541 -15.293 -22.511  0.00  0.00    -0.144 NA
ATOM     22  C   UNL     1      33.210 -14.714 -24.216  0.00  0.00    +0.179 C 
ATOM     23  C   UNL     1      34.220 -15.551 -23.814  0.00  0.00    +0.163 C 
BRANCH  23  26
ATOM     24  O   UNL     1      34.840 -16.596 -25.843  0.00  0.00    -0.269 OA
ATOM     25  N   UNL     1      35.614 -17.530 -23.913  0.00  0.00    -0.324 N 
ATOM     26  C   UNL     1      34.876 -16.556 -24.593  0.00  0.00    +0.261 C 
ATOM     27  H   UNL     1      36.078 -18.237 -24.417  0.00  0.00    +0.145 HD
ATOM     28  H   UNL     1      35.669 -17.509 -22.929  0.00  0.00    +0.145 HD
ENDBRANCH  23  26
BRANCH  22  29
ATOM     29  N   UNL     1      32.537 -14.549 -25.371  0.00  0.00    -0.303 NA
ATOM     30  H   UNL     1      33.028 -14.356 -26.203  0.00  0.00    +0.120 HD
ATOM     31  H   UNL     1      31.556 -14.621 -25.384  0.00  0.00    +0.120 HD
ENDBRANCH  22  29
ENDBRANCH  18  19
ENDBRANCH   3  18
TORSDOF 6
ENDMDL
MODEL 5
REMARK VINA RESULT:     -10.4      6.009      9.634
REMARK  Name = 108144
REMARK  6 active torsions:
REMARK  status: ('A' for Active; 'I' for Inactive)
REMARK    1  A    between atoms: C_3  and  C_18
REMARK    2  A    between atoms: C_4  and  C_10
REMARK    3  A    between atoms: C_10  and  C_12
REMARK    4  A    between atoms: C_18  and  N_19
REMARK    5  A    between atoms: C_22  and  N_29
REMARK    6  A    between atoms: C_23  and  C_26
REMARK                            x       y       z     vdW  Elec       q    Type
REMARK                         _______ _______ _______ _____ _____    ______ ____
ROOT
ATOM      1 CL   UNL     1      31.920 -17.768 -20.633  0.00  0.00    -0.082 Cl
ATOM      2 CL   UNL     1      37.221 -18.806 -21.428  0.00  0.00    -0.082 Cl
ATOM      3  C   UNL     1      34.147 -21.057 -20.242  0.00  0.00    -0.003 C 
ATOM      4  C   UNL     1      34.548 -18.433 -20.989  0.00  0.00    +0.060 C 
ATOM      5  C   UNL     1      33.076 -20.164 -20.255  0.00  0.00    +0.009 C 
ATOM      6  C   UNL     1      35.421 -20.623 -20.608  0.00  0.00    +0.009 C 
ATOM      7  C   UNL     1      33.278 -18.837 -20.633  0.00  0.00    +0.061 C 
ATOM      8  C   UNL     1      35.624 -19.295 -20.986  0.00  0.00    +0.061 C 
ENDROOT
BRANCH   4  10
ATOM      9  O   UNL     1      35.278 -16.254 -20.556  0.00  0.00    -0.287 OA
ATOM     10  C   UNL     1      34.767 -17.011 -21.394  0.00  0.00    +0.197 C 
BRANCH  10  12
ATOM     11 CL   UNL     1      33.267 -14.962 -26.791  0.00  0.00    -0.082 Cl
ATOM     12  C   UNL     1      34.403 -16.511 -22.710  0.00  0.00    +0.039 C 
ATOM     13  C   UNL     1      33.777 -15.271 -22.836  0.00  0.00    +0.004 C 
ATOM     14  C   UNL     1      34.677 -17.273 -23.846  0.00  0.00    +0.004 C 
ATOM     15  C   UNL     1      33.426 -14.792 -24.098  0.00  0.00    +0.011 C 
ATOM     16  C   UNL     1      34.325 -16.794 -25.108  0.00  0.00    +0.011 C 
ATOM     17  C   UNL     1      33.700 -15.553 -25.235  0.00  0.00    +0.058 C 
ENDBRANCH  10  12
ENDBRANCH   4  10
BRANCH   3  18
ATOM     18  C   UNL     1      33.930 -22.476 -19.839  0.00  0.00    +0.124 C 
BRANCH  18  19
ATOM     19  N   UNL     1      34.272 -22.703 -18.430  0.00  0.00    -0.146 NA
ATOM     20  N   UNL     1      35.547 -22.631 -18.056  0.00  0.00    -0.061 NA
ATOM     21  N   UNL     1      35.569 -22.878 -16.751  0.00  0.00    -0.144 NA
ATOM     22  C   UNL     1      33.434 -22.992 -17.417  0.00  0.00    +0.179 C 
ATOM     23  C   UNL     1      34.282 -23.101 -16.344  0.00  0.00    +0.163 C 
BRANCH  23  26
ATOM     24  O   UNL     1      32.824 -23.860 -14.646  0.00  0.00    -0.269 OA
ATOM     25  N   UNL     1      34.905 -23.187 -14.005  0.00  0.00    -0.324 N 
ATOM     26  C   UNL     1      33.935 -23.401 -14.990  0.00  0.00    +0.261 C 
ATOM     27  H   UNL     1      34.700 -23.382 -13.062  0.00  0.00    +0.145 HD
ATOM     28  H   UNL     1      35.792 -22.841 -14.255  0.00  0.00    +0.145 HD
ENDBRANCH  23  26
BRANCH  22  29
ATOM     29  N   UNL     1      32.101 -23.115 -17.570  0.00  0.00    -0.303 NA
ATOM     30  H   UNL     1      31.651 -23.952 -17.312  0.00  0.00    +0.120 HD
ATOM     31  H   UNL     1      31.577 -22.368 -17.940  0.00  0.00    +0.120 HD
ENDBRANCH  22  29
ENDBRANCH  18  19
ENDBRANCH   3  18
TORSDOF 6
ENDMDL
MODEL 6
REMARK VINA RESULT:     -10.4      4.504     10.127
REMARK  Name = 108144
REMARK  6 active torsions:
REMARK  status: ('A' for Active; 'I' for Inactive)
REMARK    1  A    between atoms: C_3  and  C_18
REMARK    2  A    between atoms: C_4  and  C_10
REMARK    3  A    between atoms: C_10  and  C_12
REMARK    4  A    between atoms: C_18  and  N_19
REMARK    5  A    between atoms: C_22  and  N_29
REMARK    6  A    between atoms: C_23  and  C_26
REMARK                            x       y       z     vdW  Elec       q    Type
REMARK                         _______ _______ _______ _____ _____    ______ ____
ROOT
ATOM      1 CL   UNL     1      32.121  -8.115 -21.435  0.00  0.00    -0.082 Cl
ATOM      2 CL   UNL     1      35.401  -9.981 -25.381  0.00  0.00    -0.082 Cl
ATOM      3  C   UNL     1      32.562 -11.688 -23.157  0.00  0.00    -0.003 C 
ATOM      4  C   UNL     1      33.698  -9.187 -23.394  0.00  0.00    +0.060 C 
ATOM      5  C   UNL     1      32.124 -10.643 -22.343  0.00  0.00    +0.009 C 
ATOM      6  C   UNL     1      33.574 -11.468 -24.090  0.00  0.00    +0.009 C 
ATOM      7  C   UNL     1      32.698  -9.378 -22.465  0.00  0.00    +0.061 C 
ATOM      8  C   UNL     1      34.149 -10.203 -24.211  0.00  0.00    +0.061 C 
ENDROOT
BRANCH   4  10
ATOM      9  O   UNL     1      35.300  -7.585 -22.815  0.00  0.00    -0.287 OA
ATOM     10  C   UNL     1      34.314  -7.831 -23.525  0.00  0.00    +0.197 C 
BRANCH  10  12
ATOM     11 CL   UNL     1      32.197  -3.697 -27.267  0.00  0.00    -0.082 Cl
ATOM     12  C   UNL     1      33.797  -6.825 -24.438  0.00  0.00    +0.039 C 
ATOM     13  C   UNL     1      34.593  -6.357 -25.484  0.00  0.00    +0.004 C 
ATOM     14  C   UNL     1      32.506  -6.325 -24.267  0.00  0.00    +0.004 C 
ATOM     15  C   UNL     1      34.098  -5.390 -26.358  0.00  0.00    +0.011 C 
ATOM     16  C   UNL     1      32.012  -5.357 -25.141  0.00  0.00    +0.011 C 
ATOM     17  C   UNL     1      32.807  -4.890 -26.187  0.00  0.00    +0.058 C 
ENDBRANCH  10  12
ENDBRANCH   4  10
BRANCH   3  18
ATOM     18  C   UNL     1      31.947 -13.041 -23.028  0.00  0.00    +0.124 C 
BRANCH  18  19
ATOM     19  N   UNL     1      32.833 -13.981 -22.332  0.00  0.00    -0.146 NA
ATOM     20  N   UNL     1      32.988 -13.869 -21.015  0.00  0.00    -0.061 NA
ATOM     21  N   UNL     1      33.832 -14.829 -20.654  0.00  0.00    -0.144 NA
ATOM     22  C   UNL     1      33.550 -14.986 -22.869  0.00  0.00    +0.179 C 
ATOM     23  C   UNL     1      34.186 -15.522 -21.778  0.00  0.00    +0.163 C 
BRANCH  23  26
ATOM     24  O   UNL     1      35.343 -17.297 -20.729  0.00  0.00    -0.269 OA
ATOM     25  N   UNL     1      35.699 -16.997 -22.960  0.00  0.00    -0.324 N 
ATOM     26  C   UNL     1      35.089 -16.630 -21.757  0.00  0.00    +0.261 C 
ATOM     27  H   UNL     1      36.327 -17.756 -22.983  0.00  0.00    +0.145 HD
ATOM     28  H   UNL     1      35.502 -16.497 -23.786  0.00  0.00    +0.145 HD
ENDBRANCH  23  26
BRANCH  22  29
ATOM     29  N   UNL     1      33.545 -15.279 -24.185  0.00  0.00    -0.303 NA
ATOM     30  H   UNL     1      34.239 -15.869 -24.560  0.00  0.00    +0.120 HD
ATOM     31  H   UNL     1      32.849 -14.903 -24.771  0.00  0.00    +0.120 HD
ENDBRANCH  22  29
ENDBRANCH  18  19
ENDBRANCH   3  18
TORSDOF 6
ENDMDL
MODEL 7
REMARK VINA RESULT:     -10.3      4.370      8.799
REMARK  Name = 108144
REMARK  6 active torsions:
REMARK  status: ('A' for Active; 'I' for Inactive)
REMARK    1  A    between atoms: C_3  and  C_18
REMARK    2  A    between atoms: C_4  and  C_10
REMARK    3  A    between atoms: C_10  and  C_12
REMARK    4  A    between atoms: C_18  and  N_19
REMARK    5  A    between atoms: C_22  and  N_29
REMARK    6  A    between atoms: C_23  and  C_26
REMARK                            x       y       z     vdW  Elec       q    Type
REMARK                         _______ _______ _______ _____ _____    ______ ____
ROOT
ATOM      1 CL   UNL     1      33.050 -13.836 -20.643  0.00  0.00    -0.082 Cl
ATOM      2 CL   UNL     1      33.805 -15.263 -25.859  0.00  0.00    -0.082 Cl
ATOM      3  C   UNL     1      35.078 -16.790 -22.400  0.00  0.00    -0.003 C 
ATOM      4  C   UNL     1      33.515 -14.668 -23.206  0.00  0.00    +0.060 C 
ATOM      5  C   UNL     1      34.517 -15.938 -21.450  0.00  0.00    +0.009 C 
ATOM      6  C   UNL     1      34.849 -16.569 -23.758  0.00  0.00    +0.009 C 
ATOM      7  C   UNL     1      33.725 -14.864 -21.858  0.00  0.00    +0.061 C 
ATOM      8  C   UNL     1      34.058 -15.496 -24.166  0.00  0.00    +0.061 C 
ENDROOT
BRANCH   4  10
ATOM      9  O   UNL     1      31.487 -13.762 -23.940  0.00  0.00    -0.287 OA
ATOM     10  C   UNL     1      32.666 -13.517 -23.644  0.00  0.00    +0.197 C 
BRANCH  10  12
ATOM     11 CL   UNL     1      34.761  -7.944 -24.002  0.00  0.00    -0.082 Cl
ATOM     12  C   UNL     1      33.178 -12.160 -23.730  0.00  0.00    +0.039 C 
ATOM     13  C   UNL     1      32.634 -11.157 -22.928  0.00  0.00    +0.004 C 
ATOM     14  C   UNL     1      34.211 -11.859 -24.618  0.00  0.00    +0.004 C 
ATOM     15  C   UNL     1      33.124  -9.854 -23.012  0.00  0.00    +0.011 C 
ATOM     16  C   UNL     1      34.701 -10.554 -24.702  0.00  0.00    +0.011 C 
ATOM     17  C   UNL     1      34.157  -9.552 -23.899  0.00  0.00    +0.058 C 
ENDBRANCH  10  12
ENDBRANCH   4  10
BRANCH   3  18
ATOM     18  C   UNL     1      35.924 -17.938 -21.964  0.00  0.00    +0.124 C 
BRANCH  18  19
ATOM     19  N   UNL     1      35.126 -19.003 -21.346  0.00  0.00    -0.146 NA
ATOM     20  N   UNL     1      33.836 -19.106 -21.656  0.00  0.00    -0.061 NA
ATOM     21  N   UNL     1      33.365 -20.136 -20.963  0.00  0.00    -0.144 NA
ATOM     22  C   UNL     1      35.538 -19.933 -20.464  0.00  0.00    +0.179 C 
ATOM     23  C   UNL     1      34.395 -20.654 -20.228  0.00  0.00    +0.163 C 
BRANCH  23  26
ATOM     24  O   UNL     1      35.204 -22.408 -18.865  0.00  0.00    -0.269 OA
ATOM     25  N   UNL     1      32.943 -22.177 -19.028  0.00  0.00    -0.324 N 
ATOM     26  C   UNL     1      34.242 -21.779 -19.359  0.00  0.00    +0.261 C 
ATOM     27  H   UNL     1      32.800 -22.948 -18.432  0.00  0.00    +0.145 HD
ATOM     28  H   UNL     1      32.170 -21.686 -19.392  0.00  0.00    +0.145 HD
ENDBRANCH  23  26
BRANCH  22  29
ATOM     29  N   UNL     1      36.804 -20.014 -20.010  0.00  0.00    -0.303 NA
ATOM     30  H   UNL     1      37.375 -20.770 -20.278  0.00  0.00    +0.120 HD
ATOM     31  H   UNL     1      37.158 -19.319 -19.410  0.00  0.00    +0.120 HD
ENDBRANCH  22  29
ENDBRANCH  18  19
ENDBRANCH   3  18
TORSDOF 6
ENDMDL
MODEL 8
REMARK VINA RESULT:     -10.3      1.107      2.369
REMARK  Name = 108144
REMARK  6 active torsions:
REMARK  status: ('A' for Active; 'I' for Inactive)
REMARK    1  A    between atoms: C_3  and  C_18
REMARK    2  A    between atoms: C_4  and  C_10
REMARK    3  A    between atoms: C_10  and  C_12
REMARK    4  A    between atoms: C_18  and  N_19
REMARK    5  A    between atoms: C_22  and  N_29
REMARK    6  A    between atoms: C_23  and  C_26
REMARK                            x       y       z     vdW  Elec       q    Type
REMARK                         _______ _______ _______ _____ _____    ______ ____
ROOT
ATOM      1 CL   UNL     1      34.664 -17.309 -25.163  0.00  0.00    -0.082 Cl
ATOM      2 CL   UNL     1      34.777 -15.760 -19.929  0.00  0.00    -0.082 Cl
ATOM      3  C   UNL     1      33.048 -14.241 -23.189  0.00  0.00    -0.003 C 
ATOM      4  C   UNL     1      34.632 -16.414 -22.581  0.00  0.00    +0.060 C 
ATOM      5  C   UNL     1      33.424 -15.133 -24.193  0.00  0.00    +0.009 C 
ATOM      6  C   UNL     1      33.474 -14.448 -21.877  0.00  0.00    +0.009 C 
ATOM      7  C   UNL     1      34.225 -16.233 -23.885  0.00  0.00    +0.061 C 
ATOM      8  C   UNL     1      34.275 -15.548 -21.569  0.00  0.00    +0.061 C 
ENDROOT
BRANCH   4  10
ATOM      9  O   UNL     1      36.657 -17.582 -22.670  0.00  0.00    -0.287 OA
ATOM     10  C   UNL     1      35.491 -17.592 -22.249  0.00  0.00    +0.197 C 
BRANCH  10  12
ATOM     11 CL   UNL     1      33.487 -22.214 -19.054  0.00  0.00    -0.082 Cl
ATOM     12  C   UNL     1      35.002 -18.718 -21.469  0.00  0.00    +0.039 C 
ATOM     13  C   UNL     1      35.904 -19.558 -20.816  0.00  0.00    +0.004 C 
ATOM     14  C   UNL     1      33.631 -18.959 -21.376  0.00  0.00    +0.004 C 
ATOM     15  C   UNL     1      35.435 -20.638 -20.070  0.00  0.00    +0.011 C 
ATOM     16  C   UNL     1      33.163 -20.041 -20.629  0.00  0.00    +0.011 C 
ATOM     17  C   UNL     1      34.065 -20.880 -19.976  0.00  0.00    +0.058 C 
ENDBRANCH  10  12
ENDBRANCH   4  10
BRANCH   3  18
ATOM     18  C   UNL     1      32.192 -13.065 -23.518  0.00  0.00    +0.124 C 
BRANCH  18  19
ATOM     19  N   UNL     1      32.985 -11.845 -23.702  0.00  0.00    -0.146 NA
ATOM     20  N   UNL     1      34.021 -11.867 -24.537  0.00  0.00    -0.061 NA
ATOM     21  N   UNL     1      34.551 -10.650 -24.509  0.00  0.00    -0.144 NA
ATOM     22  C   UNL     1      32.802 -10.649 -23.112  0.00  0.00    +0.179 C 
ATOM     23  C   UNL     1      33.816  -9.891 -23.641  0.00  0.00    +0.163 C 
BRANCH  23  26
ATOM     24  O   UNL     1      34.980  -7.861 -23.978  0.00  0.00    -0.269 OA
ATOM     25  N   UNL     1      33.362  -7.879 -22.372  0.00  0.00    -0.324 N 
ATOM     26  C   UNL     1      34.110  -8.519 -23.365  0.00  0.00    +0.261 C 
ATOM     27  H   UNL     1      33.537  -6.934 -22.156  0.00  0.00    +0.145 HD
ATOM     28  H   UNL     1      32.661  -8.373 -21.887  0.00  0.00    +0.145 HD
ENDBRANCH  23  26
BRANCH  22  29
ATOM     29  N   UNL     1      31.814 -10.401 -22.230  0.00  0.00    -0.303 NA
ATOM     30  H   UNL     1      31.179  -9.666 -22.395  0.00  0.00    +0.120 HD
ATOM     31  H   UNL     1      31.726 -10.954 -21.420  0.00  0.00    +0.120 HD
ENDBRANCH  22  29
ENDBRANCH  18  19
ENDBRANCH   3  18
TORSDOF 6
ENDMDL
MODEL 9
REMARK VINA RESULT:     -10.2      4.269      9.656
REMARK  Name = 108144
REMARK  6 active torsions:
REMARK  status: ('A' for Active; 'I' for Inactive)
REMARK    1  A    between atoms: C_3  and  C_18
REMARK    2  A    between atoms: C_4  and  C_10
REMARK    3  A    between atoms: C_10  and  C_12
REMARK    4  A    between atoms: C_18  and  N_19
REMARK    5  A    between atoms: C_22  and  N_29
REMARK    6  A    between atoms: C_23  and  C_26
REMARK                            x       y       z     vdW  Elec       q    Type
REMARK                         _______ _______ _______ _____ _____    ______ ____
ROOT
ATOM      1 CL   UNL     1      30.641 -11.465 -21.199  0.00  0.00    -0.082 Cl
ATOM      2 CL   UNL     1      34.661  -9.077 -24.018  0.00  0.00    -0.082 Cl
ATOM      3  C   UNL     1      33.123 -12.759 -24.043  0.00  0.00    -0.003 C 
ATOM      4  C   UNL     1      32.675 -10.402 -22.684  0.00  0.00    +0.060 C 
ATOM      5  C   UNL     1      32.121 -12.691 -23.075  0.00  0.00    +0.009 C 
ATOM      6  C   UNL     1      33.898 -11.634 -24.323  0.00  0.00    +0.009 C 
ATOM      7  C   UNL     1      31.894 -11.499 -22.388  0.00  0.00    +0.061 C 
ATOM      8  C   UNL     1      33.672 -10.442 -23.636  0.00  0.00    +0.061 C 
ENDROOT
BRANCH   4  10
ATOM      9  O   UNL     1      32.603  -9.135 -20.719  0.00  0.00    -0.287 OA
ATOM     10  C   UNL     1      32.434  -9.124 -21.948  0.00  0.00    +0.197 C 
BRANCH  10  12
ATOM     11 CL   UNL     1      30.726  -4.122 -24.711  0.00  0.00    -0.082 Cl
ATOM     12  C   UNL     1      32.016  -7.904 -22.620  0.00  0.00    +0.039 C 
ATOM     13  C   UNL     1      31.234  -7.976 -23.773  0.00  0.00    +0.004 C 
ATOM     14  C   UNL     1      32.400  -6.663 -22.114  0.00  0.00    +0.004 C 
ATOM     15  C   UNL     1      30.835  -6.807 -24.419  0.00  0.00    +0.011 C 
ATOM     16  C   UNL     1      32.001  -5.492 -22.761  0.00  0.00    +0.011 C 
ATOM     17  C   UNL     1      31.219  -5.564 -23.913  0.00  0.00    +0.058 C 
ENDBRANCH  10  12
ENDBRANCH   4  10
BRANCH   3  18
ATOM     18  C   UNL     1      33.365 -14.033 -24.778  0.00  0.00    +0.124 C 
BRANCH  18  19
ATOM     19  N   UNL     1      34.028 -15.034 -23.936  0.00  0.00    -0.146 NA
ATOM     20  N   UNL     1      34.367 -14.708 -22.691  0.00  0.00    -0.061 NA
ATOM     21  N   UNL     1      34.945 -15.783 -22.166  0.00  0.00    -0.144 NA
ATOM     22  C   UNL     1      34.360 -16.296 -24.266  0.00  0.00    +0.179 C 
ATOM     23  C   UNL     1      34.948 -16.765 -23.118  0.00  0.00    +0.163 C 
BRANCH  23  26
ATOM     24  O   UNL     1      36.433 -18.292 -22.093  0.00  0.00    -0.269 OA
ATOM     25  N   UNL     1      34.939 -19.140 -23.590  0.00  0.00    -0.324 N 
ATOM     26  C   UNL     1      35.498 -18.065 -22.892  0.00  0.00    +0.261 C 
ATOM     27  H   UNL     1      35.292 -20.050 -23.459  0.00  0.00    +0.145 HD
ATOM     28  H   UNL     1      34.191 -18.988 -24.213  0.00  0.00    +0.145 HD
ENDBRANCH  23  26
BRANCH  22  29
ATOM     29  N   UNL     1      34.112 -16.836 -25.475  0.00  0.00    -0.303 NA
ATOM     30  H   UNL     1      33.798 -16.265 -26.214  0.00  0.00    +0.120 HD
ATOM     31  H   UNL     1      34.244 -17.800 -25.621  0.00  0.00    +0.120 HD
ENDBRANCH  22  29
ENDBRANCH  18  19
ENDBRANCH   3  18
TORSDOF 6
ENDMDL
