MODEL 1
REMARK VINA RESULT:      -6.0      0.000      0.000
REMARK  Name = 4369424
REMARK  8 active torsions:
REMARK  status: ('A' for Active; 'I' for Inactive)
REMARK    1  A    between atoms: C_2  and  C_3
REMARK    2  A    between atoms: C_2  and  C_8
REMARK    3  A    between atoms: C_3  and  C_4
REMARK    4  A    between atoms: C_4  and  C_5
REMARK    5  A    between atoms: C_5  and  C_6
REMARK    6  A    between atoms: C_8  and  P_9
REMARK    7  A    between atoms: P_9  and  O_11
REMARK    8  A    between atoms: P_9  and  O_13
REMARK                            x       y       z     vdW  Elec       q    Type
REMARK                         _______ _______ _______ _____ _____    ______ ____
ROOT
ATOM      1  O   UNL     1      37.810 -23.569 -13.612  0.00  0.00    -0.295 OA
ATOM      2  C   UNL     1      37.287 -23.715 -14.716  0.00  0.00    +0.163 C 
ENDROOT
BRANCH   2   3
ATOM      3  C   UNL     1      37.592 -22.806 -15.896  0.00  0.00    +0.065 C 
BRANCH   3   4
ATOM      4  C   UNL     1      36.358 -22.415 -16.708  0.00  0.00    +0.008 C 
BRANCH   4   5
ATOM      5  C   UNL     1      36.714 -21.600 -17.956  0.00  0.00    +0.000 C 
BRANCH   5   6
ATOM      6  C   UNL     1      35.611 -21.692 -19.011  0.00  0.00    +0.000 C 
ATOM      7  C   UNL     1      35.945 -20.862 -20.240  0.00  0.00    +0.000 C 
ENDBRANCH   5   6
ENDBRANCH   4   5
ENDBRANCH   3   4
ENDBRANCH   2   3
BRANCH   2   8
ATOM      8  C   UNL     1      36.323 -24.845 -14.986  0.00  0.00    +0.180 C 
BRANCH   8   9
ATOM      9  P   UNL     1      37.103 -26.469 -15.085  0.00  0.00    +0.344 P 
ATOM     10  O   UNL     1      36.601 -27.308 -16.209  0.00  0.00    -0.258 OA
BRANCH   9  11
ATOM     11  O   UNL     1      36.874 -27.058 -13.604  0.00  0.00    -0.323 OA
ATOM     12  H   UNL     1      36.862 -28.028 -13.641  0.00  0.00    +0.220 HD
ENDBRANCH   9  11
BRANCH   9  13
ATOM     13  O   UNL     1      38.671 -26.102 -15.119  0.00  0.00    -0.323 OA
ATOM     14  H   UNL     1      38.822 -25.284 -14.620  0.00  0.00    +0.220 HD
ENDBRANCH   9  13
ENDBRANCH   8   9
ENDBRANCH   2   8
TORSDOF 8
ENDMDL
MODEL 2
REMARK VINA RESULT:      -5.9      2.315      3.553
REMARK  Name = 4369424
REMARK  8 active torsions:
REMARK  status: ('A' for Active; 'I' for Inactive)
REMARK    1  A    between atoms: C_2  and  C_3
REMARK    2  A    between atoms: C_2  and  C_8
REMARK    3  A    between atoms: C_3  and  C_4
REMARK    4  A    between atoms: C_4  and  C_5
REMARK    5  A    between atoms: C_5  and  C_6
REMARK    6  A    between atoms: C_8  and  P_9
REMARK    7  A    between atoms: P_9  and  O_11
REMARK    8  A    between atoms: P_9  and  O_13
REMARK                            x       y       z     vdW  Elec       q    Type
REMARK                         _______ _______ _______ _____ _____    ______ ____
ROOT
ATOM      1  O   UNL     1      35.267 -22.772 -17.270  0.00  0.00    -0.295 OA
ATOM      2  C   UNL     1      36.317 -22.131 -17.304  0.00  0.00    +0.163 C 
ENDROOT
BRANCH   2   3
ATOM      3  C   UNL     1      36.709 -21.261 -18.487  0.00  0.00    +0.065 C 
BRANCH   3   4
ATOM      4  C   UNL     1      36.039 -21.664 -19.799  0.00  0.00    +0.008 C 
BRANCH   4   5
ATOM      5  C   UNL     1      35.103 -20.576 -20.335  0.00  0.00    +0.000 C 
BRANCH   5   6
ATOM      6  C   UNL     1      33.651 -20.851 -19.942  0.00  0.00    +0.000 C 
ATOM      7  C   UNL     1      32.699 -19.867 -20.602  0.00  0.00    +0.000 C 
ENDBRANCH   5   6
ENDBRANCH   4   5
ENDBRANCH   3   4
ENDBRANCH   2   3
BRANCH   2   8
ATOM      8  C   UNL     1      37.280 -22.139 -16.141  0.00  0.00    +0.180 C 
BRANCH   8   9
ATOM      9  P   UNL     1      36.859 -23.321 -14.845  0.00  0.00    +0.344 P 
ATOM     10  O   UNL     1      37.874 -23.407 -13.758  0.00  0.00    -0.258 OA
BRANCH   9  11
ATOM     11  O   UNL     1      36.597 -24.674 -15.678  0.00  0.00    -0.323 OA
ATOM     12  H   UNL     1      35.970 -25.235 -15.193  0.00  0.00    +0.220 HD
ENDBRANCH   9  11
BRANCH   9  13
ATOM     13  O   UNL     1      35.385 -22.845 -14.403  0.00  0.00    -0.323 OA
ATOM     14  H   UNL     1      34.844 -22.694 -15.195  0.00  0.00    +0.220 HD
ENDBRANCH   9  13
ENDBRANCH   8   9
ENDBRANCH   2   8
TORSDOF 8
ENDMDL
MODEL 3
REMARK VINA RESULT:      -5.9      1.251      1.789
REMARK  Name = 4369424
REMARK  8 active torsions:
REMARK  status: ('A' for Active; 'I' for Inactive)
REMARK    1  A    between atoms: C_2  and  C_3
REMARK    2  A    between atoms: C_2  and  C_8
REMARK    3  A    between atoms: C_3  and  C_4
REMARK    4  A    between atoms: C_4  and  C_5
REMARK    5  A    between atoms: C_5  and  C_6
REMARK    6  A    between atoms: C_8  and  P_9
REMARK    7  A    between atoms: P_9  and  O_11
REMARK    8  A    between atoms: P_9  and  O_13
REMARK                            x       y       z     vdW  Elec       q    Type
REMARK                         _______ _______ _______ _____ _____    ______ ____
ROOT
ATOM      1  O   UNL     1      34.895 -24.632 -14.333  0.00  0.00    -0.295 OA
ATOM      2  C   UNL     1      35.873 -24.165 -14.915  0.00  0.00    +0.163 C 
ENDROOT
BRANCH   2   3
ATOM      3  C   UNL     1      35.777 -22.984 -15.867  0.00  0.00    +0.065 C 
BRANCH   3   4
ATOM      4  C   UNL     1      37.133 -22.458 -16.336  0.00  0.00    +0.008 C 
BRANCH   4   5
ATOM      5  C   UNL     1      36.999 -21.375 -17.411  0.00  0.00    +0.000 C 
BRANCH   5   6
ATOM      6  C   UNL     1      36.001 -21.789 -18.494  0.00  0.00    +0.000 C 
ATOM      7  C   UNL     1      36.386 -21.222 -19.851  0.00  0.00    +0.000 C 
ENDBRANCH   5   6
ENDBRANCH   4   5
ENDBRANCH   3   4
ENDBRANCH   2   3
BRANCH   2   8
ATOM      8  C   UNL     1      37.259 -24.720 -14.689  0.00  0.00    +0.180 C 
BRANCH   8   9
ATOM      9  P   UNL     1      37.299 -26.497 -14.380  0.00  0.00    +0.344 P 
ATOM     10  O   UNL     1      38.628 -27.121 -14.632  0.00  0.00    -0.258 OA
BRANCH   9  11
ATOM     11  O   UNL     1      36.080 -27.036 -15.285  0.00  0.00    -0.323 OA
ATOM     12  H   UNL     1      35.256 -26.605 -15.007  0.00  0.00    +0.220 HD
ENDBRANCH   9  11
BRANCH   9  13
ATOM     13  O   UNL     1      36.740 -26.602 -12.874  0.00  0.00    -0.323 OA
ATOM     14  H   UNL     1      36.099 -25.890 -12.716  0.00  0.00    +0.220 HD
ENDBRANCH   9  13
ENDBRANCH   8   9
ENDBRANCH   2   8
TORSDOF 8
ENDMDL
MODEL 4
REMARK VINA RESULT:      -5.8     10.541     11.909
REMARK  Name = 4369424
REMARK  8 active torsions:
REMARK  status: ('A' for Active; 'I' for Inactive)
REMARK    1  A    between atoms: C_2  and  C_3
REMARK    2  A    between atoms: C_2  and  C_8
REMARK    3  A    between atoms: C_3  and  C_4
REMARK    4  A    between atoms: C_4  and  C_5
REMARK    5  A    between atoms: C_5  and  C_6
REMARK    6  A    between atoms: C_8  and  P_9
REMARK    7  A    between atoms: P_9  and  O_11
REMARK    8  A    between atoms: P_9  and  O_13
REMARK                            x       y       z     vdW  Elec       q    Type
REMARK                         _______ _______ _______ _____ _____    ______ ____
ROOT
ATOM      1  O   UNL     1      34.691 -16.606 -25.854  0.00  0.00    -0.295 OA
ATOM      2  C   UNL     1      34.742 -16.888 -24.658  0.00  0.00    +0.163 C 
ENDROOT
BRANCH   2   3
ATOM      3  C   UNL     1      34.682 -18.319 -24.148  0.00  0.00    +0.065 C 
BRANCH   3   4
ATOM      4  C   UNL     1      35.564 -18.576 -22.928  0.00  0.00    +0.008 C 
BRANCH   4   5
ATOM      5  C   UNL     1      34.964 -19.623 -21.983  0.00  0.00    +0.000 C 
BRANCH   5   6
ATOM      6  C   UNL     1      33.897 -19.006 -21.079  0.00  0.00    +0.000 C 
ATOM      7  C   UNL     1      32.885 -20.046 -20.623  0.00  0.00    +0.000 C 
ENDBRANCH   5   6
ENDBRANCH   4   5
ENDBRANCH   3   4
ENDBRANCH   2   3
BRANCH   2   8
ATOM      8  C   UNL     1      34.905 -15.818 -23.605  0.00  0.00    +0.180 C 
BRANCH   8   9
ATOM      9  P   UNL     1      33.538 -14.644 -23.531  0.00  0.00    +0.344 P 
ATOM     10  O   UNL     1      32.545 -14.946 -22.462  0.00  0.00    -0.258 OA
BRANCH   9  11
ATOM     11  O   UNL     1      32.979 -14.663 -25.041  0.00  0.00    -0.323 OA
ATOM     12  H   UNL     1      32.871 -13.751 -25.357  0.00  0.00    +0.220 HD
ENDBRANCH   9  11
BRANCH   9  13
ATOM     13  O   UNL     1      34.297 -13.229 -23.416  0.00  0.00    -0.323 OA
ATOM     14  H   UNL     1      34.608 -13.103 -22.505  0.00  0.00    +0.220 HD
ENDBRANCH   9  13
ENDBRANCH   8   9
ENDBRANCH   2   8
TORSDOF 8
ENDMDL
MODEL 5
REMARK VINA RESULT:      -5.8      2.919      3.585
REMARK  Name = 4369424
REMARK  8 active torsions:
REMARK  status: ('A' for Active; 'I' for Inactive)
REMARK    1  A    between atoms: C_2  and  C_3
REMARK    2  A    between atoms: C_2  and  C_8
REMARK    3  A    between atoms: C_3  and  C_4
REMARK    4  A    between atoms: C_4  and  C_5
REMARK    5  A    between atoms: C_5  and  C_6
REMARK    6  A    between atoms: C_8  and  P_9
REMARK    7  A    between atoms: P_9  and  O_11
REMARK    8  A    between atoms: P_9  and  O_13
REMARK                            x       y       z     vdW  Elec       q    Type
REMARK                         _______ _______ _______ _____ _____    ______ ____
ROOT
ATOM      1  O   UNL     1      38.381 -23.730 -15.110  0.00  0.00    -0.295 OA
ATOM      2  C   UNL     1      37.910 -24.795 -14.711  0.00  0.00    +0.163 C 
ENDROOT
BRANCH   2   3
ATOM      3  C   UNL     1      36.468 -25.202 -14.969  0.00  0.00    +0.065 C 
BRANCH   3   4
ATOM      4  C   UNL     1      35.464 -24.546 -14.022  0.00  0.00    +0.008 C 
BRANCH   4   5
ATOM      5  C   UNL     1      34.273 -23.934 -14.766  0.00  0.00    +0.000 C 
BRANCH   5   6
ATOM      6  C   UNL     1      34.717 -23.272 -16.071  0.00  0.00    +0.000 C 
ATOM      7  C   UNL     1      33.578 -23.203 -17.076  0.00  0.00    +0.000 C 
ENDBRANCH   5   6
ENDBRANCH   4   5
ENDBRANCH   3   4
ENDBRANCH   2   3
BRANCH   2   8
ATOM      8  C   UNL     1      38.755 -25.797 -13.963  0.00  0.00    +0.180 C 
BRANCH   8   9
ATOM      9  P   UNL     1      40.468 -25.880 -14.524  0.00  0.00    +0.344 P 
ATOM     10  O   UNL     1      41.244 -26.998 -13.919  0.00  0.00    -0.258 OA
BRANCH   9  11
ATOM     11  O   UNL     1      41.009 -24.395 -14.216  0.00  0.00    -0.323 OA
ATOM     12  H   UNL     1      41.978 -24.386 -14.270  0.00  0.00    +0.220 HD
ENDBRANCH   9  11
BRANCH   9  13
ATOM     13  O   UNL     1      40.309 -25.911 -16.126  0.00  0.00    -0.323 OA
ATOM     14  H   UNL     1      41.083 -25.490 -16.535  0.00  0.00    +0.220 HD
ENDBRANCH   9  13
ENDBRANCH   8   9
ENDBRANCH   2   8
TORSDOF 8
ENDMDL
MODEL 6
REMARK VINA RESULT:      -5.8      8.387     10.257
REMARK  Name = 4369424
REMARK  8 active torsions:
REMARK  status: ('A' for Active; 'I' for Inactive)
REMARK    1  A    between atoms: C_2  and  C_3
REMARK    2  A    between atoms: C_2  and  C_8
REMARK    3  A    between atoms: C_3  and  C_4
REMARK    4  A    between atoms: C_4  and  C_5
REMARK    5  A    between atoms: C_5  and  C_6
REMARK    6  A    between atoms: C_8  and  P_9
REMARK    7  A    between atoms: P_9  and  O_11
REMARK    8  A    between atoms: P_9  and  O_13
REMARK                            x       y       z     vdW  Elec       q    Type
REMARK                         _______ _______ _______ _____ _____    ______ ____
ROOT
ATOM      1  O   UNL     1      35.423 -17.341 -20.509  0.00  0.00    -0.295 OA
ATOM      2  C   UNL     1      34.945 -17.543 -21.624  0.00  0.00    +0.163 C 
ENDROOT
BRANCH   2   3
ATOM      3  C   UNL     1      34.471 -18.914 -22.079  0.00  0.00    +0.065 C 
BRANCH   3   4
ATOM      4  C   UNL     1      34.613 -20.000 -21.013  0.00  0.00    +0.008 C 
BRANCH   4   5
ATOM      5  C   UNL     1      33.280 -20.324 -20.329  0.00  0.00    +0.000 C 
BRANCH   5   6
ATOM      6  C   UNL     1      33.402 -21.562 -19.439  0.00  0.00    +0.000 C 
ATOM      7  C   UNL     1      34.856 -21.913 -19.168  0.00  0.00    +0.000 C 
ENDBRANCH   5   6
ENDBRANCH   4   5
ENDBRANCH   3   4
ENDBRANCH   2   3
BRANCH   2   8
ATOM      8  C   UNL     1      34.760 -16.419 -22.615  0.00  0.00    +0.180 C 
BRANCH   8   9
ATOM      9  P   UNL     1      33.944 -14.963 -21.932  0.00  0.00    +0.344 P 
ATOM     10  O   UNL     1      32.466 -15.107 -21.807  0.00  0.00    -0.258 OA
BRANCH   9  11
ATOM     11  O   UNL     1      34.461 -13.785 -22.901  0.00  0.00    -0.323 OA
ATOM     12  H   UNL     1      34.977 -14.169 -23.627  0.00  0.00    +0.220 HD
ENDBRANCH   9  11
BRANCH   9  13
ATOM     13  O   UNL     1      34.751 -14.721 -20.560  0.00  0.00    -0.323 OA
ATOM     14  H   UNL     1      35.260 -13.896 -20.626  0.00  0.00    +0.220 HD
ENDBRANCH   9  13
ENDBRANCH   8   9
ENDBRANCH   2   8
TORSDOF 8
ENDMDL
MODEL 7
REMARK VINA RESULT:      -5.8      8.915     10.634
REMARK  Name = 4369424
REMARK  8 active torsions:
REMARK  status: ('A' for Active; 'I' for Inactive)
REMARK    1  A    between atoms: C_2  and  C_3
REMARK    2  A    between atoms: C_2  and  C_8
REMARK    3  A    between atoms: C_3  and  C_4
REMARK    4  A    between atoms: C_4  and  C_5
REMARK    5  A    between atoms: C_5  and  C_6
REMARK    6  A    between atoms: C_8  and  P_9
REMARK    7  A    between atoms: P_9  and  O_11
REMARK    8  A    between atoms: P_9  and  O_13
REMARK                            x       y       z     vdW  Elec       q    Type
REMARK                         _______ _______ _______ _____ _____    ______ ____
ROOT
ATOM      1  O   UNL     1      34.994 -16.047 -20.491  0.00  0.00    -0.295 OA
ATOM      2  C   UNL     1      35.010 -16.920 -21.357  0.00  0.00    +0.163 C 
ENDROOT
BRANCH   2   3
ATOM      3  C   UNL     1      35.026 -18.404 -21.026  0.00  0.00    +0.065 C 
BRANCH   3   4
ATOM      4  C   UNL     1      33.836 -19.176 -21.594  0.00  0.00    +0.008 C 
BRANCH   4   5
ATOM      5  C   UNL     1      33.248 -20.168 -20.585  0.00  0.00    +0.000 C 
BRANCH   5   6
ATOM      6  C   UNL     1      34.347 -20.986 -19.907  0.00  0.00    +0.000 C 
ATOM      7  C   UNL     1      33.767 -22.120 -19.078  0.00  0.00    +0.000 C 
ENDBRANCH   5   6
ENDBRANCH   4   5
ENDBRANCH   3   4
ENDBRANCH   2   3
BRANCH   2   8
ATOM      8  C   UNL     1      34.978 -16.572 -22.825  0.00  0.00    +0.180 C 
BRANCH   8   9
ATOM      9  P   UNL     1      33.886 -15.195 -23.231  0.00  0.00    +0.344 P 
ATOM     10  O   UNL     1      33.410 -15.202 -24.642  0.00  0.00    -0.258 OA
BRANCH   9  11
ATOM     11  O   UNL     1      34.756 -13.915 -22.783  0.00  0.00    -0.323 OA
ATOM     12  H   UNL     1      35.655 -13.995 -23.140  0.00  0.00    +0.220 HD
ENDBRANCH   9  11
BRANCH   9  13
ATOM     13  O   UNL     1      32.747 -15.306 -22.097  0.00  0.00    -0.323 OA
ATOM     14  H   UNL     1      32.180 -14.519 -22.131  0.00  0.00    +0.220 HD
ENDBRANCH   9  13
ENDBRANCH   8   9
ENDBRANCH   2   8
TORSDOF 8
ENDMDL
MODEL 8
REMARK VINA RESULT:      -5.7      1.765      2.276
REMARK  Name = 4369424
REMARK  8 active torsions:
REMARK  status: ('A' for Active; 'I' for Inactive)
REMARK    1  A    between atoms: C_2  and  C_3
REMARK    2  A    between atoms: C_2  and  C_8
REMARK    3  A    between atoms: C_3  and  C_4
REMARK    4  A    between atoms: C_4  and  C_5
REMARK    5  A    between atoms: C_5  and  C_6
REMARK    6  A    between atoms: C_8  and  P_9
REMARK    7  A    between atoms: P_9  and  O_11
REMARK    8  A    between atoms: P_9  and  O_13
REMARK                            x       y       z     vdW  Elec       q    Type
REMARK                         _______ _______ _______ _____ _____    ______ ____
ROOT
ATOM      1  O   UNL     1      34.703 -24.619 -14.522  0.00  0.00    -0.295 OA
ATOM      2  C   UNL     1      35.629 -24.120 -15.161  0.00  0.00    +0.163 C 
ENDROOT
BRANCH   2   3
ATOM      3  C   UNL     1      35.434 -22.945 -16.106  0.00  0.00    +0.065 C 
BRANCH   3   4
ATOM      4  C   UNL     1      34.276 -23.128 -17.086  0.00  0.00    +0.008 C 
BRANCH   4   5
ATOM      5  C   UNL     1      34.512 -22.397 -18.412  0.00  0.00    +0.000 C 
BRANCH   5   6
ATOM      6  C   UNL     1      33.202 -21.854 -18.986  0.00  0.00    +0.000 C 
ATOM      7  C   UNL     1      33.456 -20.777 -20.029  0.00  0.00    +0.000 C 
ENDBRANCH   5   6
ENDBRANCH   4   5
ENDBRANCH   3   4
ENDBRANCH   2   3
BRANCH   2   8
ATOM      8  C   UNL     1      37.044 -24.624 -15.018  0.00  0.00    +0.180 C 
BRANCH   8   9
ATOM      9  P   UNL     1      37.162 -26.342 -14.480  0.00  0.00    +0.344 P 
ATOM     10  O   UNL     1      38.523 -26.927 -14.635  0.00  0.00    -0.258 OA
BRANCH   9  11
ATOM     11  O   UNL     1      35.985 -27.053 -15.319  0.00  0.00    -0.323 OA
ATOM     12  H   UNL     1      35.258 -26.424 -15.451  0.00  0.00    +0.220 HD
ENDBRANCH   9  11
BRANCH   9  13
ATOM     13  O   UNL     1      36.584 -26.278 -12.978  0.00  0.00    -0.323 OA
ATOM     14  H   UNL     1      35.757 -26.784 -12.929  0.00  0.00    +0.220 HD
ENDBRANCH   9  13
ENDBRANCH   8   9
ENDBRANCH   2   8
TORSDOF 8
ENDMDL
MODEL 9
REMARK VINA RESULT:      -5.7      2.208      3.251
REMARK  Name = 4369424
REMARK  8 active torsions:
REMARK  status: ('A' for Active; 'I' for Inactive)
REMARK    1  A    between atoms: C_2  and  C_3
REMARK    2  A    between atoms: C_2  and  C_8
REMARK    3  A    between atoms: C_3  and  C_4
REMARK    4  A    between atoms: C_4  and  C_5
REMARK    5  A    between atoms: C_5  and  C_6
REMARK    6  A    between atoms: C_8  and  P_9
REMARK    7  A    between atoms: P_9  and  O_11
REMARK    8  A    between atoms: P_9  and  O_13
REMARK                            x       y       z     vdW  Elec       q    Type
REMARK                         _______ _______ _______ _____ _____    ______ ____
ROOT
ATOM      1  O   UNL     1      35.927 -25.751 -15.440  0.00  0.00    -0.295 OA
ATOM      2  C   UNL     1      35.623 -24.679 -14.920  0.00  0.00    +0.163 C 
ENDROOT
BRANCH   2   3
ATOM      3  C   UNL     1      34.363 -23.914 -15.293  0.00  0.00    +0.065 C 
BRANCH   3   4
ATOM      4  C   UNL     1      34.510 -23.059 -16.551  0.00  0.00    +0.008 C 
BRANCH   4   5
ATOM      5  C   UNL     1      33.282 -23.147 -17.464  0.00  0.00    +0.000 C 
BRANCH   5   6
ATOM      6  C   UNL     1      33.470 -22.306 -18.727  0.00  0.00    +0.000 C 
ATOM      7  C   UNL     1      34.942 -22.061 -19.019  0.00  0.00    +0.000 C 
ENDBRANCH   5   6
ENDBRANCH   4   5
ENDBRANCH   3   4
ENDBRANCH   2   3
BRANCH   2   8
ATOM      8  C   UNL     1      36.474 -24.061 -13.837  0.00  0.00    +0.180 C 
BRANCH   8   9
ATOM      9  P   UNL     1      36.488 -24.992 -12.292  0.00  0.00    +0.344 P 
ATOM     10  O   UNL     1      37.444 -24.463 -11.281  0.00  0.00    -0.258 OA
BRANCH   9  11
ATOM     11  O   UNL     1      36.752 -26.499 -12.795  0.00  0.00    -0.323 OA
ATOM     12  H   UNL     1      37.705 -26.635 -12.921  0.00  0.00    +0.220 HD
ENDBRANCH   9  11
BRANCH   9  13
ATOM     13  O   UNL     1      34.934 -24.991 -11.869  0.00  0.00    -0.323 OA
ATOM     14  H   UNL     1      34.673 -25.886 -11.596  0.00  0.00    +0.220 HD
ENDBRANCH   9  13
ENDBRANCH   8   9
ENDBRANCH   2   8
TORSDOF 8
ENDMDL
