MODEL 1
REMARK VINA RESULT:      -9.9      0.000      0.000
REMARK  Name = 9848818
REMARK  9 active torsions:
REMARK  status: ('A' for Active; 'I' for Inactive)
REMARK    1  A    between atoms: C_6  and  C_24
REMARK    2  A    between atoms: C_10  and  O_20
REMARK    3  A    between atoms: C_19  and  O_22
REMARK    4  A    between atoms: C_24  and  C_26
REMARK    5  A    between atoms: C_26  and  C_27
REMARK    6  A    between atoms: C_27  and  C_30
REMARK    7  A    between atoms: N_29  and  C_32
REMARK    8  A    between atoms: C_32  and  C_33
REMARK    9  A    between atoms: C_33  and  S_34
REMARK                            x       y       z     vdW  Elec       q    Type
REMARK                         _______ _______ _______ _____ _____    ______ ____
ROOT
ATOM      1  C   UNL     1      34.544 -16.414 -23.997  0.00  0.00    +0.002 C 
ATOM      2  C   UNL     1      34.598 -16.648 -22.470  0.00  0.00    +0.000 C 
ATOM      3  C   UNL     1      33.551 -15.306 -24.402  0.00  0.00    +0.027 C 
ATOM      4  C   UNL     1      33.992 -13.974 -23.702  0.00  0.00    +0.002 C 
ATOM      5  C   UNL     1      33.068 -12.759 -24.088  0.00  0.00    +0.000 C 
ATOM      6  C   UNL     1      35.624 -17.807 -22.426  0.00  0.00    +0.000 C 
ATOM      7  C   UNL     1      33.020 -12.618 -25.644  0.00  0.00    +0.005 C 
ATOM      8  C   UNL     1      35.080 -15.352 -21.807  0.00  0.00    +0.000 C 
ATOM      9  C   UNL     1      34.182 -14.159 -22.172  0.00  0.00    +0.000 C 
ATOM     10  C   UNL     1      33.463 -15.127 -25.931  0.00  0.00    +0.110 C 
ATOM     11  C   UNL     1      34.388 -17.826 -24.560  0.00  0.00    +0.000 C 
ATOM     12  C   UNL     1      35.200 -18.715 -23.601  0.00  0.00    +0.000 C 
ATOM     13  C   UNL     1      32.605 -13.926 -26.328  0.00  0.00    +0.029 C 
ATOM     14  C   UNL     1      33.572 -11.412 -23.492  0.00  0.00    +0.002 C 
ATOM     15  C   UNL     1      33.245 -17.077 -21.850  0.00  0.00    +0.000 C 
ATOM     16  C   UNL     1      34.346 -12.101 -26.240  0.00  0.00    +0.029 C 
ATOM     17  C   UNL     1      31.631 -12.961 -23.543  0.00  0.00    +0.000 C 
ATOM     18  C   UNL     1      34.895 -10.933 -24.078  0.00  0.00    +0.029 C 
ATOM     19  C   UNL     1      34.805 -10.799 -25.591  0.00  0.00    +0.111 C 
ENDROOT
BRANCH  10  20
ATOM     20  O   UNL     1      32.874 -16.288 -26.517  0.00  0.00    -0.384 OA
ATOM     21  H   UNL     1      33.509 -17.020 -26.492  0.00  0.00    +0.210 HD
ENDBRANCH  10  20
BRANCH  19  22
ATOM     22  O   UNL     1      36.088 -10.440 -26.092  0.00  0.00    -0.384 OA
ATOM     23  H   UNL     1      36.721 -11.150 -25.900  0.00  0.00    +0.210 HD
ENDBRANCH  19  22
BRANCH   6  24
ATOM     24  C   UNL     1      35.747 -18.560 -21.109  0.00  0.00    +0.000 C 
ATOM     25  C   UNL     1      37.168 -19.113 -20.952  0.00  0.00    +0.000 C 
BRANCH  24  26
ATOM     26  C   UNL     1      34.733 -19.716 -20.986  0.00  0.00    +0.010 C 
BRANCH  26  27
ATOM     27  C   UNL     1      35.215 -20.850 -20.079  0.00  0.00    +0.085 C 
BRANCH  27  30
ATOM     28  O   UNL     1      32.925 -21.625 -19.950  0.00  0.00    -0.275 OA
ATOM     29  N   UNL     1      34.470 -22.395 -18.394  0.00  0.00    -0.303 N 
ATOM     30  C   UNL     1      34.063 -21.649 -19.491  0.00  0.00    +0.223 C 
ATOM     31  H   UNL     1      35.411 -22.338 -18.111  0.00  0.00    +0.149 HD
BRANCH  29  32
ATOM     32  C   UNL     1      33.577 -23.253 -17.649  0.00  0.00    +0.115 C 
BRANCH  32  33
ATOM     33  C   UNL     1      33.819 -23.171 -16.154  0.00  0.00    +0.179 C 
BRANCH  33  34
ATOM     34  S   UNL     1      35.434 -23.726 -15.705  0.00  0.00    +0.024 S 
ATOM     35  O   UNL     1      35.407 -23.222 -14.153  0.00  0.00    -0.069 OA
ATOM     36  O   UNL     1      36.419 -22.946 -16.431  0.00  0.00    -0.069 OA
ATOM     37  O   UNL     1      35.451 -25.177 -15.723  0.00  0.00    -0.069 OA
ENDBRANCH  33  34
ENDBRANCH  32  33
ENDBRANCH  29  32
ENDBRANCH  27  30
ENDBRANCH  26  27
ENDBRANCH  24  26
ENDBRANCH   6  24
TORSDOF 9
ENDMDL
MODEL 2
REMARK VINA RESULT:      -8.4      3.924      6.602
REMARK  Name = 9848818
REMARK  9 active torsions:
REMARK  status: ('A' for Active; 'I' for Inactive)
REMARK    1  A    between atoms: C_6  and  C_24
REMARK    2  A    between atoms: C_10  and  O_20
REMARK    3  A    between atoms: C_19  and  O_22
REMARK    4  A    between atoms: C_24  and  C_26
REMARK    5  A    between atoms: C_26  and  C_27
REMARK    6  A    between atoms: C_27  and  C_30
REMARK    7  A    between atoms: N_29  and  C_32
REMARK    8  A    between atoms: C_32  and  C_33
REMARK    9  A    between atoms: C_33  and  S_34
REMARK                            x       y       z     vdW  Elec       q    Type
REMARK                         _______ _______ _______ _____ _____    ______ ____
ROOT
ATOM      1  C   UNL     1      32.395 -11.060 -23.074  0.00  0.00    +0.002 C 
ATOM      2  C   UNL     1      33.399 -11.751 -24.025  0.00  0.00    +0.000 C 
ATOM      3  C   UNL     1      32.904  -9.705 -22.542  0.00  0.00    +0.027 C 
ATOM      4  C   UNL     1      33.168  -8.766 -23.769  0.00  0.00    +0.002 C 
ATOM      5  C   UNL     1      33.648  -7.331 -23.333  0.00  0.00    +0.000 C 
ATOM      6  C   UNL     1      32.612 -13.051 -24.325  0.00  0.00    +0.000 C 
ATOM      7  C   UNL     1      32.613  -6.718 -22.335  0.00  0.00    +0.005 C 
ATOM      8  C   UNL     1      33.605 -10.842 -25.242  0.00  0.00    +0.000 C 
ATOM      9  C   UNL     1      34.080  -9.439 -24.830  0.00  0.00    +0.000 C 
ATOM     10  C   UNL     1      31.919  -9.058 -21.548  0.00  0.00    +0.110 C 
ATOM     11  C   UNL     1      32.017 -12.173 -22.098  0.00  0.00    +0.000 C 
ATOM     12  C   UNL     1      32.038 -13.455 -22.950  0.00  0.00    +0.000 C 
ATOM     13  C   UNL     1      32.344  -7.646 -21.144  0.00  0.00    +0.029 C 
ATOM     14  C   UNL     1      33.795  -6.357 -24.540  0.00  0.00    +0.002 C 
ATOM     15  C   UNL     1      34.769 -12.066 -23.374  0.00  0.00    +0.000 C 
ATOM     16  C   UNL     1      31.286  -6.323 -23.015  0.00  0.00    +0.029 C 
ATOM     17  C   UNL     1      35.042  -7.394 -22.658  0.00  0.00    +0.000 C 
ATOM     18  C   UNL     1      32.474  -6.001 -25.211  0.00  0.00    +0.029 C 
ATOM     19  C   UNL     1      31.499  -5.399 -24.210  0.00  0.00    +0.111 C 
ENDROOT
BRANCH  10  20
ATOM     20  O   UNL     1      31.854  -9.843 -20.358  0.00  0.00    -0.384 OA
ATOM     21  H   UNL     1      31.218 -10.564 -20.481  0.00  0.00    +0.210 HD
ENDBRANCH  10  20
BRANCH  19  22
ATOM     22  O   UNL     1      30.257  -5.171 -24.867  0.00  0.00    -0.384 OA
ATOM     23  H   UNL     1      29.948  -5.998 -25.271  0.00  0.00    +0.210 HD
ENDBRANCH  19  22
BRANCH   6  24
ATOM     24  C   UNL     1      33.384 -14.176 -24.998  0.00  0.00    +0.000 C 
ATOM     25  C   UNL     1      32.611 -14.685 -26.221  0.00  0.00    +0.000 C 
BRANCH  24  26
ATOM     26  C   UNL     1      33.670 -15.357 -24.048  0.00  0.00    +0.010 C 
BRANCH  26  27
ATOM     27  C   UNL     1      34.949 -16.119 -24.396  0.00  0.00    +0.085 C 
BRANCH  27  30
ATOM     28  O   UNL     1      34.579 -18.252 -25.481  0.00  0.00    -0.275 OA
ATOM     29  N   UNL     1      34.740 -18.173 -23.164  0.00  0.00    -0.303 N 
ATOM     30  C   UNL     1      34.733 -17.623 -24.438  0.00  0.00    +0.223 C 
ATOM     31  H   UNL     1      34.872 -17.573 -22.395  0.00  0.00    +0.149 HD
BRANCH  29  32
ATOM     32  C   UNL     1      34.564 -19.586 -22.914  0.00  0.00    +0.115 C 
BRANCH  32  33
ATOM     33  C   UNL     1      34.935 -19.966 -21.493  0.00  0.00    +0.179 C 
BRANCH  33  34
ATOM     34  S   UNL     1      36.326 -19.057 -20.897  0.00  0.00    +0.024 S 
ATOM     35  O   UNL     1      35.532 -17.685 -20.511  0.00  0.00    -0.069 OA
ATOM     36  O   UNL     1      37.220 -18.782 -22.008  0.00  0.00    -0.069 OA
ATOM     37  O   UNL     1      36.802 -19.679 -19.676  0.00  0.00    -0.069 OA
ENDBRANCH  33  34
ENDBRANCH  32  33
ENDBRANCH  29  32
ENDBRANCH  27  30
ENDBRANCH  26  27
ENDBRANCH  24  26
ENDBRANCH   6  24
TORSDOF 9
ENDMDL
MODEL 3
REMARK VINA RESULT:      -8.1      3.709      6.177
REMARK  Name = 9848818
REMARK  9 active torsions:
REMARK  status: ('A' for Active; 'I' for Inactive)
REMARK    1  A    between atoms: C_6  and  C_24
REMARK    2  A    between atoms: C_10  and  O_20
REMARK    3  A    between atoms: C_19  and  O_22
REMARK    4  A    between atoms: C_24  and  C_26
REMARK    5  A    between atoms: C_26  and  C_27
REMARK    6  A    between atoms: C_27  and  C_30
REMARK    7  A    between atoms: N_29  and  C_32
REMARK    8  A    between atoms: C_32  and  C_33
REMARK    9  A    between atoms: C_33  and  S_34
REMARK                            x       y       z     vdW  Elec       q    Type
REMARK                         _______ _______ _______ _____ _____    ______ ____
ROOT
ATOM      1  C   UNL     1      32.408 -11.152 -22.917  0.00  0.00    +0.002 C 
ATOM      2  C   UNL     1      33.426 -11.865 -23.836  0.00  0.00    +0.000 C 
ATOM      3  C   UNL     1      32.904  -9.776 -22.423  0.00  0.00    +0.027 C 
ATOM      4  C   UNL     1      33.173  -8.875 -23.677  0.00  0.00    +0.002 C 
ATOM      5  C   UNL     1      33.638  -7.423 -23.283  0.00  0.00    +0.000 C 
ATOM      6  C   UNL     1      32.651 -13.179 -24.102  0.00  0.00    +0.000 C 
ATOM      7  C   UNL     1      32.590  -6.787 -22.314  0.00  0.00    +0.005 C 
ATOM      8  C   UNL     1      33.637 -10.994 -25.080  0.00  0.00    +0.000 C 
ATOM      9  C   UNL     1      34.098  -9.575 -24.708  0.00  0.00    +0.000 C 
ATOM     10  C   UNL     1      31.906  -9.105 -21.460  0.00  0.00    +0.110 C 
ATOM     11  C   UNL     1      32.029 -12.236 -21.909  0.00  0.00    +0.000 C 
ATOM     12  C   UNL     1      32.066 -13.544 -22.720  0.00  0.00    +0.000 C 
ATOM     13  C   UNL     1      32.317  -7.678 -21.097  0.00  0.00    +0.029 C 
ATOM     14  C   UNL     1      33.790  -6.488 -24.519  0.00  0.00    +0.002 C 
ATOM     15  C   UNL     1      34.793 -12.150 -23.163  0.00  0.00    +0.000 C 
ATOM     16  C   UNL     1      31.267  -6.423 -23.018  0.00  0.00    +0.029 C 
ATOM     17  C   UNL     1      35.027  -7.456 -22.594  0.00  0.00    +0.000 C 
ATOM     18  C   UNL     1      32.473  -6.162 -25.213  0.00  0.00    +0.029 C 
ATOM     19  C   UNL     1      31.485  -5.536 -24.240  0.00  0.00    +0.111 C 
ENDROOT
BRANCH  10  20
ATOM     20  O   UNL     1      31.834  -9.853 -20.246  0.00  0.00    -0.384 OA
ATOM     21  H   UNL     1      31.876  -9.247 -19.490  0.00  0.00    +0.210 HD
ENDBRANCH  10  20
BRANCH  19  22
ATOM     22  O   UNL     1      30.247  -5.338 -24.915  0.00  0.00    -0.384 OA
ATOM     23  H   UNL     1      29.806  -6.193 -25.039  0.00  0.00    +0.210 HD
ENDBRANCH  19  22
BRANCH   6  24
ATOM     24  C   UNL     1      33.437 -14.320 -24.732  0.00  0.00    +0.000 C 
ATOM     25  C   UNL     1      32.795 -14.727 -26.064  0.00  0.00    +0.000 C 
BRANCH  24  26
ATOM     26  C   UNL     1      33.535 -15.556 -23.815  0.00  0.00    +0.010 C 
BRANCH  26  27
ATOM     27  C   UNL     1      34.910 -15.720 -23.165  0.00  0.00    +0.085 C 
BRANCH  27  30
ATOM     28  O   UNL     1      34.987 -16.044 -20.767  0.00  0.00    -0.275 OA
ATOM     29  N   UNL     1      34.622 -17.879 -22.146  0.00  0.00    -0.303 N 
ATOM     30  C   UNL     1      34.851 -16.536 -21.884  0.00  0.00    +0.223 C 
ATOM     31  H   UNL     1      34.529 -18.164 -23.083  0.00  0.00    +0.149 HD
BRANCH  29  32
ATOM     32  C   UNL     1      34.513 -18.878 -21.108  0.00  0.00    +0.115 C 
BRANCH  32  33
ATOM     33  C   UNL     1      35.825 -19.597 -20.864  0.00  0.00    +0.179 C 
BRANCH  33  34
ATOM     34  S   UNL     1      35.618 -21.059 -19.896  0.00  0.00    +0.024 S 
ATOM     35  O   UNL     1      36.605 -20.640 -18.666  0.00  0.00    -0.069 OA
ATOM     36  O   UNL     1      36.207 -22.181 -20.605  0.00  0.00    -0.069 OA
ATOM     37  O   UNL     1      34.254 -21.104 -19.403  0.00  0.00    -0.069 OA
ENDBRANCH  33  34
ENDBRANCH  32  33
ENDBRANCH  29  32
ENDBRANCH  27  30
ENDBRANCH  26  27
ENDBRANCH  24  26
ENDBRANCH   6  24
TORSDOF 9
ENDMDL
MODEL 4
REMARK VINA RESULT:      -7.7      3.943     12.071
REMARK  Name = 9848818
REMARK  9 active torsions:
REMARK  status: ('A' for Active; 'I' for Inactive)
REMARK    1  A    between atoms: C_6  and  C_24
REMARK    2  A    between atoms: C_10  and  O_20
REMARK    3  A    between atoms: C_19  and  O_22
REMARK    4  A    between atoms: C_24  and  C_26
REMARK    5  A    between atoms: C_26  and  C_27
REMARK    6  A    between atoms: C_27  and  C_30
REMARK    7  A    between atoms: N_29  and  C_32
REMARK    8  A    between atoms: C_32  and  C_33
REMARK    9  A    between atoms: C_33  and  S_34
REMARK                            x       y       z     vdW  Elec       q    Type
REMARK                         _______ _______ _______ _____ _____    ______ ____
ROOT
ATOM      1  C   UNL     1      33.457 -22.816 -16.505  0.00  0.00    +0.002 C 
ATOM      2  C   UNL     1      34.232 -22.702 -17.838  0.00  0.00    +0.000 C 
ATOM      3  C   UNL     1      33.980 -23.950 -15.599  0.00  0.00    +0.027 C 
ATOM      4  C   UNL     1      35.489 -23.668 -15.285  0.00  0.00    +0.002 C 
ATOM      5  C   UNL     1      36.113 -24.747 -14.321  0.00  0.00    +0.000 C 
ATOM      6  C   UNL     1      33.448 -21.536 -18.489  0.00  0.00    +0.000 C 
ATOM      7  C   UNL     1      35.248 -24.844 -13.023  0.00  0.00    +0.005 C 
ATOM      8  C   UNL     1      35.694 -22.375 -17.511  0.00  0.00    +0.000 C 
ATOM      9  C   UNL     1      36.316 -23.425 -16.576  0.00  0.00    +0.000 C 
ATOM     10  C   UNL     1      33.158 -24.091 -14.303  0.00  0.00    +0.110 C 
ATOM     11  C   UNL     1      31.995 -22.803 -16.949  0.00  0.00    +0.000 C 
ATOM     12  C   UNL     1      31.973 -21.865 -18.170  0.00  0.00    +0.000 C 
ATOM     13  C   UNL     1      33.770 -25.104 -13.334  0.00  0.00    +0.029 C 
ATOM     14  C   UNL     1      37.575 -24.406 -13.909  0.00  0.00    +0.002 C 
ATOM     15  C   UNL     1      34.167 -23.977 -18.716  0.00  0.00    +0.000 C 
ATOM     16  C   UNL     1      35.394 -23.607 -12.112  0.00  0.00    +0.029 C 
ATOM     17  C   UNL     1      36.170 -26.135 -15.009  0.00  0.00    +0.000 C 
ATOM     18  C   UNL     1      37.698 -23.167 -13.031  0.00  0.00    +0.029 C 
ATOM     19  C   UNL     1      36.850 -23.305 -11.773  0.00  0.00    +0.111 C 
ENDROOT
BRANCH  10  20
ATOM     20  O   UNL     1      31.840 -24.540 -14.616  0.00  0.00    -0.384 OA
ATOM     21  H   UNL     1      31.225 -24.243 -13.928  0.00  0.00    +0.210 HD
ENDBRANCH  10  20
BRANCH  19  22
ATOM     22  O   UNL     1      36.929 -22.088 -11.038  0.00  0.00    -0.384 OA
ATOM     23  H   UNL     1      37.488 -21.456 -11.517  0.00  0.00    +0.210 HD
ENDBRANCH  19  22
BRANCH   6  24
ATOM     24  C   UNL     1      33.693 -21.292 -19.971  0.00  0.00    +0.000 C 
ATOM     25  C   UNL     1      35.199 -21.275 -20.257  0.00  0.00    +0.000 C 
BRANCH  24  26
ATOM     26  C   UNL     1      33.064 -19.975 -20.471  0.00  0.00    +0.010 C 
BRANCH  26  27
ATOM     27  C   UNL     1      33.888 -19.286 -21.560  0.00  0.00    +0.085 C 
BRANCH  27  30
ATOM     28  O   UNL     1      35.687 -17.946 -20.650  0.00  0.00    -0.275 OA
ATOM     29  N   UNL     1      33.665 -16.925 -21.166  0.00  0.00    -0.303 N 
ATOM     30  C   UNL     1      34.535 -18.001 -21.070  0.00  0.00    +0.223 C 
ATOM     31  H   UNL     1      32.759 -17.084 -21.518  0.00  0.00    +0.149 HD
BRANCH  29  32
ATOM     32  C   UNL     1      34.025 -15.581 -20.775  0.00  0.00    +0.115 C 
BRANCH  32  33
ATOM     33  C   UNL     1      34.727 -14.829 -21.890  0.00  0.00    +0.179 C 
BRANCH  33  34
ATOM     34  S   UNL     1      33.706 -14.642 -23.319  0.00  0.00    +0.024 S 
ATOM     35  O   UNL     1      32.269 -14.603 -22.548  0.00  0.00    -0.069 OA
ATOM     36  O   UNL     1      33.778 -15.857 -24.110  0.00  0.00    -0.069 OA
ATOM     37  O   UNL     1      33.956 -13.338 -23.904  0.00  0.00    -0.069 OA
ENDBRANCH  33  34
ENDBRANCH  32  33
ENDBRANCH  29  32
ENDBRANCH  27  30
ENDBRANCH  26  27
ENDBRANCH  24  26
ENDBRANCH   6  24
TORSDOF 9
ENDMDL
MODEL 5
REMARK VINA RESULT:      -7.1      2.879      4.178
REMARK  Name = 9848818
REMARK  9 active torsions:
REMARK  status: ('A' for Active; 'I' for Inactive)
REMARK    1  A    between atoms: C_6  and  C_24
REMARK    2  A    between atoms: C_10  and  O_20
REMARK    3  A    between atoms: C_19  and  O_22
REMARK    4  A    between atoms: C_24  and  C_26
REMARK    5  A    between atoms: C_26  and  C_27
REMARK    6  A    between atoms: C_27  and  C_30
REMARK    7  A    between atoms: N_29  and  C_32
REMARK    8  A    between atoms: C_32  and  C_33
REMARK    9  A    between atoms: C_33  and  S_34
REMARK                            x       y       z     vdW  Elec       q    Type
REMARK                         _______ _______ _______ _____ _____    ______ ____
ROOT
ATOM      1  C   UNL     1      33.810 -13.089 -22.843  0.00  0.00    +0.002 C 
ATOM      2  C   UNL     1      33.344 -14.297 -21.997  0.00  0.00    +0.000 C 
ATOM      3  C   UNL     1      32.736 -11.988 -22.964  0.00  0.00    +0.027 C 
ATOM      4  C   UNL     1      32.380 -11.490 -21.521  0.00  0.00    +0.002 C 
ATOM      5  C   UNL     1      31.321 -10.325 -21.532  0.00  0.00    +0.000 C 
ATOM      6  C   UNL     1      34.604 -15.189 -22.114  0.00  0.00    +0.000 C 
ATOM      7  C   UNL     1      31.835  -9.165 -22.446  0.00  0.00    +0.005 C 
ATOM      8  C   UNL     1      33.052 -13.799 -20.577  0.00  0.00    +0.000 C 
ATOM      9  C   UNL     1      32.014 -12.665 -20.575  0.00  0.00    +0.000 C 
ATOM     10  C   UNL     1      33.192 -10.820 -23.859  0.00  0.00    +0.110 C 
ATOM     11  C   UNL     1      34.383 -13.743 -24.099  0.00  0.00    +0.000 C 
ATOM     12  C   UNL     1      35.011 -15.055 -23.597  0.00  0.00    +0.000 C 
ATOM     13  C   UNL     1      32.197  -9.659 -23.852  0.00  0.00    +0.029 C 
ATOM     14  C   UNL     1      31.055  -9.745 -20.112  0.00  0.00    +0.002 C 
ATOM     15  C   UNL     1      32.095 -15.018 -22.564  0.00  0.00    +0.000 C 
ATOM     16  C   UNL     1      33.021  -8.396 -21.828  0.00  0.00    +0.029 C 
ATOM     17  C   UNL     1      29.951 -10.828 -22.057  0.00  0.00    +0.000 C 
ATOM     18  C   UNL     1      32.247  -9.010 -19.511  0.00  0.00    +0.029 C 
ATOM     19  C   UNL     1      32.711  -7.884 -20.425  0.00  0.00    +0.111 C 
ENDROOT
BRANCH  10  20
ATOM     20  O   UNL     1      33.317 -11.269 -25.209  0.00  0.00    -0.384 OA
ATOM     21  H   UNL     1      33.546 -12.211 -25.216  0.00  0.00    +0.210 HD
ENDBRANCH  10  20
BRANCH  19  22
ATOM     22  O   UNL     1      33.878  -7.294 -19.861  0.00  0.00    -0.384 OA
ATOM     23  H   UNL     1      34.514  -7.099 -20.567  0.00  0.00    +0.210 HD
ENDBRANCH  19  22
BRANCH   6  24
ATOM     24  C   UNL     1      34.459 -16.637 -21.668  0.00  0.00    +0.000 C 
ATOM     25  C   UNL     1      34.828 -16.770 -20.186  0.00  0.00    +0.000 C 
BRANCH  24  26
ATOM     26  C   UNL     1      35.325 -17.607 -22.498  0.00  0.00    +0.010 C 
BRANCH  26  27
ATOM     27  C   UNL     1      35.068 -19.079 -22.171  0.00  0.00    +0.085 C 
BRANCH  27  30
ATOM     28  O   UNL     1      37.201 -19.169 -21.029  0.00  0.00    -0.275 OA
ATOM     29  N   UNL     1      35.554 -20.710 -20.472  0.00  0.00    -0.303 N 
ATOM     30  C   UNL     1      36.075 -19.634 -21.176  0.00  0.00    +0.223 C 
ATOM     31  H   UNL     1      34.635 -21.000 -20.672  0.00  0.00    +0.149 HD
BRANCH  29  32
ATOM     32  C   UNL     1      36.295 -21.422 -19.457  0.00  0.00    +0.115 C 
BRANCH  32  33
ATOM     33  C   UNL     1      35.406 -21.894 -18.323  0.00  0.00    +0.179 C 
BRANCH  33  34
ATOM     34  S   UNL     1      33.824 -22.435 -18.892  0.00  0.00    +0.024 S 
ATOM     35  O   UNL     1      33.261 -22.980 -17.461  0.00  0.00    -0.069 OA
ATOM     36  O   UNL     1      34.006 -23.565 -19.783  0.00  0.00    -0.069 OA
ATOM     37  O   UNL     1      33.048 -21.274 -19.286  0.00  0.00    -0.069 OA
ENDBRANCH  33  34
ENDBRANCH  32  33
ENDBRANCH  29  32
ENDBRANCH  27  30
ENDBRANCH  26  27
ENDBRANCH  24  26
ENDBRANCH   6  24
TORSDOF 9
ENDMDL
