MODEL 1
REMARK VINA RESULT:      -8.3      0.000      0.000
REMARK  Name = 92282619
REMARK  13 active torsions:
REMARK  status: ('A' for Active; 'I' for Inactive)
REMARK    1  A    between atoms: C_2  and  C_10
REMARK    2  A    between atoms: C_3  and  C_23
REMARK    3  A    between atoms: C_4  and  O_8
REMARK    4  A    between atoms: C_10  and  N_11
REMARK    5  A    between atoms: N_11  and  CA_14
REMARK    6  A    between atoms: CA_14  and  C_16
REMARK    7  A    between atoms: CA_14  and  CB_19
REMARK    8  A    between atoms: C_16  and  O_17
REMARK    9  A    between atoms: CB_19  and  CG1_21
REMARK   10  A    between atoms: C_23  and  O_24
REMARK   11  A    between atoms: O_24  and  P_25
REMARK   12  A    between atoms: P_25  and  O_27
REMARK   13  A    between atoms: P_25  and  O_29
REMARK                            x       y       z     vdW  Elec       q    Type
REMARK                         _______ _______ _______ _____ _____    ______ ____
ROOT
ATOM      1  N   UNK A   0      36.942 -21.815 -17.687  0.00  0.00    -0.245 NA
ATOM      2  C   UNK A   0      35.019 -23.239 -16.241  0.00  0.00    -0.009 C 
ATOM      3  C   UNK A   0      36.310 -23.107 -15.743  0.00  0.00    +0.024 C 
ATOM      4  C   UNK A   0      34.688 -22.659 -17.461  0.00  0.00    +0.141 C 
ATOM      5  C   UNK A   0      35.677 -21.965 -18.138  0.00  0.00    +0.092 C 
ATOM      6  C   UNK A   0      37.226 -22.392 -16.497  0.00  0.00    +0.096 C 
ATOM      7  C   UNK A   0      35.375 -21.323 -19.453  0.00  0.00    +0.055 C 
ENDROOT
BRANCH   4   8
ATOM      8  O   UNK A   0      33.434 -22.773 -17.973  0.00  0.00    -0.505 OA
ATOM      9  H   UNK A   0      33.306 -22.778 -18.901  0.00  0.00    +0.292 HD
ENDBRANCH   4   8
BRANCH   2  10
ATOM     10  C   UNK A   0      33.981 -24.004 -15.464  0.00  0.00    -0.051 C 
BRANCH  10  11
ATOM     11  N   ILE A   1      32.814 -23.189 -15.171  0.00  0.00    +0.395 N 
ATOM     12  H1  ILE A   1      33.017 -22.593 -14.368  0.00  0.00    -0.083 HD
ATOM     13  H2  ILE A   1      32.597 -22.620 -15.988  0.00  0.00    -0.083 HD
BRANCH  11  14
ATOM     14  CA  ILE A   1      31.658 -24.035 -14.863  0.00  0.00    +0.040 C 
BRANCH  14  16
ATOM     15  OXT ILE A   1      30.573 -24.462 -12.719  0.00  0.00    -0.253 OA
ATOM     16  C   ILE A   1      31.367 -23.809 -13.386  0.00  0.00    +0.293 C 
BRANCH  16  17
ATOM     17  O   ILE A   1      32.114 -22.804 -12.858  0.00  0.00    -0.482 OA
ATOM     18  H   ILE A   1      32.924 -22.998 -12.429  0.00  0.00    +0.295 HD
ENDBRANCH  16  17
ENDBRANCH  14  16
BRANCH  14  19
ATOM     19  CB  ILE A   1      30.424 -23.672 -15.726  0.00  0.00    -0.009 C 
ATOM     20  CG2 ILE A   1      29.505 -24.888 -15.924  0.00  0.00    -0.002 C 
BRANCH  19  21
ATOM     21  CG1 ILE A   1      29.608 -22.474 -15.184  0.00  0.00    -0.002 C 
ATOM     22  CD1 ILE A   1      28.174 -22.385 -15.690  0.00  0.00    -0.000 C 
ENDBRANCH  19  21
ENDBRANCH  14  19
ENDBRANCH  11  14
ENDBRANCH  10  11
ENDBRANCH   2  10
BRANCH   3  23
ATOM     23  C   UNK A   0      36.720 -23.705 -14.442  0.00  0.00    +0.181 C 
BRANCH  23  24
ATOM     24  O   UNK A   0      37.688 -24.723 -14.672  0.00  0.00    -0.268 OA
BRANCH  24  25
ATOM     25  P   UNK A   0      37.199 -26.264 -14.648  0.00  0.00    +0.473 P 
ATOM     26  O   UNK A   0      36.202 -26.631 -15.708  0.00  0.00    -0.227 OA
BRANCH  25  27
ATOM     27  O   UNK A   0      36.704 -26.487 -13.125  0.00  0.00    -0.303 OA
ATOM     28  H   UNK A   0      37.240 -25.940 -12.528  0.00  0.00    +0.222 HD
ENDBRANCH  25  27
BRANCH  25  29
ATOM     29  O   UNK A   0      38.593 -27.080 -14.710  0.00  0.00    -0.303 OA
ATOM     30  H   UNK A   0      38.989 -26.980 -15.590  0.00  0.00    +0.222 HD
ENDBRANCH  25  29
ENDBRANCH  24  25
ENDBRANCH  23  24
ENDBRANCH   3  23
TORSDOF 13
ENDMDL
MODEL 2
REMARK VINA RESULT:      -8.3      2.788      5.974
REMARK  Name = 92282619
REMARK  13 active torsions:
REMARK  status: ('A' for Active; 'I' for Inactive)
REMARK    1  A    between atoms: C_2  and  C_10
REMARK    2  A    between atoms: C_3  and  C_23
REMARK    3  A    between atoms: C_4  and  O_8
REMARK    4  A    between atoms: C_10  and  N_11
REMARK    5  A    between atoms: N_11  and  CA_14
REMARK    6  A    between atoms: CA_14  and  C_16
REMARK    7  A    between atoms: CA_14  and  CB_19
REMARK    8  A    between atoms: C_16  and  O_17
REMARK    9  A    between atoms: CB_19  and  CG1_21
REMARK   10  A    between atoms: C_23  and  O_24
REMARK   11  A    between atoms: O_24  and  P_25
REMARK   12  A    between atoms: P_25  and  O_27
REMARK   13  A    between atoms: P_25  and  O_29
REMARK                            x       y       z     vdW  Elec       q    Type
REMARK                         _______ _______ _______ _____ _____    ______ ____
ROOT
ATOM      1  N   UNK A   0      33.698 -22.653 -18.235  0.00  0.00    -0.245 NA
ATOM      2  C   UNK A   0      35.529 -22.931 -16.141  0.00  0.00    -0.009 C 
ATOM      3  C   UNK A   0      34.224 -23.386 -15.992  0.00  0.00    +0.024 C 
ATOM      4  C   UNK A   0      35.920 -22.337 -17.336  0.00  0.00    +0.141 C 
ATOM      5  C   UNK A   0      34.974 -22.223 -18.343  0.00  0.00    +0.092 C 
ATOM      6  C   UNK A   0      33.355 -23.226 -17.058  0.00  0.00    +0.096 C 
ATOM      7  C   UNK A   0      35.341 -21.594 -19.647  0.00  0.00    +0.055 C 
ENDROOT
BRANCH   4   8
ATOM      8  O   UNK A   0      37.188 -21.882 -17.510  0.00  0.00    -0.505 OA
ATOM      9  H   UNK A   0      37.669 -22.117 -18.280  0.00  0.00    +0.292 HD
ENDBRANCH   4   8
BRANCH   2  10
ATOM     10  C   UNK A   0      36.517 -23.079 -15.016  0.00  0.00    -0.051 C 
BRANCH  10  11
ATOM     11  N   ILE A   1      37.428 -24.190 -15.238  0.00  0.00    +0.395 N 
ATOM     12  H1  ILE A   1      37.254 -24.585 -16.162  0.00  0.00    -0.083 HD
ATOM     13  H2  ILE A   1      38.386 -23.846 -15.175  0.00  0.00    -0.083 HD
BRANCH  11  14
ATOM     14  CA  ILE A   1      37.231 -25.230 -14.224  0.00  0.00    +0.040 C 
BRANCH  14  16
ATOM     15  OXT ILE A   1      37.931 -27.471 -14.888  0.00  0.00    -0.253 OA
ATOM     16  C   ILE A   1      37.142 -26.540 -14.994  0.00  0.00    +0.293 C 
BRANCH  16  17
ATOM     17  O   ILE A   1      36.057 -26.588 -15.812  0.00  0.00    -0.482 OA
ATOM     18  H   ILE A   1      35.739 -25.804 -16.215  0.00  0.00    +0.295 HD
ENDBRANCH  16  17
ENDBRANCH  14  16
BRANCH  14  19
ATOM     19  CB  ILE A   1      38.393 -25.274 -13.201  0.00  0.00    -0.009 C 
ATOM     20  CG2 ILE A   1      39.751 -25.063 -13.891  0.00  0.00    -0.002 C 
BRANCH  19  21
ATOM     21  CG1 ILE A   1      38.236 -24.280 -12.026  0.00  0.00    -0.002 C 
ATOM     22  CD1 ILE A   1      36.806 -24.070 -11.542  0.00  0.00    -0.000 C 
ENDBRANCH  19  21
ENDBRANCH  14  19
ENDBRANCH  11  14
ENDBRANCH  10  11
ENDBRANCH   2  10
BRANCH   3  23
ATOM     23  C   UNK A   0      33.751 -24.030 -14.735  0.00  0.00    +0.181 C 
BRANCH  23  24
ATOM     24  O   UNK A   0      32.370 -24.351 -14.857  0.00  0.00    -0.268 OA
BRANCH  24  25
ATOM     25  P   UNK A   0      31.337 -23.705 -13.794  0.00  0.00    +0.473 P 
ATOM     26  O   UNK A   0      30.221 -22.903 -14.400  0.00  0.00    -0.227 OA
BRANCH  25  27
ATOM     27  O   UNK A   0      32.291 -22.898 -12.769  0.00  0.00    -0.303 OA
ATOM     28  H   UNK A   0      32.992 -22.446 -13.267  0.00  0.00    +0.222 HD
ENDBRANCH  25  27
BRANCH  25  29
ATOM     29  O   UNK A   0      30.864 -24.989 -12.932  0.00  0.00    -0.303 OA
ATOM     30  H   UNK A   0      31.227 -24.928 -12.035  0.00  0.00    +0.222 HD
ENDBRANCH  25  29
ENDBRANCH  24  25
ENDBRANCH  23  24
ENDBRANCH   3  23
TORSDOF 13
ENDMDL
MODEL 3
REMARK VINA RESULT:      -8.0      2.092      2.919
REMARK  Name = 92282619
REMARK  13 active torsions:
REMARK  status: ('A' for Active; 'I' for Inactive)
REMARK    1  A    between atoms: C_2  and  C_10
REMARK    2  A    between atoms: C_3  and  C_23
REMARK    3  A    between atoms: C_4  and  O_8
REMARK    4  A    between atoms: C_10  and  N_11
REMARK    5  A    between atoms: N_11  and  CA_14
REMARK    6  A    between atoms: CA_14  and  C_16
REMARK    7  A    between atoms: CA_14  and  CB_19
REMARK    8  A    between atoms: C_16  and  O_17
REMARK    9  A    between atoms: CB_19  and  CG1_21
REMARK   10  A    between atoms: C_23  and  O_24
REMARK   11  A    between atoms: O_24  and  P_25
REMARK   12  A    between atoms: P_25  and  O_27
REMARK   13  A    between atoms: P_25  and  O_29
REMARK                            x       y       z     vdW  Elec       q    Type
REMARK                         _______ _______ _______ _____ _____    ______ ____
ROOT
ATOM      1  N   UNK A   0      36.315 -22.023 -17.750  0.00  0.00    -0.245 NA
ATOM      2  C   UNK A   0      33.744 -23.049 -17.368  0.00  0.00    -0.009 C 
ATOM      3  C   UNK A   0      34.688 -23.138 -16.352  0.00  0.00    +0.024 C 
ATOM      4  C   UNK A   0      34.082 -22.447 -18.575  0.00  0.00    +0.141 C 
ATOM      5  C   UNK A   0      35.370 -21.954 -18.713  0.00  0.00    +0.092 C 
ATOM      6  C   UNK A   0      35.948 -22.615 -16.591  0.00  0.00    +0.096 C 
ATOM      7  C   UNK A   0      35.788 -21.298 -19.989  0.00  0.00    +0.055 C 
ENDROOT
BRANCH   4   8
ATOM      8  O   UNK A   0      33.180 -22.346 -19.585  0.00  0.00    -0.505 OA
ATOM      9  H   UNK A   0      32.789 -21.517 -19.783  0.00  0.00    +0.292 HD
ENDBRANCH   4   8
BRANCH   2  10
ATOM     10  C   UNK A   0      32.357 -23.600 -17.165  0.00  0.00    -0.051 C 
BRANCH  10  11
ATOM     11  N   ILE A   1      31.350 -22.551 -17.178  0.00  0.00    +0.395 N 
ATOM     12  H1  ILE A   1      31.814 -21.643 -17.170  0.00  0.00    -0.083 HD
ATOM     13  H2  ILE A   1      30.782 -22.652 -18.018  0.00  0.00    -0.083 HD
BRANCH  11  14
ATOM     14  CA  ILE A   1      30.480 -22.658 -16.003  0.00  0.00    +0.040 C 
BRANCH  14  16
ATOM     15  OXT ILE A   1      28.702 -23.176 -17.593  0.00  0.00    -0.253 OA
ATOM     16  C   ILE A   1      29.057 -22.647 -16.546  0.00  0.00    +0.293 C 
BRANCH  16  17
ATOM     17  O   ILE A   1      28.192 -22.000 -15.722  0.00  0.00    -0.482 OA
ATOM     18  H   ILE A   1      27.510 -22.478 -15.291  0.00  0.00    +0.295 HD
ENDBRANCH  16  17
ENDBRANCH  14  16
BRANCH  14  19
ATOM     19  CB  ILE A   1      30.747 -23.952 -15.195  0.00  0.00    -0.009 C 
ATOM     20  CG2 ILE A   1      30.745 -23.674 -13.683  0.00  0.00    -0.002 C 
BRANCH  19  21
ATOM     21  CG1 ILE A   1      29.775 -25.110 -15.522  0.00  0.00    -0.002 C 
ATOM     22  CD1 ILE A   1      28.873 -25.543 -14.373  0.00  0.00    -0.000 C 
ENDBRANCH  19  21
ENDBRANCH  14  19
ENDBRANCH  11  14
ENDBRANCH  10  11
ENDBRANCH   2  10
BRANCH   3  23
ATOM     23  C   UNK A   0      34.380 -23.772 -15.040  0.00  0.00    +0.181 C 
BRANCH  23  24
ATOM     24  O   UNK A   0      35.588 -24.220 -14.434  0.00  0.00    -0.268 OA
BRANCH  24  25
ATOM     25  P   UNK A   0      35.624 -24.381 -12.826  0.00  0.00    +0.473 P 
ATOM     26  O   UNK A   0      36.222 -23.220 -12.085  0.00  0.00    -0.227 OA
BRANCH  25  27
ATOM     27  O   UNK A   0      36.360 -25.801 -12.597  0.00  0.00    -0.303 OA
ATOM     28  H   UNK A   0      36.007 -26.224 -11.798  0.00  0.00    +0.222 HD
ENDBRANCH  25  27
BRANCH  25  29
ATOM     29  O   UNK A   0      34.080 -24.698 -12.465  0.00  0.00    -0.303 OA
ATOM     30  H   UNK A   0      33.639 -23.883 -12.181  0.00  0.00    +0.222 HD
ENDBRANCH  25  29
ENDBRANCH  24  25
ENDBRANCH  23  24
ENDBRANCH   3  23
TORSDOF 13
ENDMDL
MODEL 4
REMARK VINA RESULT:      -7.9      2.525      4.553
REMARK  Name = 92282619
REMARK  13 active torsions:
REMARK  status: ('A' for Active; 'I' for Inactive)
REMARK    1  A    between atoms: C_2  and  C_10
REMARK    2  A    between atoms: C_3  and  C_23
REMARK    3  A    between atoms: C_4  and  O_8
REMARK    4  A    between atoms: C_10  and  N_11
REMARK    5  A    between atoms: N_11  and  CA_14
REMARK    6  A    between atoms: CA_14  and  C_16
REMARK    7  A    between atoms: CA_14  and  CB_19
REMARK    8  A    between atoms: C_16  and  O_17
REMARK    9  A    between atoms: CB_19  and  CG1_21
REMARK   10  A    between atoms: C_23  and  O_24
REMARK   11  A    between atoms: O_24  and  P_25
REMARK   12  A    between atoms: P_25  and  O_27
REMARK   13  A    between atoms: P_25  and  O_29
REMARK                            x       y       z     vdW  Elec       q    Type
REMARK                         _______ _______ _______ _____ _____    ______ ____
ROOT
ATOM      1  N   UNK A   0      36.861 -25.635 -11.316  0.00  0.00    -0.245 NA
ATOM      2  C   UNK A   0      35.958 -24.534 -13.721  0.00  0.00    -0.009 C 
ATOM      3  C   UNK A   0      37.021 -25.430 -13.720  0.00  0.00    +0.024 C 
ATOM      4  C   UNK A   0      35.345 -24.188 -12.522  0.00  0.00    +0.141 C 
ATOM      5  C   UNK A   0      35.831 -24.761 -11.358  0.00  0.00    +0.092 C 
ATOM      6  C   UNK A   0      37.431 -25.947 -12.502  0.00  0.00    +0.096 C 
ATOM      7  C   UNK A   0      35.210 -24.425 -10.041  0.00  0.00    +0.055 C 
ENDROOT
BRANCH   4   8
ATOM      8  O   UNK A   0      34.305 -23.314 -12.493  0.00  0.00    -0.505 OA
ATOM      9  H   UNK A   0      34.450 -22.406 -12.670  0.00  0.00    +0.292 HD
ENDBRANCH   4   8
BRANCH   2  10
ATOM     10  C   UNK A   0      35.468 -23.940 -15.015  0.00  0.00    -0.051 C 
BRANCH  10  11
ATOM     11  N   ILE A   1      34.222 -24.546 -15.452  0.00  0.00    +0.395 N 
ATOM     12  H1  ILE A   1      34.386 -25.060 -16.317  0.00  0.00    -0.083 HD
ATOM     13  H2  ILE A   1      33.890 -25.176 -14.723  0.00  0.00    -0.083 HD
BRANCH  11  14
ATOM     14  CA  ILE A   1      33.203 -23.518 -15.688  0.00  0.00    +0.040 C 
BRANCH  14  16
ATOM     15  OXT ILE A   1      33.848 -23.939 -18.004  0.00  0.00    -0.253 OA
ATOM     16  C   ILE A   1      33.145 -23.340 -17.199  0.00  0.00    +0.293 C 
BRANCH  16  17
ATOM     17  O   ILE A   1      32.192 -22.448 -17.580  0.00  0.00    -0.482 OA
ATOM     18  H   ILE A   1      31.336 -22.486 -17.200  0.00  0.00    +0.295 HD
ENDBRANCH  16  17
ENDBRANCH  14  16
BRANCH  14  19
ATOM     19  CB  ILE A   1      31.819 -23.931 -15.131  0.00  0.00    -0.009 C 
ATOM     20  CG2 ILE A   1      31.951 -25.043 -14.079  0.00  0.00    -0.002 C 
BRANCH  19  21
ATOM     21  CG1 ILE A   1      30.994 -22.754 -14.557  0.00  0.00    -0.002 C 
ATOM     22  CD1 ILE A   1      29.593 -22.602 -15.136  0.00  0.00    -0.000 C 
ENDBRANCH  19  21
ENDBRANCH  14  19
ENDBRANCH  11  14
ENDBRANCH  10  11
ENDBRANCH   2  10
BRANCH   3  23
ATOM     23  C   UNK A   0      37.713 -25.836 -14.974  0.00  0.00    +0.181 C 
BRANCH  23  24
ATOM     24  O   UNK A   0      38.854 -26.625 -14.652  0.00  0.00    -0.268 OA
BRANCH  24  25
ATOM     25  P   UNK A   0      40.314 -25.941 -14.764  0.00  0.00    +0.473 P 
ATOM     26  O   UNK A   0      40.450 -24.616 -14.072  0.00  0.00    -0.227 OA
BRANCH  25  27
ATOM     27  O   UNK A   0      40.612 -25.926 -16.352  0.00  0.00    -0.303 OA
ATOM     28  H   UNK A   0      41.494 -26.296 -16.520  0.00  0.00    +0.222 HD
ENDBRANCH  25  27
BRANCH  25  29
ATOM     29  O   UNK A   0      41.294 -27.103 -14.212  0.00  0.00    -0.303 OA
ATOM     30  H   UNK A   0      40.814 -27.658 -13.578  0.00  0.00    +0.222 HD
ENDBRANCH  25  29
ENDBRANCH  24  25
ENDBRANCH  23  24
ENDBRANCH   3  23
TORSDOF 13
ENDMDL
MODEL 5
REMARK VINA RESULT:      -7.9      3.062      5.923
REMARK  Name = 92282619
REMARK  13 active torsions:
REMARK  status: ('A' for Active; 'I' for Inactive)
REMARK    1  A    between atoms: C_2  and  C_10
REMARK    2  A    between atoms: C_3  and  C_23
REMARK    3  A    between atoms: C_4  and  O_8
REMARK    4  A    between atoms: C_10  and  N_11
REMARK    5  A    between atoms: N_11  and  CA_14
REMARK    6  A    between atoms: CA_14  and  C_16
REMARK    7  A    between atoms: CA_14  and  CB_19
REMARK    8  A    between atoms: C_16  and  O_17
REMARK    9  A    between atoms: CB_19  and  CG1_21
REMARK   10  A    between atoms: C_23  and  O_24
REMARK   11  A    between atoms: O_24  and  P_25
REMARK   12  A    between atoms: P_25  and  O_27
REMARK   13  A    between atoms: P_25  and  O_29
REMARK                            x       y       z     vdW  Elec       q    Type
REMARK                         _______ _______ _______ _____ _____    ______ ____
ROOT
ATOM      1  N   UNK A   0      33.037 -22.866 -18.043  0.00  0.00    -0.245 NA
ATOM      2  C   UNK A   0      34.711 -23.026 -15.810  0.00  0.00    -0.009 C 
ATOM      3  C   UNK A   0      33.351 -23.286 -15.683  0.00  0.00    +0.024 C 
ATOM      4  C   UNK A   0      35.235 -22.687 -17.053  0.00  0.00    +0.141 C 
ATOM      5  C   UNK A   0      34.363 -22.621 -18.128  0.00  0.00    +0.092 C 
ATOM      6  C   UNK A   0      32.564 -23.193 -16.819  0.00  0.00    +0.096 C 
ATOM      7  C   UNK A   0      34.873 -22.261 -19.485  0.00  0.00    +0.055 C 
ENDROOT
BRANCH   4   8
ATOM      8  O   UNK A   0      36.560 -22.427 -17.207  0.00  0.00    -0.505 OA
ATOM      9  H   UNK A   0      37.012 -21.906 -16.573  0.00  0.00    +0.292 HD
ENDBRANCH   4   8
BRANCH   2  10
ATOM     10  C   UNK A   0      35.615 -23.112 -14.610  0.00  0.00    -0.051 C 
BRANCH  10  11
ATOM     11  N   ILE A   1      35.778 -24.482 -14.151  0.00  0.00    +0.395 N 
ATOM     12  H1  ILE A   1      34.915 -24.789 -13.705  0.00  0.00    -0.083 HD
ATOM     13  H2  ILE A   1      35.992 -25.073 -14.954  0.00  0.00    -0.083 HD
BRANCH  11  14
ATOM     14  CA  ILE A   1      36.880 -24.576 -13.188  0.00  0.00    +0.040 C 
BRANCH  14  16
ATOM     15  OXT ILE A   1      36.762 -24.261 -10.772  0.00  0.00    -0.253 OA
ATOM     16  C   ILE A   1      36.221 -24.604 -11.816  0.00  0.00    +0.293 C 
BRANCH  16  17
ATOM     17  O   ILE A   1      34.932 -25.032 -11.868  0.00  0.00    -0.482 OA
ATOM     18  H   ILE A   1      34.442 -25.137 -11.076  0.00  0.00    +0.295 HD
ENDBRANCH  16  17
ENDBRANCH  14  16
BRANCH  14  19
ATOM     19  CB  ILE A   1      37.739 -25.845 -13.409  0.00  0.00    -0.009 C 
ATOM     20  CG2 ILE A   1      37.282 -26.617 -14.657  0.00  0.00    -0.002 C 
BRANCH  19  21
ATOM     21  CG1 ILE A   1      39.260 -25.570 -13.484  0.00  0.00    -0.002 C 
ATOM     22  CD1 ILE A   1      39.804 -25.319 -14.885  0.00  0.00    -0.000 C 
ENDBRANCH  19  21
ENDBRANCH  14  19
ENDBRANCH  11  14
ENDBRANCH  10  11
ENDBRANCH   2  10
BRANCH   3  23
ATOM     23  C   UNK A   0      32.736 -23.654 -14.377  0.00  0.00    +0.181 C 
BRANCH  23  24
ATOM     24  O   UNK A   0      31.951 -24.830 -14.538  0.00  0.00    -0.268 OA
BRANCH  24  25
ATOM     25  P   UNK A   0      30.373 -24.750 -14.196  0.00  0.00    +0.473 P 
ATOM     26  O   UNK A   0      29.643 -23.601 -14.830  0.00  0.00    -0.227 OA
BRANCH  25  27
ATOM     27  O   UNK A   0      30.325 -24.792 -12.581  0.00  0.00    -0.303 OA
ATOM     28  H   UNK A   0      31.052 -24.257 -12.222  0.00  0.00    +0.222 HD
ENDBRANCH  25  27
BRANCH  25  29
ATOM     29  O   UNK A   0      29.841 -26.216 -14.623  0.00  0.00    -0.303 OA
ATOM     30  H   UNK A   0      29.402 -26.163 -15.486  0.00  0.00    +0.222 HD
ENDBRANCH  25  29
ENDBRANCH  24  25
ENDBRANCH  23  24
ENDBRANCH   3  23
TORSDOF 13
ENDMDL
MODEL 6
REMARK VINA RESULT:      -7.9      2.466      6.607
REMARK  Name = 92282619
REMARK  13 active torsions:
REMARK  status: ('A' for Active; 'I' for Inactive)
REMARK    1  A    between atoms: C_2  and  C_10
REMARK    2  A    between atoms: C_3  and  C_23
REMARK    3  A    between atoms: C_4  and  O_8
REMARK    4  A    between atoms: C_10  and  N_11
REMARK    5  A    between atoms: N_11  and  CA_14
REMARK    6  A    between atoms: CA_14  and  C_16
REMARK    7  A    between atoms: CA_14  and  CB_19
REMARK    8  A    between atoms: C_16  and  O_17
REMARK    9  A    between atoms: CB_19  and  CG1_21
REMARK   10  A    between atoms: C_23  and  O_24
REMARK   11  A    between atoms: O_24  and  P_25
REMARK   12  A    between atoms: P_25  and  O_27
REMARK   13  A    between atoms: P_25  and  O_29
REMARK                            x       y       z     vdW  Elec       q    Type
REMARK                         _______ _______ _______ _____ _____    ______ ____
ROOT
ATOM      1  N   UNK A   0      30.796 -23.757 -16.035  0.00  0.00    -0.245 NA
ATOM      2  C   UNK A   0      33.328 -24.128 -14.913  0.00  0.00    -0.009 C 
ATOM      3  C   UNK A   0      33.197 -23.496 -16.144  0.00  0.00    +0.024 C 
ATOM      4  C   UNK A   0      32.195 -24.574 -14.241  0.00  0.00    +0.141 C 
ATOM      5  C   UNK A   0      30.963 -24.366 -14.841  0.00  0.00    +0.092 C 
ATOM      6  C   UNK A   0      31.920 -23.336 -16.657  0.00  0.00    +0.096 C 
ATOM      7  C   UNK A   0      29.713 -24.826 -14.164  0.00  0.00    +0.055 C 
ENDROOT
BRANCH   4   8
ATOM      8  O   UNK A   0      32.293 -25.196 -13.037  0.00  0.00    -0.505 OA
ATOM      9  H   UNK A   0      32.833 -25.956 -12.945  0.00  0.00    +0.292 HD
ENDBRANCH   4   8
BRANCH   2  10
ATOM     10  C   UNK A   0      34.691 -24.329 -14.305  0.00  0.00    -0.051 C 
BRANCH  10  11
ATOM     11  N   ILE A   1      35.330 -25.539 -14.795  0.00  0.00    +0.395 N 
ATOM     12  H1  ILE A   1      34.708 -26.332 -14.638  0.00  0.00    -0.083 HD
ATOM     13  H2  ILE A   1      35.520 -25.430 -15.790  0.00  0.00    -0.083 HD
BRANCH  11  14
ATOM     14  CA  ILE A   1      36.596 -25.774 -14.094  0.00  0.00    +0.040 C 
BRANCH  14  16
ATOM     15  OXT ILE A   1      38.427 -27.288 -14.650  0.00  0.00    -0.253 OA
ATOM     16  C   ILE A   1      37.365 -26.761 -14.961  0.00  0.00    +0.293 C 
BRANCH  16  17
ATOM     17  O   ILE A   1      36.729 -27.030 -16.131  0.00  0.00    -0.482 OA
ATOM     18  H   ILE A   1      37.226 -27.158 -16.916  0.00  0.00    +0.295 HD
ENDBRANCH  16  17
ENDBRANCH  14  16
BRANCH  14  19
ATOM     19  CB  ILE A   1      37.406 -24.468 -13.902  0.00  0.00    -0.009 C 
ATOM     20  CG2 ILE A   1      38.302 -24.547 -12.655  0.00  0.00    -0.002 C 
BRANCH  19  21
ATOM     21  CG1 ILE A   1      38.248 -24.063 -15.135  0.00  0.00    -0.002 C 
ATOM     22  CD1 ILE A   1      37.752 -22.831 -15.882  0.00  0.00    -0.000 C 
ENDBRANCH  19  21
ENDBRANCH  14  19
ENDBRANCH  11  14
ENDBRANCH  10  11
ENDBRANCH   2  10
BRANCH   3  23
ATOM     23  C   UNK A   0      34.375 -22.998 -16.906  0.00  0.00    +0.181 C 
BRANCH  23  24
ATOM     24  O   UNK A   0      33.952 -22.016 -17.846  0.00  0.00    -0.268 OA
BRANCH  24  25
ATOM     25  P   UNK A   0      34.207 -22.300 -19.416  0.00  0.00    +0.473 P 
ATOM     26  O   UNK A   0      35.509 -21.779 -19.953  0.00  0.00    -0.227 OA
BRANCH  25  27
ATOM     27  O   UNK A   0      32.881 -21.718 -20.134  0.00  0.00    -0.303 OA
ATOM     28  H   UNK A   0      33.125 -21.303 -20.977  0.00  0.00    +0.222 HD
ENDBRANCH  25  27
BRANCH  25  29
ATOM     29  O   UNK A   0      34.017 -23.902 -19.524  0.00  0.00    -0.303 OA
ATOM     30  H   UNK A   0      33.197 -24.162 -19.076  0.00  0.00    +0.222 HD
ENDBRANCH  25  29
ENDBRANCH  24  25
ENDBRANCH  23  24
ENDBRANCH   3  23
TORSDOF 13
ENDMDL
MODEL 7
REMARK VINA RESULT:      -7.9      3.065      6.659
REMARK  Name = 92282619
REMARK  13 active torsions:
REMARK  status: ('A' for Active; 'I' for Inactive)
REMARK    1  A    between atoms: C_2  and  C_10
REMARK    2  A    between atoms: C_3  and  C_23
REMARK    3  A    between atoms: C_4  and  O_8
REMARK    4  A    between atoms: C_10  and  N_11
REMARK    5  A    between atoms: N_11  and  CA_14
REMARK    6  A    between atoms: CA_14  and  C_16
REMARK    7  A    between atoms: CA_14  and  CB_19
REMARK    8  A    between atoms: C_16  and  O_17
REMARK    9  A    between atoms: CB_19  and  CG1_21
REMARK   10  A    between atoms: C_23  and  O_24
REMARK   11  A    between atoms: O_24  and  P_25
REMARK   12  A    between atoms: P_25  and  O_27
REMARK   13  A    between atoms: P_25  and  O_29
REMARK                            x       y       z     vdW  Elec       q    Type
REMARK                         _______ _______ _______ _____ _____    ______ ____
ROOT
ATOM      1  N   UNK A   0      31.098 -23.924 -15.679  0.00  0.00    -0.245 NA
ATOM      2  C   UNK A   0      33.780 -23.834 -14.897  0.00  0.00    -0.009 C 
ATOM      3  C   UNK A   0      33.410 -23.412 -16.168  0.00  0.00    +0.024 C 
ATOM      4  C   UNK A   0      32.811 -24.300 -14.015  0.00  0.00    +0.141 C 
ATOM      5  C   UNK A   0      31.496 -24.325 -14.452  0.00  0.00    +0.092 C 
ATOM      6  C   UNK A   0      32.069 -23.476 -16.508  0.00  0.00    +0.096 C 
ATOM      7  C   UNK A   0      30.415 -24.816 -13.545  0.00  0.00    +0.055 C 
ENDROOT
BRANCH   4   8
ATOM      8  O   UNK A   0      33.144 -24.720 -12.766  0.00  0.00    -0.505 OA
ATOM      9  H   UNK A   0      33.712 -24.200 -12.233  0.00  0.00    +0.292 HD
ENDBRANCH   4   8
BRANCH   2  10
ATOM     10  C   UNK A   0      35.224 -23.786 -14.472  0.00  0.00    -0.051 C 
BRANCH  10  11
ATOM     11  N   ILE A   1      35.651 -25.034 -13.862  0.00  0.00    +0.395 N 
ATOM     12  H1  ILE A   1      34.923 -25.361 -13.227  0.00  0.00    -0.083 HD
ATOM     13  H2  ILE A   1      35.812 -25.721 -14.598  0.00  0.00    -0.083 HD
BRANCH  11  14
ATOM     14  CA  ILE A   1      36.896 -24.843 -13.113  0.00  0.00    +0.040 C 
BRANCH  14  16
ATOM     15  OXT ILE A   1      35.441 -25.196 -11.186  0.00  0.00    -0.253 OA
ATOM     16  C   ILE A   1      36.483 -24.749 -11.650  0.00  0.00    +0.293 C 
BRANCH  16  17
ATOM     17  O   ILE A   1      37.420 -24.130 -10.885  0.00  0.00    -0.482 OA
ATOM     18  H   ILE A   1      38.172 -24.606 -10.590  0.00  0.00    +0.295 HD
ENDBRANCH  16  17
ENDBRANCH  14  16
BRANCH  14  19
ATOM     19  CB  ILE A   1      37.890 -26.011 -13.327  0.00  0.00    -0.009 C 
ATOM     20  CG2 ILE A   1      37.465 -26.894 -14.511  0.00  0.00    -0.002 C 
BRANCH  19  21
ATOM     21  CG1 ILE A   1      39.361 -25.562 -13.502  0.00  0.00    -0.002 C 
ATOM     22  CD1 ILE A   1      39.823 -25.408 -14.945  0.00  0.00    -0.000 C 
ENDBRANCH  19  21
ENDBRANCH  14  19
ENDBRANCH  11  14
ENDBRANCH  10  11
ENDBRANCH   2  10
BRANCH   3  23
ATOM     23  C   UNK A   0      34.405 -22.902 -17.153  0.00  0.00    +0.181 C 
BRANCH  23  24
ATOM     24  O   UNK A   0      33.777 -21.965 -18.020  0.00  0.00    -0.268 OA
BRANCH  24  25
ATOM     25  P   UNK A   0      34.067 -22.077 -19.607  0.00  0.00    +0.473 P 
ATOM     26  O   UNK A   0      35.310 -21.380 -20.077  0.00  0.00    -0.227 OA
BRANCH  25  27
ATOM     27  O   UNK A   0      32.690 -21.570 -20.286  0.00  0.00    -0.303 OA
ATOM     28  H   UNK A   0      32.318 -22.281 -20.833  0.00  0.00    +0.222 HD
ENDBRANCH  25  27
BRANCH  25  29
ATOM     29  O   UNK A   0      34.042 -23.674 -19.861  0.00  0.00    -0.303 OA
ATOM     30  H   UNK A   0      34.410 -23.869 -20.737  0.00  0.00    +0.222 HD
ENDBRANCH  25  29
ENDBRANCH  24  25
ENDBRANCH  23  24
ENDBRANCH   3  23
TORSDOF 13
ENDMDL
MODEL 8
REMARK VINA RESULT:      -7.8      1.573      2.189
REMARK  Name = 92282619
REMARK  13 active torsions:
REMARK  status: ('A' for Active; 'I' for Inactive)
REMARK    1  A    between atoms: C_2  and  C_10
REMARK    2  A    between atoms: C_3  and  C_23
REMARK    3  A    between atoms: C_4  and  O_8
REMARK    4  A    between atoms: C_10  and  N_11
REMARK    5  A    between atoms: N_11  and  CA_14
REMARK    6  A    between atoms: CA_14  and  C_16
REMARK    7  A    between atoms: CA_14  and  CB_19
REMARK    8  A    between atoms: C_16  and  O_17
REMARK    9  A    between atoms: CB_19  and  CG1_21
REMARK   10  A    between atoms: C_23  and  O_24
REMARK   11  A    between atoms: O_24  and  P_25
REMARK   12  A    between atoms: P_25  and  O_27
REMARK   13  A    between atoms: P_25  and  O_29
REMARK                            x       y       z     vdW  Elec       q    Type
REMARK                         _______ _______ _______ _____ _____    ______ ____
ROOT
ATOM      1  N   UNK A   0      36.256 -22.085 -17.623  0.00  0.00    -0.245 NA
ATOM      2  C   UNK A   0      33.761 -23.220 -17.078  0.00  0.00    -0.009 C 
ATOM      3  C   UNK A   0      34.803 -23.358 -16.169  0.00  0.00    +0.024 C 
ATOM      4  C   UNK A   0      33.963 -22.515 -18.259  0.00  0.00    +0.141 C 
ATOM      5  C   UNK A   0      35.218 -21.972 -18.482  0.00  0.00    +0.092 C 
ATOM      6  C   UNK A   0      36.020 -22.777 -16.486  0.00  0.00    +0.096 C 
ATOM      7  C   UNK A   0      35.491 -21.205 -19.735  0.00  0.00    +0.055 C 
ENDROOT
BRANCH   4   8
ATOM      8  O   UNK A   0      32.963 -22.365 -19.166  0.00  0.00    -0.505 OA
ATOM      9  H   UNK A   0      32.155 -21.965 -18.911  0.00  0.00    +0.292 HD
ENDBRANCH   4   8
BRANCH   2  10
ATOM     10  C   UNK A   0      32.415 -23.830 -16.787  0.00  0.00    -0.051 C 
BRANCH  10  11
ATOM     11  N   ILE A   1      31.746 -23.164 -15.681  0.00  0.00    +0.395 N 
ATOM     12  H1  ILE A   1      32.447 -22.837 -15.016  0.00  0.00    -0.083 HD
ATOM     13  H2  ILE A   1      31.211 -22.378 -16.047  0.00  0.00    -0.083 HD
BRANCH  11  14
ATOM     14  CA  ILE A   1      30.830 -24.085 -15.002  0.00  0.00    +0.040 C 
BRANCH  14  16
ATOM     15  OXT ILE A   1      32.011 -23.239 -13.042  0.00  0.00    -0.253 OA
ATOM     16  C   ILE A   1      31.206 -24.024 -13.528  0.00  0.00    +0.293 C 
BRANCH  16  17
ATOM     17  O   ILE A   1      30.524 -24.931 -12.781  0.00  0.00    -0.482 OA
ATOM     18  H   ILE A   1      30.023 -25.602 -13.201  0.00  0.00    +0.295 HD
ENDBRANCH  16  17
ENDBRANCH  14  16
BRANCH  14  19
ATOM     19  CB  ILE A   1      29.347 -23.687 -15.206  0.00  0.00    -0.009 C 
ATOM     20  CG2 ILE A   1      29.163 -22.163 -15.119  0.00  0.00    -0.002 C 
BRANCH  19  21
ATOM     21  CG1 ILE A   1      28.727 -24.222 -16.519  0.00  0.00    -0.002 C 
ATOM     22  CD1 ILE A   1      27.883 -23.216 -17.292  0.00  0.00    -0.000 C 
ENDBRANCH  19  21
ENDBRANCH  14  19
ENDBRANCH  11  14
ENDBRANCH  10  11
ENDBRANCH   2  10
BRANCH   3  23
ATOM     23  C   UNK A   0      34.642 -24.102 -14.889  0.00  0.00    +0.181 C 
BRANCH  23  24
ATOM     24  O   UNK A   0      35.483 -23.524 -13.896  0.00  0.00    -0.268 OA
BRANCH  24  25
ATOM     25  P   UNK A   0      35.863 -24.415 -12.602  0.00  0.00    +0.473 P 
ATOM     26  O   UNK A   0      36.828 -25.535 -12.863  0.00  0.00    -0.227 OA
BRANCH  25  27
ATOM     27  O   UNK A   0      34.429 -24.862 -12.006  0.00  0.00    -0.303 OA
ATOM     28  H   UNK A   0      33.721 -24.530 -12.582  0.00  0.00    +0.222 HD
ENDBRANCH  25  27
BRANCH  25  29
ATOM     29  O   UNK A   0      36.376 -23.304 -11.544  0.00  0.00    -0.303 OA
ATOM     30  H   UNK A   0      36.309 -23.659 -10.644  0.00  0.00    +0.222 HD
ENDBRANCH  25  29
ENDBRANCH  24  25
ENDBRANCH  23  24
ENDBRANCH   3  23
TORSDOF 13
ENDMDL
MODEL 9
REMARK VINA RESULT:      -7.7      2.859      6.032
REMARK  Name = 92282619
REMARK  13 active torsions:
REMARK  status: ('A' for Active; 'I' for Inactive)
REMARK    1  A    between atoms: C_2  and  C_10
REMARK    2  A    between atoms: C_3  and  C_23
REMARK    3  A    between atoms: C_4  and  O_8
REMARK    4  A    between atoms: C_10  and  N_11
REMARK    5  A    between atoms: N_11  and  CA_14
REMARK    6  A    between atoms: CA_14  and  C_16
REMARK    7  A    between atoms: CA_14  and  CB_19
REMARK    8  A    between atoms: C_16  and  O_17
REMARK    9  A    between atoms: CB_19  and  CG1_21
REMARK   10  A    between atoms: C_23  and  O_24
REMARK   11  A    between atoms: O_24  and  P_25
REMARK   12  A    between atoms: P_25  and  O_27
REMARK   13  A    between atoms: P_25  and  O_29
REMARK                            x       y       z     vdW  Elec       q    Type
REMARK                         _______ _______ _______ _____ _____    ______ ____
ROOT
ATOM      1  N   UNK A   0      34.466 -21.906 -19.522  0.00  0.00    -0.245 NA
ATOM      2  C   UNK A   0      34.993 -22.688 -16.891  0.00  0.00    -0.009 C 
ATOM      3  C   UNK A   0      33.721 -22.854 -17.426  0.00  0.00    +0.024 C 
ATOM      4  C   UNK A   0      36.002 -22.132 -17.669  0.00  0.00    +0.141 C 
ATOM      5  C   UNK A   0      35.689 -21.761 -18.967  0.00  0.00    +0.092 C 
ATOM      6  C   UNK A   0      33.511 -22.451 -18.735  0.00  0.00    +0.096 C 
ATOM      7  C   UNK A   0      36.736 -21.158 -19.846  0.00  0.00    +0.055 C 
ENDROOT
BRANCH   4   8
ATOM      8  O   UNK A   0      37.255 -21.957 -17.171  0.00  0.00    -0.505 OA
ATOM      9  H   UNK A   0      37.830 -21.327 -17.561  0.00  0.00    +0.292 HD
ENDBRANCH   4   8
BRANCH   2  10
ATOM     10  C   UNK A   0      35.280 -23.109 -15.474  0.00  0.00    -0.051 C 
BRANCH  10  11
ATOM     11  N   ILE A   1      36.441 -23.980 -15.392  0.00  0.00    +0.395 N 
ATOM     12  H1  ILE A   1      36.702 -24.278 -16.332  0.00  0.00    -0.083 HD
ATOM     13  H2  ILE A   1      37.207 -23.466 -14.959  0.00  0.00    -0.083 HD
BRANCH  11  14
ATOM     14  CA  ILE A   1      36.143 -25.161 -14.577  0.00  0.00    +0.040 C 
BRANCH  14  16
ATOM     15  OXT ILE A   1      38.125 -26.537 -14.944  0.00  0.00    -0.253 OA
ATOM     16  C   ILE A   1      36.950 -26.296 -15.193  0.00  0.00    +0.293 C 
BRANCH  16  17
ATOM     17  O   ILE A   1      36.212 -27.053 -16.047  0.00  0.00    -0.482 OA
ATOM     18  H   ILE A   1      35.586 -26.645 -16.613  0.00  0.00    +0.295 HD
ENDBRANCH  16  17
ENDBRANCH  14  16
BRANCH  14  19
ATOM     19  CB  ILE A   1      36.531 -24.957 -13.092  0.00  0.00    -0.009 C 
ATOM     20  CG2 ILE A   1      37.655 -23.918 -12.948  0.00  0.00    -0.002 C 
BRANCH  19  21
ATOM     21  CG1 ILE A   1      35.341 -24.581 -12.176  0.00  0.00    -0.002 C 
ATOM     22  CD1 ILE A   1      35.699 -24.346 -10.714  0.00  0.00    -0.000 C 
ENDBRANCH  19  21
ENDBRANCH  14  19
ENDBRANCH  11  14
ENDBRANCH  10  11
ENDBRANCH   2  10
BRANCH   3  23
ATOM     23  C   UNK A   0      32.603 -23.445 -16.639  0.00  0.00    +0.181 C 
BRANCH  23  24
ATOM     24  O   UNK A   0      31.373 -22.856 -17.046  0.00  0.00    -0.268 OA
BRANCH  24  25
ATOM     25  P   UNK A   0      30.075 -23.066 -16.107  0.00  0.00    +0.473 P 
ATOM     26  O   UNK A   0      30.228 -22.584 -14.694  0.00  0.00    -0.227 OA
BRANCH  25  27
ATOM     27  O   UNK A   0      29.733 -24.638 -16.268  0.00  0.00    -0.303 OA
ATOM     28  H   UNK A   0      30.021 -25.115 -15.473  0.00  0.00    +0.222 HD
ENDBRANCH  25  27
BRANCH  25  29
ATOM     29  O   UNK A   0      28.902 -22.341 -16.952  0.00  0.00    -0.303 OA
ATOM     30  H   UNK A   0      28.129 -22.924 -16.999  0.00  0.00    +0.222 HD
ENDBRANCH  25  29
ENDBRANCH  24  25
ENDBRANCH  23  24
ENDBRANCH   3  23
TORSDOF 13
ENDMDL
