MODEL 1
REMARK VINA RESULT:     -10.7      0.000      0.000
REMARK  Name = 11962616
REMARK  15 active torsions:
REMARK  status: ('A' for Active; 'I' for Inactive)
REMARK    1  A    between atoms: N_1  and  C_4
REMARK    2  A    between atoms: N_1  and  C_21
REMARK    3  A    between atoms: C_4  and  C_5
REMARK    4  A    between atoms: C_5  and  C_6
REMARK    5  A    between atoms: C_6  and  C_7
REMARK    6  A    between atoms: C_7  and  C_8
REMARK    7  A    between atoms: C_8  and  C_9
REMARK    8  A    between atoms: C_9  and  O_10
REMARK    9  A    between atoms: O_10  and  C_11
REMARK   10  A    between atoms: C_11  and  C_14
REMARK   11  A    between atoms: C_14  and  C_15
REMARK   12  A    between atoms: C_21  and  C_22
REMARK   13  A    between atoms: C_22  and  C_25
REMARK   14  A    between atoms: C_22  and  O_37
REMARK   15  A    between atoms: C_29  and  O_35
REMARK                            x       y       z     vdW  Elec       q    Type
REMARK                         _______ _______ _______ _____ _____    ______ ____
ROOT
ATOM      1  N   UNL     1      31.938 -10.112 -21.718  0.00  0.00    +0.386 N 
ATOM      2  H   UNL     1      31.514  -9.645 -22.521  0.00  0.00    -0.084 HD
ATOM      3  H   UNL     1      32.906 -10.362 -21.922  0.00  0.00    -0.084 HD
ENDROOT
BRANCH   1   4
ATOM      4  C   UNL     1      31.193 -11.331 -21.429  0.00  0.00    -0.082 C 
BRANCH   4   5
ATOM      5  C   UNL     1      31.993 -12.587 -21.776  0.00  0.00    -0.023 C 
BRANCH   5   6
ATOM      6  C   UNL     1      32.379 -13.414 -20.545  0.00  0.00    -0.002 C 
BRANCH   6   7
ATOM      7  C   UNL     1      32.688 -14.863 -20.926  0.00  0.00    +0.003 C 
BRANCH   7   8
ATOM      8  C   UNL     1      34.192 -15.098 -21.045  0.00  0.00    +0.032 C 
BRANCH   8   9
ATOM      9  C   UNL     1      34.625 -15.243 -22.497  0.00  0.00    +0.142 C 
BRANCH   9  10
ATOM     10  O   UNL     1      35.277 -16.496 -22.659  0.00  0.00    -0.348 OA
BRANCH  10  11
ATOM     11  C   UNL     1      35.293 -17.236 -21.446  0.00  0.00    +0.213 C 
BRANCH  11  14
ATOM     12  F   UNL     1      35.669 -18.866 -23.084  0.00  0.00    -0.197 F 
ATOM     13  F   UNL     1      37.117 -18.703 -21.478  0.00  0.00    -0.197 F 
ATOM     14  C   UNL     1      35.778 -18.652 -21.740  0.00  0.00    +0.309 C 
BRANCH  14  15
ATOM     15  C   UNL     1      35.001 -19.666 -20.937  0.00  0.00    +0.040 C 
ATOM     16  C   UNL     1      35.675 -20.671 -20.245  0.00  0.00    +0.001 C 
ATOM     17  C   UNL     1      33.609 -19.597 -20.887  0.00  0.00    +0.001 C 
ATOM     18  C   UNL     1      34.958 -21.609 -19.503  0.00  0.00    -0.000 C 
ATOM     19  C   UNL     1      32.891 -20.536 -20.145  0.00  0.00    -0.000 C 
ATOM     20  C   UNL     1      33.565 -21.540 -19.452  0.00  0.00    -0.000 C 
ENDBRANCH  14  15
ENDBRANCH  11  14
ENDBRANCH  10  11
ENDBRANCH   9  10
ENDBRANCH   8   9
ENDBRANCH   7   8
ENDBRANCH   6   7
ENDBRANCH   5   6
ENDBRANCH   4   5
ENDBRANCH   1   4
BRANCH   1  21
ATOM     21  C   UNL     1      31.922  -9.208 -20.577  0.00  0.00    -0.047 C 
BRANCH  21  22
ATOM     22  C   UNL     1      32.889  -8.039 -20.794  0.00  0.00    +0.112 C 
BRANCH  22  25
ATOM     23  O   UNL     1      34.502  -5.684 -26.554  0.00  0.00    -0.270 OA
ATOM     24  N   UNL     1      32.848  -5.361 -24.984  0.00  0.00    -0.278 N 
ATOM     25  C   UNL     1      32.295  -6.991 -21.710  0.00  0.00    +0.004 C 
ATOM     26  C   UNL     1      32.869  -6.668 -22.943  0.00  0.00    +0.015 C 
ATOM     27  C   UNL     1      32.271  -5.688 -23.744  0.00  0.00    +0.084 C 
ATOM     28  C   UNL     1      31.135  -6.339 -21.287  0.00  0.00    +0.001 C 
ATOM     29  C   UNL     1      31.110  -5.035 -23.323  0.00  0.00    +0.147 C 
ATOM     30  C   UNL     1      34.081  -7.327 -23.420  0.00  0.00    +0.006 C 
ATOM     31  C   UNL     1      30.544  -5.364 -22.092  0.00  0.00    +0.038 C 
ATOM     32  C   UNL     1      34.614  -7.001 -24.603  0.00  0.00    +0.058 C 
ATOM     33  C   UNL     1      33.993  -5.962 -25.470  0.00  0.00    +0.250 C 
ATOM     34  H   UNL     1      32.413  -4.670 -25.535  0.00  0.00    +0.155 HD
BRANCH  29  35
ATOM     35  O   UNL     1      30.521  -4.078 -24.093  0.00  0.00    -0.504 OA
ATOM     36  H   UNL     1      30.815  -3.190 -24.044  0.00  0.00    +0.292 HD
ENDBRANCH  29  35
ENDBRANCH  22  25
BRANCH  22  37
ATOM     37  O   UNL     1      33.200  -7.416 -19.548  0.00  0.00    -0.382 OA
ATOM     38  H   UNL     1      33.855  -7.952 -19.073  0.00  0.00    +0.211 HD
ENDBRANCH  22  37
ENDBRANCH  21  22
ENDBRANCH   1  21
TORSDOF 15
ENDMDL
MODEL 2
REMARK VINA RESULT:     -10.3      6.670     10.280
REMARK  Name = 11962616
REMARK  15 active torsions:
REMARK  status: ('A' for Active; 'I' for Inactive)
REMARK    1  A    between atoms: N_1  and  C_4
REMARK    2  A    between atoms: N_1  and  C_21
REMARK    3  A    between atoms: C_4  and  C_5
REMARK    4  A    between atoms: C_5  and  C_6
REMARK    5  A    between atoms: C_6  and  C_7
REMARK    6  A    between atoms: C_7  and  C_8
REMARK    7  A    between atoms: C_8  and  C_9
REMARK    8  A    between atoms: C_9  and  O_10
REMARK    9  A    between atoms: O_10  and  C_11
REMARK   10  A    between atoms: C_11  and  C_14
REMARK   11  A    between atoms: C_14  and  C_15
REMARK   12  A    between atoms: C_21  and  C_22
REMARK   13  A    between atoms: C_22  and  C_25
REMARK   14  A    between atoms: C_22  and  O_37
REMARK   15  A    between atoms: C_29  and  O_35
REMARK                            x       y       z     vdW  Elec       q    Type
REMARK                         _______ _______ _______ _____ _____    ______ ____
ROOT
ATOM      1  N   UNL     1      34.590 -20.628 -20.032  0.00  0.00    +0.386 N 
ATOM      2  H   UNL     1      35.216 -21.325 -20.438  0.00  0.00    -0.084 HD
ATOM      3  H   UNL     1      35.070 -20.101 -19.302  0.00  0.00    -0.084 HD
ENDROOT
BRANCH   1   4
ATOM      4  C   UNL     1      33.443 -21.305 -19.439  0.00  0.00    -0.082 C 
BRANCH   4   5
ATOM      5  C   UNL     1      33.818 -22.673 -18.868  0.00  0.00    -0.023 C 
BRANCH   5   6
ATOM      6  C   UNL     1      33.165 -22.957 -17.511  0.00  0.00    -0.002 C 
BRANCH   6   7
ATOM      7  C   UNL     1      34.166 -23.579 -16.535  0.00  0.00    +0.003 C 
BRANCH   7   8
ATOM      8  C   UNL     1      33.855 -23.182 -15.093  0.00  0.00    +0.032 C 
BRANCH   8   9
ATOM      9  C   UNL     1      34.250 -24.276 -14.112  0.00  0.00    +0.142 C 
BRANCH   9  10
ATOM     10  O   UNL     1      33.173 -24.494 -13.209  0.00  0.00    -0.348 OA
BRANCH  10  11
ATOM     11  C   UNL     1      32.008 -24.945 -13.887  0.00  0.00    +0.213 C 
BRANCH  11  14
ATOM     12  F   UNL     1      30.167 -24.550 -12.496  0.00  0.00    -0.197 F 
ATOM     13  F   UNL     1      31.374 -22.844 -13.074  0.00  0.00    -0.197 F 
ATOM     14  C   UNL     1      30.851 -24.012 -13.549  0.00  0.00    +0.309 C 
BRANCH  14  15
ATOM     15  C   UNL     1      29.965 -23.793 -14.750  0.00  0.00    +0.040 C 
ATOM     16  C   UNL     1      29.453 -24.887 -15.447  0.00  0.00    +0.001 C 
ATOM     17  C   UNL     1      29.660 -22.497 -15.164  0.00  0.00    +0.001 C 
ATOM     18  C   UNL     1      28.634 -24.685 -16.558  0.00  0.00    -0.000 C 
ATOM     19  C   UNL     1      28.841 -22.294 -16.276  0.00  0.00    -0.000 C 
ATOM     20  C   UNL     1      28.328 -23.388 -16.972  0.00  0.00    -0.000 C 
ENDBRANCH  14  15
ENDBRANCH  11  14
ENDBRANCH  10  11
ENDBRANCH   9  10
ENDBRANCH   8   9
ENDBRANCH   7   8
ENDBRANCH   6   7
ENDBRANCH   5   6
ENDBRANCH   4   5
ENDBRANCH   1   4
BRANCH   1  21
ATOM     21  C   UNL     1      34.168 -19.702 -21.073  0.00  0.00    -0.047 C 
BRANCH  21  22
ATOM     22  C   UNL     1      35.329 -18.797 -21.502  0.00  0.00    +0.112 C 
BRANCH  22  25
ATOM     23  O   UNL     1      33.438 -15.513 -26.695  0.00  0.00    -0.270 OA
ATOM     24  N   UNL     1      33.721 -15.123 -24.443  0.00  0.00    -0.278 N 
ATOM     25  C   UNL     1      34.864 -17.377 -21.742  0.00  0.00    +0.004 C 
ATOM     26  C   UNL     1      34.504 -16.915 -23.011  0.00  0.00    +0.015 C 
ATOM     27  C   UNL     1      34.084 -15.589 -23.166  0.00  0.00    +0.084 C 
ATOM     28  C   UNL     1      34.804 -16.518 -20.643  0.00  0.00    +0.001 C 
ATOM     29  C   UNL     1      34.022 -14.728 -22.068  0.00  0.00    +0.147 C 
ATOM     30  C   UNL     1      34.554 -17.782 -24.185  0.00  0.00    +0.006 C 
ATOM     31  C   UNL     1      34.383 -15.197 -20.806  0.00  0.00    +0.038 C 
ATOM     32  C   UNL     1      34.205 -17.319 -25.390  0.00  0.00    +0.058 C 
ATOM     33  C   UNL     1      33.755 -15.912 -25.577  0.00  0.00    +0.250 C 
ATOM     34  H   UNL     1      33.428 -14.187 -24.534  0.00  0.00    +0.155 HD
BRANCH  29  35
ATOM     35  O   UNL     1      33.617 -13.435 -22.208  0.00  0.00    -0.504 OA
ATOM     36  H   UNL     1      33.498 -13.071 -23.064  0.00  0.00    +0.292 HD
ENDBRANCH  29  35
ENDBRANCH  22  25
BRANCH  22  37
ATOM     37  O   UNL     1      36.336 -18.772 -20.492  0.00  0.00    -0.382 OA
ATOM     38  H   UNL     1      35.920 -18.666 -19.623  0.00  0.00    +0.211 HD
ENDBRANCH  22  37
ENDBRANCH  21  22
ENDBRANCH   1  21
TORSDOF 15
ENDMDL
MODEL 3
REMARK VINA RESULT:     -10.2      5.521     13.762
REMARK  Name = 11962616
REMARK  15 active torsions:
REMARK  status: ('A' for Active; 'I' for Inactive)
REMARK    1  A    between atoms: N_1  and  C_4
REMARK    2  A    between atoms: N_1  and  C_21
REMARK    3  A    between atoms: C_4  and  C_5
REMARK    4  A    between atoms: C_5  and  C_6
REMARK    5  A    between atoms: C_6  and  C_7
REMARK    6  A    between atoms: C_7  and  C_8
REMARK    7  A    between atoms: C_8  and  C_9
REMARK    8  A    between atoms: C_9  and  O_10
REMARK    9  A    between atoms: O_10  and  C_11
REMARK   10  A    between atoms: C_11  and  C_14
REMARK   11  A    between atoms: C_14  and  C_15
REMARK   12  A    between atoms: C_21  and  C_22
REMARK   13  A    between atoms: C_22  and  C_25
REMARK   14  A    between atoms: C_22  and  O_37
REMARK   15  A    between atoms: C_29  and  O_35
REMARK                            x       y       z     vdW  Elec       q    Type
REMARK                         _______ _______ _______ _____ _____    ______ ____
ROOT
ATOM      1  N   UNL     1      34.007 -20.764 -19.871  0.00  0.00    +0.386 N 
ATOM      2  H   UNL     1      34.562 -20.222 -19.209  0.00  0.00    -0.084 HD
ATOM      3  H   UNL     1      34.615 -21.273 -20.513  0.00  0.00    -0.084 HD
ENDROOT
BRANCH   1   4
ATOM      4  C   UNL     1      33.167 -19.858 -20.645  0.00  0.00    -0.082 C 
BRANCH   4   5
ATOM      5  C   UNL     1      33.993 -18.809 -21.390  0.00  0.00    -0.023 C 
BRANCH   5   6
ATOM      6  C   UNL     1      34.648 -19.353 -22.664  0.00  0.00    -0.002 C 
BRANCH   6   7
ATOM      7  C   UNL     1      35.576 -18.314 -23.297  0.00  0.00    +0.003 C 
BRANCH   7   8
ATOM      8  C   UNL     1      35.284 -16.912 -22.766  0.00  0.00    +0.032 C 
BRANCH   8   9
ATOM      9  C   UNL     1      34.874 -15.962 -23.882  0.00  0.00    +0.142 C 
BRANCH   9  10
ATOM     10  O   UNL     1      34.525 -14.707 -23.312  0.00  0.00    -0.348 OA
BRANCH  10  11
ATOM     11  C   UNL     1      33.125 -14.605 -23.091  0.00  0.00    +0.213 C 
BRANCH  11  14
ATOM     12  F   UNL     1      32.062 -15.370 -21.150  0.00  0.00    -0.197 F 
ATOM     13  F   UNL     1      34.061 -14.553 -20.946  0.00  0.00    -0.197 F 
ATOM     14  C   UNL     1      32.878 -14.373 -21.604  0.00  0.00    +0.309 C 
BRANCH  14  15
ATOM     15  C   UNL     1      32.293 -13.004 -21.362  0.00  0.00    +0.040 C 
ATOM     16  C   UNL     1      32.080 -12.137 -22.433  0.00  0.00    +0.001 C 
ATOM     17  C   UNL     1      31.967 -12.605 -20.066  0.00  0.00    +0.001 C 
ATOM     18  C   UNL     1      31.540 -10.871 -22.210  0.00  0.00    -0.000 C 
ATOM     19  C   UNL     1      31.426 -11.338 -19.842  0.00  0.00    -0.000 C 
ATOM     20  C   UNL     1      31.212 -10.472 -20.913  0.00  0.00    -0.000 C 
ENDBRANCH  14  15
ENDBRANCH  11  14
ENDBRANCH  10  11
ENDBRANCH   9  10
ENDBRANCH   8   9
ENDBRANCH   7   8
ENDBRANCH   6   7
ENDBRANCH   5   6
ENDBRANCH   4   5
ENDBRANCH   1   4
BRANCH   1  21
ATOM     21  C   UNL     1      33.196 -21.727 -19.138  0.00  0.00    -0.047 C 
BRANCH  21  22
ATOM     22  C   UNL     1      34.071 -22.836 -18.542  0.00  0.00    +0.112 C 
BRANCH  22  25
ATOM     23  O   UNL     1      37.664 -23.057 -13.216  0.00  0.00    -0.270 OA
ATOM     24  N   UNL     1      35.440 -23.255 -13.780  0.00  0.00    -0.278 N 
ATOM     25  C   UNL     1      33.771 -23.050 -17.074  0.00  0.00    +0.004 C 
ATOM     26  C   UNL     1      34.774 -23.049 -16.101  0.00  0.00    +0.015 C 
ATOM     27  C   UNL     1      34.431 -23.255 -14.760  0.00  0.00    +0.084 C 
ATOM     28  C   UNL     1      32.440 -23.253 -16.705  0.00  0.00    +0.001 C 
ATOM     29  C   UNL     1      33.100 -23.458 -14.388  0.00  0.00    +0.147 C 
ATOM     30  C   UNL     1      36.177 -22.840 -16.448  0.00  0.00    +0.006 C 
ATOM     31  C   UNL     1      32.105 -23.457 -15.365  0.00  0.00    +0.038 C 
ATOM     32  C   UNL     1      37.121 -22.844 -15.500  0.00  0.00    +0.058 C 
ATOM     33  C   UNL     1      36.777 -23.060 -14.068  0.00  0.00    +0.250 C 
ATOM     34  H   UNL     1      35.180 -23.400 -12.841  0.00  0.00    +0.155 HD
BRANCH  29  35
ATOM     35  O   UNL     1      32.755 -23.661 -13.086  0.00  0.00    -0.504 OA
ATOM     36  H   UNL     1      33.242 -24.265 -12.561  0.00  0.00    +0.292 HD
ENDBRANCH  29  35
ENDBRANCH  22  25
BRANCH  22  37
ATOM     37  O   UNL     1      33.843 -24.066 -19.228  0.00  0.00    -0.382 OA
ATOM     38  H   UNL     1      33.152 -24.569 -18.770  0.00  0.00    +0.211 HD
ENDBRANCH  22  37
ENDBRANCH  21  22
ENDBRANCH   1  21
TORSDOF 15
ENDMDL
MODEL 4
REMARK VINA RESULT:     -10.2      6.572     10.784
REMARK  Name = 11962616
REMARK  15 active torsions:
REMARK  status: ('A' for Active; 'I' for Inactive)
REMARK    1  A    between atoms: N_1  and  C_4
REMARK    2  A    between atoms: N_1  and  C_21
REMARK    3  A    between atoms: C_4  and  C_5
REMARK    4  A    between atoms: C_5  and  C_6
REMARK    5  A    between atoms: C_6  and  C_7
REMARK    6  A    between atoms: C_7  and  C_8
REMARK    7  A    between atoms: C_8  and  C_9
REMARK    8  A    between atoms: C_9  and  O_10
REMARK    9  A    between atoms: O_10  and  C_11
REMARK   10  A    between atoms: C_11  and  C_14
REMARK   11  A    between atoms: C_14  and  C_15
REMARK   12  A    between atoms: C_21  and  C_22
REMARK   13  A    between atoms: C_22  and  C_25
REMARK   14  A    between atoms: C_22  and  O_37
REMARK   15  A    between atoms: C_29  and  O_35
REMARK                            x       y       z     vdW  Elec       q    Type
REMARK                         _______ _______ _______ _____ _____    ______ ____
ROOT
ATOM      1  N   UNL     1      35.692 -21.467 -20.006  0.00  0.00    +0.386 N 
ATOM      2  H   UNL     1      34.684 -21.507 -19.849  0.00  0.00    -0.084 HD
ATOM      3  H   UNL     1      35.982 -22.211 -20.642  0.00  0.00    -0.084 HD
ENDROOT
BRANCH   1   4
ATOM      4  C   UNL     1      36.381 -21.645 -18.734  0.00  0.00    -0.082 C 
BRANCH   4   5
ATOM      5  C   UNL     1      35.442 -22.161 -17.643  0.00  0.00    -0.023 C 
BRANCH   5   6
ATOM      6  C   UNL     1      34.075 -22.596 -18.181  0.00  0.00    -0.002 C 
BRANCH   6   7
ATOM      7  C   UNL     1      33.348 -23.498 -17.181  0.00  0.00    +0.003 C 
BRANCH   7   8
ATOM      8  C   UNL     1      33.675 -23.108 -15.741  0.00  0.00    +0.032 C 
BRANCH   8   9
ATOM      9  C   UNL     1      34.105 -24.313 -14.917  0.00  0.00    +0.142 C 
BRANCH   9  10
ATOM     10  O   UNL     1      33.362 -24.329 -13.705  0.00  0.00    -0.348 OA
BRANCH  10  11
ATOM     11  C   UNL     1      32.109 -24.980 -13.870  0.00  0.00    +0.213 C 
BRANCH  11  14
ATOM     12  F   UNL     1      30.338 -24.450 -12.433  0.00  0.00    -0.197 F 
ATOM     13  F   UNL     1      31.572 -22.818 -13.153  0.00  0.00    -0.197 F 
ATOM     14  C   UNL     1      30.995 -23.993 -13.540  0.00  0.00    +0.309 C 
BRANCH  14  15
ATOM     15  C   UNL     1      30.069 -23.812 -14.717  0.00  0.00    +0.040 C 
ATOM     16  C   UNL     1      29.585 -24.927 -15.401  0.00  0.00    +0.001 C 
ATOM     17  C   UNL     1      29.698 -22.530 -15.121  0.00  0.00    +0.001 C 
ATOM     18  C   UNL     1      28.729 -24.760 -16.490  0.00  0.00    -0.000 C 
ATOM     19  C   UNL     1      28.841 -22.363 -16.210  0.00  0.00    -0.000 C 
ATOM     20  C   UNL     1      28.356 -23.477 -16.893  0.00  0.00    -0.000 C 
ENDBRANCH  14  15
ENDBRANCH  11  14
ENDBRANCH  10  11
ENDBRANCH   9  10
ENDBRANCH   8   9
ENDBRANCH   7   8
ENDBRANCH   6   7
ENDBRANCH   5   6
ENDBRANCH   4   5
ENDBRANCH   1   4
BRANCH   1  21
ATOM     21  C   UNL     1      36.030 -20.184 -20.607  0.00  0.00    -0.047 C 
BRANCH  21  22
ATOM     22  C   UNL     1      34.781 -19.312 -20.771  0.00  0.00    +0.112 C 
BRANCH  22  25
ATOM     23  O   UNL     1      34.157 -13.234 -22.770  0.00  0.00    -0.270 OA
ATOM     24  N   UNL     1      34.416 -15.319 -23.713  0.00  0.00    -0.278 N 
ATOM     25  C   UNL     1      34.746 -18.645 -22.130  0.00  0.00    +0.004 C 
ATOM     26  C   UNL     1      34.595 -17.264 -22.278  0.00  0.00    +0.015 C 
ATOM     27  C   UNL     1      34.568 -16.709 -23.563  0.00  0.00    +0.084 C 
ATOM     28  C   UNL     1      34.869 -19.460 -23.257  0.00  0.00    +0.001 C 
ATOM     29  C   UNL     1      34.691 -17.522 -24.692  0.00  0.00    +0.147 C 
ATOM     30  C   UNL     1      34.463 -16.379 -21.124  0.00  0.00    +0.006 C 
ATOM     31  C   UNL     1      34.842 -18.899 -24.535  0.00  0.00    +0.038 C 
ATOM     32  C   UNL     1      34.318 -15.059 -21.289  0.00  0.00    +0.058 C 
ATOM     33  C   UNL     1      34.288 -14.450 -22.647  0.00  0.00    +0.250 C 
ATOM     34  H   UNL     1      34.400 -14.946 -24.625  0.00  0.00    +0.155 HD
BRANCH  29  35
ATOM     35  O   UNL     1      34.665 -16.993 -25.947  0.00  0.00    -0.504 OA
ATOM     36  H   UNL     1      33.903 -16.540 -26.248  0.00  0.00    +0.292 HD
ENDBRANCH  29  35
ENDBRANCH  22  25
BRANCH  22  37
ATOM     37  O   UNL     1      33.602 -20.105 -20.633  0.00  0.00    -0.382 OA
ATOM     38  H   UNL     1      33.796 -20.878 -20.081  0.00  0.00    +0.211 HD
ENDBRANCH  22  37
ENDBRANCH  21  22
ENDBRANCH   1  21
TORSDOF 15
ENDMDL
MODEL 5
REMARK VINA RESULT:     -10.2      1.885      2.614
REMARK  Name = 11962616
REMARK  15 active torsions:
REMARK  status: ('A' for Active; 'I' for Inactive)
REMARK    1  A    between atoms: N_1  and  C_4
REMARK    2  A    between atoms: N_1  and  C_21
REMARK    3  A    between atoms: C_4  and  C_5
REMARK    4  A    between atoms: C_5  and  C_6
REMARK    5  A    between atoms: C_6  and  C_7
REMARK    6  A    between atoms: C_7  and  C_8
REMARK    7  A    between atoms: C_8  and  C_9
REMARK    8  A    between atoms: C_9  and  O_10
REMARK    9  A    between atoms: O_10  and  C_11
REMARK   10  A    between atoms: C_11  and  C_14
REMARK   11  A    between atoms: C_14  and  C_15
REMARK   12  A    between atoms: C_21  and  C_22
REMARK   13  A    between atoms: C_22  and  C_25
REMARK   14  A    between atoms: C_22  and  O_37
REMARK   15  A    between atoms: C_29  and  O_35
REMARK                            x       y       z     vdW  Elec       q    Type
REMARK                         _______ _______ _______ _____ _____    ______ ____
ROOT
ATOM      1  N   UNL     1      34.745 -10.419 -24.340  0.00  0.00    +0.386 N 
ATOM      2  H   UNL     1      35.302  -9.827 -24.956  0.00  0.00    -0.084 HD
ATOM      3  H   UNL     1      35.335 -10.839 -23.621  0.00  0.00    -0.084 HD
ENDROOT
BRANCH   1   4
ATOM      4  C   UNL     1      34.137 -11.486 -25.126  0.00  0.00    -0.082 C 
BRANCH   4   5
ATOM      5  C   UNL     1      33.658 -12.642 -24.247  0.00  0.00    -0.023 C 
BRANCH   5   6
ATOM      6  C   UNL     1      33.328 -13.907 -25.046  0.00  0.00    -0.002 C 
BRANCH   6   7
ATOM      7  C   UNL     1      33.483 -15.162 -24.183  0.00  0.00    +0.003 C 
BRANCH   7   8
ATOM      8  C   UNL     1      33.234 -14.856 -22.708  0.00  0.00    +0.032 C 
BRANCH   8   9
ATOM      9  C   UNL     1      34.506 -14.992 -21.884  0.00  0.00    +0.142 C 
BRANCH   9  10
ATOM     10  O   UNL     1      35.134 -16.225 -22.208  0.00  0.00    -0.348 OA
BRANCH  10  11
ATOM     11  C   UNL     1      34.774 -17.250 -21.292  0.00  0.00    +0.213 C 
BRANCH  11  14
ATOM     12  F   UNL     1      34.821 -18.733 -23.103  0.00  0.00    -0.197 F 
ATOM     13  F   UNL     1      36.638 -18.509 -21.941  0.00  0.00    -0.197 F 
ATOM     14  C   UNL     1      35.279 -18.586 -21.825  0.00  0.00    +0.309 C 
BRANCH  14  15
ATOM     15  C   UNL     1      34.848 -19.723 -20.932  0.00  0.00    +0.040 C 
ATOM     16  C   UNL     1      35.806 -20.542 -20.335  0.00  0.00    +0.001 C 
ATOM     17  C   UNL     1      33.492 -19.953 -20.702  0.00  0.00    +0.001 C 
ATOM     18  C   UNL     1      35.408 -21.593 -19.509  0.00  0.00    -0.000 C 
ATOM     19  C   UNL     1      33.094 -21.005 -19.876  0.00  0.00    -0.000 C 
ATOM     20  C   UNL     1      34.052 -21.823 -19.278  0.00  0.00    -0.000 C 
ENDBRANCH  14  15
ENDBRANCH  11  14
ENDBRANCH  10  11
ENDBRANCH   9  10
ENDBRANCH   8   9
ENDBRANCH   7   8
ENDBRANCH   6   7
ENDBRANCH   5   6
ENDBRANCH   4   5
ENDBRANCH   1   4
BRANCH   1  21
ATOM     21  C   UNL     1      33.727  -9.606 -23.690  0.00  0.00    -0.047 C 
BRANCH  21  22
ATOM     22  C   UNL     1      34.064  -8.115 -23.802  0.00  0.00    +0.112 C 
BRANCH  22  25
ATOM     23  O   UNL     1      30.443  -3.006 -25.255  0.00  0.00    -0.270 OA
ATOM     24  N   UNL     1      30.847  -4.342 -23.423  0.00  0.00    -0.278 N 
ATOM     25  C   UNL     1      33.080  -7.264 -23.029  0.00  0.00    +0.004 C 
ATOM     26  C   UNL     1      32.415  -6.181 -23.610  0.00  0.00    +0.015 C 
ATOM     27  C   UNL     1      31.517  -5.433 -22.840  0.00  0.00    +0.084 C 
ATOM     28  C   UNL     1      32.846  -7.593 -21.692  0.00  0.00    +0.001 C 
ATOM     29  C   UNL     1      31.281  -5.759 -21.502  0.00  0.00    +0.147 C 
ATOM     30  C   UNL     1      32.632  -5.807 -25.005  0.00  0.00    +0.006 C 
ATOM     31  C   UNL     1      31.949  -6.842 -20.931  0.00  0.00    +0.038 C 
ATOM     32  C   UNL     1      31.985  -4.765 -25.540  0.00  0.00    +0.058 C 
ATOM     33  C   UNL     1      31.026  -3.957 -24.738  0.00  0.00    +0.250 C 
ATOM     34  H   UNL     1      30.219  -3.827 -22.867  0.00  0.00    +0.155 HD
BRANCH  29  35
ATOM     35  O   UNL     1      30.411  -5.037 -20.743  0.00  0.00    -0.504 OA
ATOM     36  H   UNL     1      29.695  -4.589 -21.150  0.00  0.00    +0.292 HD
ENDBRANCH  29  35
ENDBRANCH  22  25
BRANCH  22  37
ATOM     37  O   UNL     1      35.371  -7.864 -23.288  0.00  0.00    -0.382 OA
ATOM     38  H   UNL     1      35.353  -7.919 -22.319  0.00  0.00    +0.211 HD
ENDBRANCH  22  37
ENDBRANCH  21  22
ENDBRANCH   1  21
TORSDOF 15
ENDMDL
MODEL 6
REMARK VINA RESULT:     -10.2      5.696     14.236
REMARK  Name = 11962616
REMARK  15 active torsions:
REMARK  status: ('A' for Active; 'I' for Inactive)
REMARK    1  A    between atoms: N_1  and  C_4
REMARK    2  A    between atoms: N_1  and  C_21
REMARK    3  A    between atoms: C_4  and  C_5
REMARK    4  A    between atoms: C_5  and  C_6
REMARK    5  A    between atoms: C_6  and  C_7
REMARK    6  A    between atoms: C_7  and  C_8
REMARK    7  A    between atoms: C_8  and  C_9
REMARK    8  A    between atoms: C_9  and  O_10
REMARK    9  A    between atoms: O_10  and  C_11
REMARK   10  A    between atoms: C_11  and  C_14
REMARK   11  A    between atoms: C_14  and  C_15
REMARK   12  A    between atoms: C_21  and  C_22
REMARK   13  A    between atoms: C_22  and  C_25
REMARK   14  A    between atoms: C_22  and  O_37
REMARK   15  A    between atoms: C_29  and  O_35
REMARK                            x       y       z     vdW  Elec       q    Type
REMARK                         _______ _______ _______ _____ _____    ______ ____
ROOT
ATOM      1  N   UNL     1      34.204 -20.508 -20.064  0.00  0.00    +0.386 N 
ATOM      2  H   UNL     1      34.693 -19.919 -19.389  0.00  0.00    -0.084 HD
ATOM      3  H   UNL     1      34.872 -21.019 -20.640  0.00  0.00    -0.084 HD
ENDROOT
BRANCH   1   4
ATOM      4  C   UNL     1      33.391 -19.664 -20.930  0.00  0.00    -0.082 C 
BRANCH   4   5
ATOM      5  C   UNL     1      34.248 -18.753 -21.811  0.00  0.00    -0.023 C 
BRANCH   5   6
ATOM      6  C   UNL     1      34.910 -17.613 -21.031  0.00  0.00    -0.002 C 
BRANCH   6   7
ATOM      7  C   UNL     1      34.818 -16.292 -21.798  0.00  0.00    +0.003 C 
BRANCH   7   8
ATOM      8  C   UNL     1      34.052 -15.238 -21.001  0.00  0.00    +0.032 C 
BRANCH   8   9
ATOM      9  C   UNL     1      33.241 -14.326 -21.910  0.00  0.00    +0.142 C 
BRANCH   9  10
ATOM     10  O   UNL     1      32.400 -13.507 -21.108  0.00  0.00    -0.348 OA
BRANCH  10  11
ATOM     11  C   UNL     1      31.920 -12.384 -21.834  0.00  0.00    +0.213 C 
BRANCH  11  14
ATOM     12  F   UNL     1      29.936 -11.522 -20.939  0.00  0.00    -0.197 F 
ATOM     13  F   UNL     1      31.610 -11.798 -19.589  0.00  0.00    -0.197 F 
ATOM     14  C   UNL     1      31.293 -11.397 -20.856  0.00  0.00    +0.309 C 
BRANCH  14  15
ATOM     15  C   UNL     1      31.753  -9.989 -21.139  0.00  0.00    +0.040 C 
ATOM     16  C   UNL     1      31.722  -9.495 -22.443  0.00  0.00    +0.001 C 
ATOM     17  C   UNL     1      32.210  -9.182 -20.098  0.00  0.00    +0.001 C 
ATOM     18  C   UNL     1      32.148  -8.193 -22.706  0.00  0.00    -0.000 C 
ATOM     19  C   UNL     1      32.636  -7.879 -20.361  0.00  0.00    -0.000 C 
ATOM     20  C   UNL     1      32.604  -7.385 -21.664  0.00  0.00    -0.000 C 
ENDBRANCH  14  15
ENDBRANCH  11  14
ENDBRANCH  10  11
ENDBRANCH   9  10
ENDBRANCH   8   9
ENDBRANCH   7   8
ENDBRANCH   6   7
ENDBRANCH   5   6
ENDBRANCH   4   5
ENDBRANCH   1   4
BRANCH   1  21
ATOM     21  C   UNL     1      33.377 -21.469 -19.347  0.00  0.00    -0.047 C 
BRANCH  21  22
ATOM     22  C   UNL     1      34.229 -22.618 -18.796  0.00  0.00    +0.112 C 
BRANCH  22  25
ATOM     23  O   UNL     1      37.630 -23.018 -13.355  0.00  0.00    -0.270 OA
ATOM     24  N   UNL     1      35.435 -23.254 -14.013  0.00  0.00    -0.278 N 
ATOM     25  C   UNL     1      33.883 -22.921 -17.354  0.00  0.00    +0.004 C 
ATOM     26  C   UNL     1      34.849 -22.942 -16.344  0.00  0.00    +0.015 C 
ATOM     27  C   UNL     1      34.464 -23.231 -15.030  0.00  0.00    +0.084 C 
ATOM     28  C   UNL     1      32.546 -23.186 -17.048  0.00  0.00    +0.001 C 
ATOM     29  C   UNL     1      33.127 -23.497 -14.721  0.00  0.00    +0.147 C 
ATOM     30  C   UNL     1      36.256 -22.671 -16.624  0.00  0.00    +0.006 C 
ATOM     31  C   UNL     1      32.170 -23.473 -15.734  0.00  0.00    +0.038 C 
ATOM     32  C   UNL     1      37.164 -22.697 -15.642  0.00  0.00    +0.058 C 
ATOM     33  C   UNL     1      36.775 -23.002 -14.238  0.00  0.00    +0.250 C 
ATOM     34  H   UNL     1      35.146 -23.458 -13.094  0.00  0.00    +0.155 HD
BRANCH  29  35
ATOM     35  O   UNL     1      32.742 -23.781 -13.446  0.00  0.00    -0.504 OA
ATOM     36  H   UNL     1      32.061 -23.281 -13.040  0.00  0.00    +0.292 HD
ENDBRANCH  29  35
ENDBRANCH  22  25
BRANCH  22  37
ATOM     37  O   UNL     1      34.019 -23.802 -19.563  0.00  0.00    -0.382 OA
ATOM     38  H   UNL     1      33.261 -24.290 -19.204  0.00  0.00    +0.211 HD
ENDBRANCH  22  37
ENDBRANCH  21  22
ENDBRANCH   1  21
TORSDOF 15
ENDMDL
MODEL 7
REMARK VINA RESULT:     -10.2      8.083     15.352
REMARK  Name = 11962616
REMARK  15 active torsions:
REMARK  status: ('A' for Active; 'I' for Inactive)
REMARK    1  A    between atoms: N_1  and  C_4
REMARK    2  A    between atoms: N_1  and  C_21
REMARK    3  A    between atoms: C_4  and  C_5
REMARK    4  A    between atoms: C_5  and  C_6
REMARK    5  A    between atoms: C_6  and  C_7
REMARK    6  A    between atoms: C_7  and  C_8
REMARK    7  A    between atoms: C_8  and  C_9
REMARK    8  A    between atoms: C_9  and  O_10
REMARK    9  A    between atoms: O_10  and  C_11
REMARK   10  A    between atoms: C_11  and  C_14
REMARK   11  A    between atoms: C_14  and  C_15
REMARK   12  A    between atoms: C_21  and  C_22
REMARK   13  A    between atoms: C_22  and  C_25
REMARK   14  A    between atoms: C_22  and  O_37
REMARK   15  A    between atoms: C_29  and  O_35
REMARK                            x       y       z     vdW  Elec       q    Type
REMARK                         _______ _______ _______ _____ _____    ______ ____
ROOT
ATOM      1  N   UNL     1      32.399 -23.860 -15.832  0.00  0.00    +0.386 N 
ATOM      2  H   UNL     1      32.492 -24.857 -16.028  0.00  0.00    -0.084 HD
ATOM      3  H   UNL     1      31.506 -23.668 -15.379  0.00  0.00    -0.084 HD
ENDROOT
BRANCH   1   4
ATOM      4  C   UNL     1      32.454 -23.120 -17.086  0.00  0.00    -0.082 C 
BRANCH   4   5
ATOM      5  C   UNL     1      33.890 -22.940 -17.583  0.00  0.00    -0.023 C 
BRANCH   5   6
ATOM      6  C   UNL     1      33.970 -22.549 -19.062  0.00  0.00    -0.002 C 
BRANCH   6   7
ATOM      7  C   UNL     1      33.171 -21.273 -19.340  0.00  0.00    +0.003 C 
BRANCH   7   8
ATOM      8  C   UNL     1      33.765 -20.490 -20.510  0.00  0.00    +0.032 C 
BRANCH   8   9
ATOM      9  C   UNL     1      35.280 -20.396 -20.411  0.00  0.00    +0.142 C 
BRANCH   9  10
ATOM     10  O   UNL     1      35.667 -19.036 -20.556  0.00  0.00    -0.348 OA
BRANCH  10  11
ATOM     11  C   UNL     1      34.757 -18.321 -21.381  0.00  0.00    +0.213 C 
BRANCH  11  14
ATOM     12  F   UNL     1      36.703 -18.115 -22.667  0.00  0.00    -0.197 F 
ATOM     13  F   UNL     1      35.128 -19.398 -23.426  0.00  0.00    -0.197 F 
ATOM     14  C   UNL     1      35.346 -18.213 -22.784  0.00  0.00    +0.309 C 
BRANCH  14  15
ATOM     15  C   UNL     1      34.753 -17.043 -23.530  0.00  0.00    +0.040 C 
ATOM     16  C   UNL     1      34.512 -15.842 -22.863  0.00  0.00    +0.001 C 
ATOM     17  C   UNL     1      34.446 -17.164 -24.884  0.00  0.00    +0.001 C 
ATOM     18  C   UNL     1      33.964 -14.760 -23.552  0.00  0.00    -0.000 C 
ATOM     19  C   UNL     1      33.898 -16.081 -25.574  0.00  0.00    -0.000 C 
ATOM     20  C   UNL     1      33.658 -14.880 -24.908  0.00  0.00    -0.000 C 
ENDBRANCH  14  15
ENDBRANCH  11  14
ENDBRANCH  10  11
ENDBRANCH   9  10
ENDBRANCH   8   9
ENDBRANCH   7   8
ENDBRANCH   6   7
ENDBRANCH   5   6
ENDBRANCH   4   5
ENDBRANCH   1   4
BRANCH   1  21
ATOM     21  C   UNL     1      33.472 -23.448 -14.937  0.00  0.00    -0.047 C 
BRANCH  21  22
ATOM     22  C   UNL     1      33.955 -24.628 -14.085  0.00  0.00    +0.112 C 
BRANCH  22  25
ATOM     23  O   UNL     1      39.984 -26.688 -14.941  0.00  0.00    -0.270 OA
ATOM     24  N   UNL     1      38.864 -25.226 -13.559  0.00  0.00    -0.278 N 
ATOM     25  C   UNL     1      35.280 -24.324 -13.419  0.00  0.00    +0.004 C 
ATOM     26  C   UNL     1      36.472 -24.935 -13.818  0.00  0.00    +0.015 C 
ATOM     27  C   UNL     1      37.663 -24.611 -13.159  0.00  0.00    +0.084 C 
ATOM     28  C   UNL     1      35.284 -23.399 -12.372  0.00  0.00    +0.001 C 
ATOM     29  C   UNL     1      37.671 -23.687 -12.112  0.00  0.00    +0.147 C 
ATOM     30  C   UNL     1      36.507 -25.906 -14.907  0.00  0.00    +0.006 C 
ATOM     31  C   UNL     1      36.478 -23.082 -11.720  0.00  0.00    +0.038 C 
ATOM     32  C   UNL     1      37.660 -26.479 -15.272  0.00  0.00    +0.058 C 
ATOM     33  C   UNL     1      38.938 -26.149 -14.585  0.00  0.00    +0.250 C 
ATOM     34  H   UNL     1      39.693 -24.986 -13.085  0.00  0.00    +0.155 HD
BRANCH  29  35
ATOM     35  O   UNL     1      38.825 -23.366 -11.463  0.00  0.00    -0.504 OA
ATOM     36  H   UNL     1      39.345 -24.040 -11.073  0.00  0.00    +0.292 HD
ENDBRANCH  29  35
ENDBRANCH  22  25
BRANCH  22  37
ATOM     37  O   UNL     1      33.001 -24.925 -13.066  0.00  0.00    -0.382 OA
ATOM     38  H   UNL     1      33.252 -24.472 -12.246  0.00  0.00    +0.211 HD
ENDBRANCH  22  37
ENDBRANCH  21  22
ENDBRANCH   1  21
TORSDOF 15
ENDMDL
MODEL 8
REMARK VINA RESULT:     -10.2      5.490      9.664
REMARK  Name = 11962616
REMARK  15 active torsions:
REMARK  status: ('A' for Active; 'I' for Inactive)
REMARK    1  A    between atoms: N_1  and  C_4
REMARK    2  A    between atoms: N_1  and  C_21
REMARK    3  A    between atoms: C_4  and  C_5
REMARK    4  A    between atoms: C_5  and  C_6
REMARK    5  A    between atoms: C_6  and  C_7
REMARK    6  A    between atoms: C_7  and  C_8
REMARK    7  A    between atoms: C_8  and  C_9
REMARK    8  A    between atoms: C_9  and  O_10
REMARK    9  A    between atoms: O_10  and  C_11
REMARK   10  A    between atoms: C_11  and  C_14
REMARK   11  A    between atoms: C_14  and  C_15
REMARK   12  A    between atoms: C_21  and  C_22
REMARK   13  A    between atoms: C_22  and  C_25
REMARK   14  A    between atoms: C_22  and  O_37
REMARK   15  A    between atoms: C_29  and  O_35
REMARK                            x       y       z     vdW  Elec       q    Type
REMARK                         _______ _______ _______ _____ _____    ______ ____
ROOT
ATOM      1  N   UNL     1      36.311 -19.650 -20.238  0.00  0.00    +0.386 N 
ATOM      2  H   UNL     1      37.313 -19.605 -20.051  0.00  0.00    -0.084 HD
ATOM      3  H   UNL     1      35.790 -19.178 -19.499  0.00  0.00    -0.084 HD
ENDROOT
BRANCH   1   4
ATOM      4  C   UNL     1      35.897 -21.046 -20.283  0.00  0.00    -0.082 C 
BRANCH   4   5
ATOM      5  C   UNL     1      35.784 -21.655 -18.885  0.00  0.00    -0.023 C 
BRANCH   5   6
ATOM      6  C   UNL     1      37.106 -21.630 -18.110  0.00  0.00    -0.002 C 
BRANCH   6   7
ATOM      7  C   UNL     1      36.867 -21.759 -16.604  0.00  0.00    +0.003 C 
BRANCH   7   8
ATOM      8  C   UNL     1      37.739 -22.855 -15.995  0.00  0.00    +0.032 C 
BRANCH   8   9
ATOM      9  C   UNL     1      36.958 -23.710 -15.006  0.00  0.00    +0.142 C 
BRANCH   9  10
ATOM     10  O   UNL     1      36.009 -24.489 -15.722  0.00  0.00    -0.348 OA
BRANCH  10  11
ATOM     11  C   UNL     1      34.793 -24.622 -14.999  0.00  0.00    +0.213 C 
BRANCH  11  14
ATOM     12  F   UNL     1      34.188 -22.362 -14.918  0.00  0.00    -0.197 F 
ATOM     13  F   UNL     1      33.998 -23.385 -16.821  0.00  0.00    -0.197 F 
ATOM     14  C   UNL     1      33.818 -23.551 -15.477  0.00  0.00    +0.309 C 
BRANCH  14  15
ATOM     15  C   UNL     1      32.396 -23.924 -15.135  0.00  0.00    +0.040 C 
ATOM     16  C   UNL     1      31.349 -23.497 -15.951  0.00  0.00    +0.001 C 
ATOM     17  C   UNL     1      32.131 -24.694 -14.004  0.00  0.00    +0.001 C 
ATOM     18  C   UNL     1      30.035 -23.841 -15.636  0.00  0.00    -0.000 C 
ATOM     19  C   UNL     1      30.815 -25.038 -13.688  0.00  0.00    -0.000 C 
ATOM     20  C   UNL     1      29.768 -24.613 -14.504  0.00  0.00    -0.000 C 
ENDBRANCH  14  15
ENDBRANCH  11  14
ENDBRANCH  10  11
ENDBRANCH   9  10
ENDBRANCH   8   9
ENDBRANCH   7   8
ENDBRANCH   6   7
ENDBRANCH   5   6
ENDBRANCH   4   5
ENDBRANCH   1   4
BRANCH   1  21
ATOM     21  C   UNL     1      36.031 -18.983 -21.502  0.00  0.00    -0.047 C 
BRANCH  21  22
ATOM     22  C   UNL     1      34.834 -18.035 -21.366  0.00  0.00    +0.112 C 
BRANCH  22  25
ATOM     23  O   UNL     1      32.338 -12.304 -22.866  0.00  0.00    -0.270 OA
ATOM     24  N   UNL     1      33.171 -14.142 -23.976  0.00  0.00    -0.278 N 
ATOM     25  C   UNL     1      34.546 -17.317 -22.667  0.00  0.00    +0.004 C 
ATOM     26  C   UNL     1      33.982 -16.038 -22.702  0.00  0.00    +0.015 C 
ATOM     27  C   UNL     1      33.739 -15.429 -23.938  0.00  0.00    +0.084 C 
ATOM     28  C   UNL     1      34.862 -17.975 -23.857  0.00  0.00    +0.001 C 
ATOM     29  C   UNL     1      34.054 -16.085 -25.131  0.00  0.00    +0.147 C 
ATOM     30  C   UNL     1      33.638 -15.318 -21.480  0.00  0.00    +0.006 C 
ATOM     31  C   UNL     1      34.617 -17.359 -25.086  0.00  0.00    +0.038 C 
ATOM     32  C   UNL     1      33.099 -14.095 -21.537  0.00  0.00    +0.058 C 
ATOM     33  C   UNL     1      32.833 -13.429 -22.842  0.00  0.00    +0.250 C 
ATOM     34  H   UNL     1      33.008 -13.728 -24.854  0.00  0.00    +0.155 HD
BRANCH  29  35
ATOM     35  O   UNL     1      33.820 -15.501 -26.339  0.00  0.00    -0.504 OA
ATOM     36  H   UNL     1      33.012 -15.658 -26.786  0.00  0.00    +0.292 HD
ENDBRANCH  29  35
ENDBRANCH  22  25
BRANCH  22  37
ATOM     37  O   UNL     1      33.666 -18.765 -20.992  0.00  0.00    -0.382 OA
ATOM     38  H   UNL     1      33.892 -19.401 -20.295  0.00  0.00    +0.211 HD
ENDBRANCH  22  37
ENDBRANCH  21  22
ENDBRANCH   1  21
TORSDOF 15
ENDMDL
MODEL 9
REMARK VINA RESULT:     -10.1     10.799     15.374
REMARK  Name = 11962616
REMARK  15 active torsions:
REMARK  status: ('A' for Active; 'I' for Inactive)
REMARK    1  A    between atoms: N_1  and  C_4
REMARK    2  A    between atoms: N_1  and  C_21
REMARK    3  A    between atoms: C_4  and  C_5
REMARK    4  A    between atoms: C_5  and  C_6
REMARK    5  A    between atoms: C_6  and  C_7
REMARK    6  A    between atoms: C_7  and  C_8
REMARK    7  A    between atoms: C_8  and  C_9
REMARK    8  A    between atoms: C_9  and  O_10
REMARK    9  A    between atoms: O_10  and  C_11
REMARK   10  A    between atoms: C_11  and  C_14
REMARK   11  A    between atoms: C_14  and  C_15
REMARK   12  A    between atoms: C_21  and  C_22
REMARK   13  A    between atoms: C_22  and  C_25
REMARK   14  A    between atoms: C_22  and  O_37
REMARK   15  A    between atoms: C_29  and  O_35
REMARK                            x       y       z     vdW  Elec       q    Type
REMARK                         _______ _______ _______ _____ _____    ______ ____
ROOT
ATOM      1  N   UNL     1      32.231 -25.121 -13.559  0.00  0.00    +0.386 N 
ATOM      2  H   UNL     1      32.430 -25.582 -14.446  0.00  0.00    -0.084 HD
ATOM      3  H   UNL     1      32.453 -25.739 -12.778  0.00  0.00    -0.084 HD
ENDROOT
BRANCH   1   4
ATOM      4  C   UNL     1      30.812 -24.790 -13.501  0.00  0.00    -0.082 C 
BRANCH   4   5
ATOM      5  C   UNL     1      30.035 -25.399 -14.669  0.00  0.00    -0.023 C 
BRANCH   5   6
ATOM      6  C   UNL     1      29.484 -24.348 -15.638  0.00  0.00    -0.002 C 
BRANCH   6   7
ATOM      7  C   UNL     1      30.299 -23.054 -15.572  0.00  0.00    +0.003 C 
BRANCH   7   8
ATOM      8  C   UNL     1      31.046 -22.801 -16.880  0.00  0.00    +0.032 C 
BRANCH   8   9
ATOM      9  C   UNL     1      32.515 -23.185 -16.771  0.00  0.00    +0.142 C 
BRANCH   9  10
ATOM     10  O   UNL     1      33.051 -23.324 -18.080  0.00  0.00    -0.348 OA
BRANCH  10  11
ATOM     11  C   UNL     1      33.282 -22.059 -18.686  0.00  0.00    +0.213 C 
BRANCH  11  14
ATOM     12  F   UNL     1      35.593 -22.346 -18.440  0.00  0.00    -0.197 F 
ATOM     13  F   UNL     1      34.662 -23.168 -20.218  0.00  0.00    -0.197 F 
ATOM     14  C   UNL     1      34.639 -22.089 -19.382  0.00  0.00    +0.309 C 
BRANCH  14  15
ATOM     15  C   UNL     1      34.897 -20.796 -20.115  0.00  0.00    +0.040 C 
ATOM     16  C   UNL     1      33.831 -20.071 -20.647  0.00  0.00    +0.001 C 
ATOM     17  C   UNL     1      36.202 -20.326 -20.262  0.00  0.00    +0.001 C 
ATOM     18  C   UNL     1      34.069 -18.876 -21.325  0.00  0.00    -0.000 C 
ATOM     19  C   UNL     1      36.440 -19.130 -20.940  0.00  0.00    -0.000 C 
ATOM     20  C   UNL     1      35.374 -18.405 -21.471  0.00  0.00    -0.000 C 
ENDBRANCH  14  15
ENDBRANCH  11  14
ENDBRANCH  10  11
ENDBRANCH   9  10
ENDBRANCH   8   9
ENDBRANCH   7   8
ENDBRANCH   6   7
ENDBRANCH   5   6
ENDBRANCH   4   5
ENDBRANCH   1   4
BRANCH   1  21
ATOM     21  C   UNL     1      33.050 -23.922 -13.450  0.00  0.00    -0.047 C 
BRANCH  21  22
ATOM     22  C   UNL     1      34.449 -24.262 -12.924  0.00  0.00    +0.112 C 
BRANCH  22  25
ATOM     23  O   UNL     1      40.448 -26.277 -14.054  0.00  0.00    -0.270 OA
ATOM     24  N   UNL     1      38.987 -24.715 -14.908  0.00  0.00    -0.278 N 
ATOM     25  C   UNL     1      35.524 -23.875 -13.917  0.00  0.00    +0.004 C 
ATOM     26  C   UNL     1      36.775 -24.496 -13.940  0.00  0.00    +0.015 C 
ATOM     27  C   UNL     1      37.726 -24.090 -14.883  0.00  0.00    +0.084 C 
ATOM     28  C   UNL     1      35.230 -22.859 -14.829  0.00  0.00    +0.001 C 
ATOM     29  C   UNL     1      37.436 -23.075 -15.797  0.00  0.00    +0.147 C 
ATOM     30  C   UNL     1      37.119 -25.561 -13.003  0.00  0.00    +0.006 C 
ATOM     31  C   UNL     1      36.185 -22.461 -15.768  0.00  0.00    +0.038 C 
ATOM     32  C   UNL     1      38.324 -26.142 -13.043  0.00  0.00    +0.058 C 
ATOM     33  C   UNL     1      39.349 -25.725 -14.038  0.00  0.00    +0.250 C 
ATOM     34  H   UNL     1      39.644 -24.417 -15.579  0.00  0.00    +0.155 HD
BRANCH  29  35
ATOM     35  O   UNL     1      38.355 -22.671 -16.718  0.00  0.00    -0.504 OA
ATOM     36  H   UNL     1      38.428 -21.764 -16.940  0.00  0.00    +0.292 HD
ENDBRANCH  29  35
ENDBRANCH  22  25
BRANCH  22  37
ATOM     37  O   UNL     1      34.700 -23.569 -11.703  0.00  0.00    -0.382 OA
ATOM     38  H   UNL     1      33.856 -23.331 -11.286  0.00  0.00    +0.211 HD
ENDBRANCH  22  37
ENDBRANCH  21  22
ENDBRANCH   1  21
TORSDOF 15
ENDMDL
