MODEL 1
REMARK VINA RESULT:      -8.0      0.000      0.000
REMARK  Name = 11269429
REMARK  7 active torsions:
REMARK  status: ('A' for Active; 'I' for Inactive)
REMARK    1  A    between atoms: C_3  and  C_24
REMARK    2  A    between atoms: C_11  and  C_12
REMARK    3  A    between atoms: C_16  and  O_20
REMARK    4  A    between atoms: C_17  and  O_22
REMARK    5  A    between atoms: C_25  and  C_26
REMARK    6  A    between atoms: C_27  and  C_28
REMARK    7  A    between atoms: C_28  and  O_31
REMARK                            x       y       z     vdW  Elec       q    Type
REMARK                         _______ _______ _______ _____ _____    ______ ____
ROOT
ATOM      1  C   UNL     1      34.315 -16.391 -21.657  0.00  0.00    +0.015 C 
ATOM      2  C   UNL     1      34.506 -15.562 -22.951  0.00  0.00    +0.019 C 
ATOM      3  C   UNL     1      35.004 -17.706 -22.094  0.00  0.00    +0.065 C 
ATOM      4  C   UNL     1      34.066 -16.528 -24.053  0.00  0.00    +0.005 C 
ATOM      5  C   UNL     1      35.023 -15.656 -20.500  0.00  0.00    +0.002 C 
ATOM      6  C   UNL     1      34.540 -17.906 -23.554  0.00  0.00    +0.013 C 
ATOM      7  C   UNL     1      33.921 -14.183 -22.810  0.00  0.00    -0.045 C 
ATOM      8  C   UNL     1      34.502 -14.217 -20.335  0.00  0.00    +0.004 C 
ATOM      9  C   UNL     1      32.822 -16.619 -21.297  0.00  0.00    +0.001 C 
ATOM     10  C   UNL     1      34.512 -13.413 -21.646  0.00  0.00    +0.022 C 
ATOM     11  C   UNL     1      32.986 -13.656 -23.612  0.00  0.00    -0.009 C 
ENDROOT
BRANCH  11  12
ATOM     12  C   UNL     1      32.460 -12.324 -23.444  0.00  0.00    -0.005 C 
ATOM     13  C   UNL     1      32.907 -11.262 -24.135  0.00  0.00    -0.021 C 
ATOM     14  C   UNL     1      32.361  -9.871 -23.905  0.00  0.00    +0.055 C 
ATOM     15  C   UNL     1      33.977 -11.355 -25.128  0.00  0.00    +0.000 C 
ATOM     16  C   UNL     1      33.469  -8.833 -23.692  0.00  0.00    +0.118 C 
ATOM     17  C   UNL     1      35.093 -10.349 -24.921  0.00  0.00    +0.135 C 
ATOM     18  C   UNL     1      34.540  -8.924 -24.778  0.00  0.00    +0.063 C 
ATOM     19  C   UNL     1      33.925 -12.240 -26.138  0.00  0.00    -0.003 C 
BRANCH  16  20
ATOM     20  O   UNL     1      34.079  -9.029 -22.418  0.00  0.00    -0.384 OA
ATOM     21  H   UNL     1      34.958  -9.421 -22.538  0.00  0.00    +0.210 HD
ENDBRANCH  16  20
BRANCH  17  22
ATOM     22  O   UNL     1      36.030 -10.339 -25.997  0.00  0.00    -0.380 OA
ATOM     23  H   UNL     1      35.749 -10.971 -26.676  0.00  0.00    +0.211 HD
ENDBRANCH  17  22
ENDBRANCH  11  12
BRANCH   3  24
ATOM     24  C   UNL     1      34.709 -18.868 -21.247  0.00  0.00    -0.079 C 
ATOM     25  C   UNL     1      34.468 -19.818 -20.555  0.00  0.00    -0.014 C 
BRANCH  25  26
ATOM     26  C   UNL     1      34.193 -20.905 -19.762  0.00  0.00    -0.012 C 
ATOM     27  C   UNL     1      33.953 -21.854 -19.070  0.00  0.00    -0.053 C 
BRANCH  27  28
ATOM     28  C   UNL     1      33.657 -23.020 -18.218  0.00  0.00    +0.142 C 
ATOM     29  C   UNL     1      32.270 -22.879 -17.590  0.00  0.00    +0.043 C 
ATOM     30  C   UNL     1      34.729 -23.172 -17.138  0.00  0.00    +0.043 C 
BRANCH  28  31
ATOM     31  O   UNL     1      33.667 -24.192 -19.032  0.00  0.00    -0.375 OA
ATOM     32  H   UNL     1      32.786 -24.597 -19.025  0.00  0.00    +0.211 HD
ENDBRANCH  28  31
ENDBRANCH  27  28
ENDBRANCH  25  26
ENDBRANCH   3  24
TORSDOF 7
ENDMDL
MODEL 2
REMARK VINA RESULT:      -7.5      2.414     11.558
REMARK  Name = 11269429
REMARK  7 active torsions:
REMARK  status: ('A' for Active; 'I' for Inactive)
REMARK    1  A    between atoms: C_3  and  C_24
REMARK    2  A    between atoms: C_11  and  C_12
REMARK    3  A    between atoms: C_16  and  O_20
REMARK    4  A    between atoms: C_17  and  O_22
REMARK    5  A    between atoms: C_25  and  C_26
REMARK    6  A    between atoms: C_27  and  C_28
REMARK    7  A    between atoms: C_28  and  O_31
REMARK                            x       y       z     vdW  Elec       q    Type
REMARK                         _______ _______ _______ _____ _____    ______ ____
ROOT
ATOM      1  C   UNL     1      34.629 -19.539 -21.044  0.00  0.00    +0.015 C 
ATOM      2  C   UNL     1      35.576 -20.686 -20.606  0.00  0.00    +0.019 C 
ATOM      3  C   UNL     1      35.457 -18.962 -22.217  0.00  0.00    +0.065 C 
ATOM      4  C   UNL     1      36.944 -20.004 -20.542  0.00  0.00    +0.005 C 
ATOM      5  C   UNL     1      33.278 -20.156 -21.460  0.00  0.00    +0.002 C 
ATOM      6  C   UNL     1      36.912 -18.990 -21.701  0.00  0.00    +0.013 C 
ATOM      7  C   UNL     1      35.005 -21.455 -19.446  0.00  0.00    -0.045 C 
ATOM      8  C   UNL     1      32.664 -20.999 -20.329  0.00  0.00    +0.004 C 
ATOM      9  C   UNL     1      34.402 -18.483 -19.929  0.00  0.00    +0.001 C 
ATOM     10  C   UNL     1      33.639 -22.038 -19.747  0.00  0.00    +0.022 C 
ATOM     11  C   UNL     1      35.613 -21.635 -18.266  0.00  0.00    -0.009 C 
ENDROOT
BRANCH  11  12
ATOM     12  C   UNL     1      35.031 -22.389 -17.183  0.00  0.00    -0.005 C 
ATOM     13  C   UNL     1      35.748 -22.883 -16.161  0.00  0.00    -0.021 C 
ATOM     14  C   UNL     1      35.112 -23.705 -15.062  0.00  0.00    +0.055 C 
ATOM     15  C   UNL     1      37.196 -22.705 -16.048  0.00  0.00    +0.000 C 
ATOM     16  C   UNL     1      35.860 -25.018 -14.803  0.00  0.00    +0.118 C 
ATOM     17  C   UNL     1      37.955 -23.997 -15.812  0.00  0.00    +0.135 C 
ATOM     18  C   UNL     1      37.362 -24.786 -14.637  0.00  0.00    +0.063 C 
ATOM     19  C   UNL     1      37.763 -21.489 -16.116  0.00  0.00    -0.003 C 
BRANCH  16  20
ATOM     20  O   UNL     1      35.646 -25.920 -15.887  0.00  0.00    -0.384 OA
ATOM     21  H   UNL     1      34.825 -25.684 -16.345  0.00  0.00    +0.210 HD
ENDBRANCH  16  20
BRANCH  17  22
ATOM     22  O   UNL     1      39.335 -23.778 -15.528  0.00  0.00    -0.380 OA
ATOM     23  H   UNL     1      39.575 -22.870 -15.769  0.00  0.00    +0.211 HD
ENDBRANCH  17  22
ENDBRANCH  11  12
BRANCH   3  24
ATOM     24  C   UNL     1      35.045 -17.625 -22.662  0.00  0.00    -0.079 C 
ATOM     25  C   UNL     1      34.708 -16.532 -23.026  0.00  0.00    -0.014 C 
BRANCH  25  26
ATOM     26  C   UNL     1      34.323 -15.282 -23.442  0.00  0.00    -0.012 C 
ATOM     27  C   UNL     1      33.985 -14.190 -23.806  0.00  0.00    -0.053 C 
BRANCH  27  28
ATOM     28  C   UNL     1      33.570 -12.848 -24.252  0.00  0.00    +0.142 C 
ATOM     29  C   UNL     1      32.320 -12.401 -23.493  0.00  0.00    +0.043 C 
ATOM     30  C   UNL     1      33.319 -12.845 -25.760  0.00  0.00    +0.043 C 
BRANCH  28  31
ATOM     31  O   UNL     1      34.624 -11.928 -23.968  0.00  0.00    -0.375 OA
ATOM     32  H   UNL     1      35.475 -12.392 -24.004  0.00  0.00    +0.211 HD
ENDBRANCH  28  31
ENDBRANCH  27  28
ENDBRANCH  25  26
ENDBRANCH   3  24
TORSDOF 7
ENDMDL
MODEL 3
REMARK VINA RESULT:      -7.3      2.337      4.469
REMARK  Name = 11269429
REMARK  7 active torsions:
REMARK  status: ('A' for Active; 'I' for Inactive)
REMARK    1  A    between atoms: C_3  and  C_24
REMARK    2  A    between atoms: C_11  and  C_12
REMARK    3  A    between atoms: C_16  and  O_20
REMARK    4  A    between atoms: C_17  and  O_22
REMARK    5  A    between atoms: C_25  and  C_26
REMARK    6  A    between atoms: C_27  and  C_28
REMARK    7  A    between atoms: C_28  and  O_31
REMARK                            x       y       z     vdW  Elec       q    Type
REMARK                         _______ _______ _______ _____ _____    ______ ____
ROOT
ATOM      1  C   UNL     1      33.097 -13.803 -22.761  0.00  0.00    +0.015 C 
ATOM      2  C   UNL     1      32.251 -12.531 -22.503  0.00  0.00    +0.019 C 
ATOM      3  C   UNL     1      32.350 -14.796 -21.837  0.00  0.00    +0.065 C 
ATOM      4  C   UNL     1      32.140 -12.489 -20.978  0.00  0.00    +0.005 C 
ATOM      5  C   UNL     1      33.015 -14.146 -24.262  0.00  0.00    +0.002 C 
ATOM      6  C   UNL     1      32.044 -13.970 -20.568  0.00  0.00    +0.013 C 
ATOM      7  C   UNL     1      32.759 -11.364 -23.305  0.00  0.00    -0.045 C 
ATOM      8  C   UNL     1      33.476 -12.970 -25.141  0.00  0.00    +0.004 C 
ATOM      9  C   UNL     1      34.583 -13.639 -22.341  0.00  0.00    +0.001 C 
ATOM     10  C   UNL     1      32.780 -11.643 -24.794  0.00  0.00    +0.022 C 
ATOM     11  C   UNL     1      33.149 -10.188 -22.794  0.00  0.00    -0.009 C 
ENDROOT
BRANCH  11  12
ATOM     12  C   UNL     1      33.622  -9.092 -23.602  0.00  0.00    -0.005 C 
ATOM     13  C   UNL     1      33.430  -7.803 -23.280  0.00  0.00    -0.021 C 
ATOM     14  C   UNL     1      33.904  -6.677 -24.172  0.00  0.00    +0.055 C 
ATOM     15  C   UNL     1      32.720  -7.384 -22.071  0.00  0.00    +0.000 C 
ATOM     16  C   UNL     1      32.804  -5.646 -24.449  0.00  0.00    +0.118 C 
ATOM     17  C   UNL     1      31.614  -6.379 -22.329  0.00  0.00    +0.135 C 
ATOM     18  C   UNL     1      32.121  -5.191 -23.159  0.00  0.00    +0.063 C 
ATOM     19  C   UNL     1      33.067  -7.842 -20.856  0.00  0.00    -0.003 C 
BRANCH  16  20
ATOM     20  O   UNL     1      31.824  -6.204 -25.322  0.00  0.00    -0.384 OA
ATOM     21  H   UNL     1      31.243  -6.795 -24.819  0.00  0.00    +0.210 HD
ENDBRANCH  16  20
BRANCH  17  22
ATOM     22  O   UNL     1      31.058  -5.853 -21.125  0.00  0.00    -0.380 OA
ATOM     23  H   UNL     1      30.902  -4.902 -21.229  0.00  0.00    +0.211 HD
ENDBRANCH  17  22
ENDBRANCH  11  12
BRANCH   3  24
ATOM     24  C   UNL     1      33.082 -16.033 -21.540  0.00  0.00    -0.079 C 
ATOM     25  C   UNL     1      33.681 -17.044 -21.297  0.00  0.00    -0.014 C 
BRANCH  25  26
ATOM     26  C   UNL     1      34.365 -18.201 -21.019  0.00  0.00    -0.012 C 
ATOM     27  C   UNL     1      34.963 -19.212 -20.775  0.00  0.00    -0.053 C 
BRANCH  27  28
ATOM     28  C   UNL     1      35.697 -20.455 -20.477  0.00  0.00    +0.142 C 
ATOM     29  C   UNL     1      34.909 -21.309 -19.483  0.00  0.00    +0.043 C 
ATOM     30  C   UNL     1      37.087 -20.131 -19.931  0.00  0.00    +0.043 C 
BRANCH  28  31
ATOM     31  O   UNL     1      35.848 -21.196 -21.687  0.00  0.00    -0.375 OA
ATOM     32  H   UNL     1      36.556 -20.802 -22.220  0.00  0.00    +0.211 HD
ENDBRANCH  28  31
ENDBRANCH  27  28
ENDBRANCH  25  26
ENDBRANCH   3  24
TORSDOF 7
ENDMDL
MODEL 4
REMARK VINA RESULT:      -6.8      4.335     12.260
REMARK  Name = 11269429
REMARK  7 active torsions:
REMARK  status: ('A' for Active; 'I' for Inactive)
REMARK    1  A    between atoms: C_3  and  C_24
REMARK    2  A    between atoms: C_11  and  C_12
REMARK    3  A    between atoms: C_16  and  O_20
REMARK    4  A    between atoms: C_17  and  O_22
REMARK    5  A    between atoms: C_25  and  C_26
REMARK    6  A    between atoms: C_27  and  C_28
REMARK    7  A    between atoms: C_28  and  O_31
REMARK                            x       y       z     vdW  Elec       q    Type
REMARK                         _______ _______ _______ _____ _____    ______ ____
ROOT
ATOM      1  C   UNL     1      32.227  -7.513 -23.152  0.00  0.00    +0.015 C 
ATOM      2  C   UNL     1      31.062  -8.405 -22.656  0.00  0.00    +0.019 C 
ATOM      3  C   UNL     1      31.426  -6.504 -24.010  0.00  0.00    +0.065 C 
ATOM      4  C   UNL     1      30.269  -8.686 -23.933  0.00  0.00    +0.005 C 
ATOM      5  C   UNL     1      32.922  -6.891 -21.923  0.00  0.00    +0.002 C 
ATOM      6  C   UNL     1      30.381  -7.378 -24.739  0.00  0.00    +0.013 C 
ATOM      7  C   UNL     1      31.559  -9.507 -21.759  0.00  0.00    -0.045 C 
ATOM      8  C   UNL     1      33.410  -7.969 -20.939  0.00  0.00    +0.004 C 
ATOM      9  C   UNL     1      33.266  -8.291 -24.004  0.00  0.00    +0.001 C 
ATOM     10  C   UNL     1      32.319  -8.984 -20.557  0.00  0.00    +0.022 C 
ATOM     11  C   UNL     1      31.361 -10.816 -21.964  0.00  0.00    -0.009 C 
ENDROOT
BRANCH  11  12
ATOM     12  C   UNL     1      31.849 -11.839 -21.072  0.00  0.00    -0.005 C 
ATOM     13  C   UNL     1      32.659 -12.834 -21.466  0.00  0.00    -0.021 C 
ATOM     14  C   UNL     1      33.120 -13.915 -20.513  0.00  0.00    +0.055 C 
ATOM     15  C   UNL     1      33.126 -12.979 -22.845  0.00  0.00    +0.000 C 
ATOM     16  C   UNL     1      32.904 -15.324 -21.076  0.00  0.00    +0.118 C 
ATOM     17  C   UNL     1      32.901 -14.362 -23.426  0.00  0.00    +0.135 C 
ATOM     18  C   UNL     1      33.452 -15.453 -22.497  0.00  0.00    +0.063 C 
ATOM     19  C   UNL     1      33.727 -11.967 -23.495  0.00  0.00    -0.003 C 
BRANCH  16  20
ATOM     20  O   UNL     1      31.512 -15.635 -21.084  0.00  0.00    -0.384 OA
ATOM     21  H   UNL     1      31.021 -14.906 -21.493  0.00  0.00    +0.210 HD
ENDBRANCH  16  20
BRANCH  17  22
ATOM     22  O   UNL     1      33.522 -14.530 -24.699  0.00  0.00    -0.380 OA
ATOM     23  H   UNL     1      33.160 -13.883 -25.323  0.00  0.00    +0.211 HD
ENDBRANCH  17  22
ENDBRANCH  11  12
BRANCH   3  24
ATOM     24  C   UNL     1      32.235  -5.705 -24.939  0.00  0.00    -0.079 C 
ATOM     25  C   UNL     1      32.896  -5.052 -25.698  0.00  0.00    -0.014 C 
BRANCH  25  26
ATOM     26  C   UNL     1      33.652  -4.305 -26.567  0.00  0.00    -0.012 C 
ATOM     27  C   UNL     1      34.313  -3.653 -27.326  0.00  0.00    -0.053 C 
BRANCH  27  28
ATOM     28  C   UNL     1      35.126  -2.853 -28.260  0.00  0.00    +0.142 C 
ATOM     29  C   UNL     1      36.068  -3.759 -29.052  0.00  0.00    +0.043 C 
ATOM     30  C   UNL     1      35.911  -1.786 -27.497  0.00  0.00    +0.043 C 
BRANCH  28  31
ATOM     31  O   UNL     1      34.250  -2.199 -29.178  0.00  0.00    -0.375 OA
ATOM     32  H   UNL     1      33.820  -2.861 -29.741  0.00  0.00    +0.211 HD
ENDBRANCH  28  31
ENDBRANCH  27  28
ENDBRANCH  25  26
ENDBRANCH   3  24
TORSDOF 7
ENDMDL
MODEL 5
REMARK VINA RESULT:      -6.6      2.688     10.109
REMARK  Name = 11269429
REMARK  7 active torsions:
REMARK  status: ('A' for Active; 'I' for Inactive)
REMARK    1  A    between atoms: C_3  and  C_24
REMARK    2  A    between atoms: C_11  and  C_12
REMARK    3  A    between atoms: C_16  and  O_20
REMARK    4  A    between atoms: C_17  and  O_22
REMARK    5  A    between atoms: C_25  and  C_26
REMARK    6  A    between atoms: C_27  and  C_28
REMARK    7  A    between atoms: C_28  and  O_31
REMARK                            x       y       z     vdW  Elec       q    Type
REMARK                         _______ _______ _______ _____ _____    ______ ____
ROOT
ATOM      1  C   UNL     1      33.378 -14.098 -22.195  0.00  0.00    +0.015 C 
ATOM      2  C   UNL     1      33.413 -15.476 -22.904  0.00  0.00    +0.019 C 
ATOM      3  C   UNL     1      32.217 -13.440 -22.979  0.00  0.00    +0.065 C 
ATOM      4  C   UNL     1      33.376 -15.105 -24.388  0.00  0.00    +0.005 C 
ATOM      5  C   UNL     1      33.085 -14.329 -20.698  0.00  0.00    +0.002 C 
ATOM      6  C   UNL     1      32.461 -13.867 -24.443  0.00  0.00    +0.013 C 
ATOM      7  C   UNL     1      34.479 -16.364 -22.323  0.00  0.00    -0.045 C 
ATOM      8  C   UNL     1      34.116 -15.273 -20.055  0.00  0.00    +0.004 C 
ATOM      9  C   UNL     1      34.700 -13.301 -22.354  0.00  0.00    +0.001 C 
ATOM     10  C   UNL     1      34.307 -16.586 -20.834  0.00  0.00    +0.022 C 
ATOM     11  C   UNL     1      35.479 -16.924 -23.017  0.00  0.00    -0.009 C 
ENDROOT
BRANCH  11  12
ATOM     12  C   UNL     1      36.476 -17.777 -22.419  0.00  0.00    -0.005 C 
ATOM     13  C   UNL     1      36.204 -18.999 -21.934  0.00  0.00    -0.021 C 
ATOM     14  C   UNL     1      37.265 -19.853 -21.276  0.00  0.00    +0.055 C 
ATOM     15  C   UNL     1      34.863 -19.586 -21.966  0.00  0.00    +0.000 C 
ATOM     16  C   UNL     1      36.817 -20.400 -19.916  0.00  0.00    +0.118 C 
ATOM     17  C   UNL     1      34.395 -20.115 -20.623  0.00  0.00    +0.135 C 
ATOM     18  C   UNL     1      35.437 -21.053 -19.999  0.00  0.00    +0.063 C 
ATOM     19  C   UNL     1      34.156 -19.664 -23.105  0.00  0.00    -0.003 C 
BRANCH  16  20
ATOM     20  O   UNL     1      36.776 -19.345 -18.957  0.00  0.00    -0.384 OA
ATOM     21  H   UNL     1      36.954 -19.704 -18.074  0.00  0.00    +0.210 HD
ENDBRANCH  16  20
BRANCH  17  22
ATOM     22  O   UNL     1      33.169 -20.837 -20.716  0.00  0.00    -0.380 OA
ATOM     23  H   UNL     1      33.282 -21.589 -21.317  0.00  0.00    +0.211 HD
ENDBRANCH  17  22
ENDBRANCH  11  12
BRANCH   3  24
ATOM     24  C   UNL     1      32.120 -11.982 -22.829  0.00  0.00    -0.079 C 
ATOM     25  C   UNL     1      32.041 -10.791 -22.707  0.00  0.00    -0.014 C 
BRANCH  25  26
ATOM     26  C   UNL     1      31.950  -9.429 -22.567  0.00  0.00    -0.012 C 
ATOM     27  C   UNL     1      31.871  -8.238 -22.444  0.00  0.00    -0.053 C 
BRANCH  27  28
ATOM     28  C   UNL     1      31.771  -6.775 -22.294  0.00  0.00    +0.142 C 
ATOM     29  C   UNL     1      32.730  -6.077 -23.258  0.00  0.00    +0.043 C 
ATOM     30  C   UNL     1      32.064  -6.371 -20.849  0.00  0.00    +0.043 C 
BRANCH  28  31
ATOM     31  O   UNL     1      30.439  -6.375 -22.613  0.00  0.00    -0.375 OA
ATOM     32  H   UNL     1      29.810  -6.920 -22.115  0.00  0.00    +0.211 HD
ENDBRANCH  28  31
ENDBRANCH  27  28
ENDBRANCH  25  26
ENDBRANCH   3  24
TORSDOF 7
ENDMDL
MODEL 6
REMARK VINA RESULT:      -6.5      2.549      4.977
REMARK  Name = 11269429
REMARK  7 active torsions:
REMARK  status: ('A' for Active; 'I' for Inactive)
REMARK    1  A    between atoms: C_3  and  C_24
REMARK    2  A    between atoms: C_11  and  C_12
REMARK    3  A    between atoms: C_16  and  O_20
REMARK    4  A    between atoms: C_17  and  O_22
REMARK    5  A    between atoms: C_25  and  C_26
REMARK    6  A    between atoms: C_27  and  C_28
REMARK    7  A    between atoms: C_28  and  O_31
REMARK                            x       y       z     vdW  Elec       q    Type
REMARK                         _______ _______ _______ _____ _____    ______ ____
ROOT
ATOM      1  C   UNL     1      33.222 -12.956 -23.285  0.00  0.00    +0.015 C 
ATOM      2  C   UNL     1      32.457 -11.625 -23.072  0.00  0.00    +0.019 C 
ATOM      3  C   UNL     1      32.344 -13.894 -22.423  0.00  0.00    +0.065 C 
ATOM      4  C   UNL     1      32.246 -11.583 -21.557  0.00  0.00    +0.005 C 
ATOM      5  C   UNL     1      33.217 -13.284 -24.792  0.00  0.00    +0.002 C 
ATOM      6  C   UNL     1      32.014 -13.055 -21.169  0.00  0.00    +0.013 C 
ATOM      7  C   UNL     1      33.101 -10.495 -23.827  0.00  0.00    -0.045 C 
ATOM      8  C   UNL     1      33.820 -12.141 -25.626  0.00  0.00    +0.004 C 
ATOM      9  C   UNL     1      34.684 -12.903 -22.765  0.00  0.00    +0.001 C 
ATOM     10  C   UNL     1      33.202 -10.768 -25.314  0.00  0.00    +0.022 C 
ATOM     11  C   UNL     1      33.541  -9.354 -23.280  0.00  0.00    -0.009 C 
ENDROOT
BRANCH  11  12
ATOM     12  C   UNL     1      34.147  -8.292 -24.044  0.00  0.00    -0.005 C 
ATOM     13  C   UNL     1      33.707  -7.023 -24.019  0.00  0.00    -0.021 C 
ATOM     14  C   UNL     1      34.340  -5.941 -24.865  0.00  0.00    +0.055 C 
ATOM     15  C   UNL     1      32.567  -6.594 -23.208  0.00  0.00    +0.000 C 
ATOM     16  C   UNL     1      33.305  -5.140 -25.663  0.00  0.00    +0.118 C 
ATOM     17  C   UNL     1      31.522  -5.817 -23.987  0.00  0.00    +0.135 C 
ATOM     18  C   UNL     1      32.157  -4.663 -24.773  0.00  0.00    +0.063 C 
ATOM     19  C   UNL     1      32.503  -6.852 -21.891  0.00  0.00    -0.003 C 
BRANCH  16  20
ATOM     20  O   UNL     1      32.776  -5.943 -26.715  0.00  0.00    -0.384 OA
ATOM     21  H   UNL     1      32.282  -6.687 -26.337  0.00  0.00    +0.210 HD
ENDBRANCH  16  20
BRANCH  17  22
ATOM     22  O   UNL     1      30.515  -5.259 -23.145  0.00  0.00    -0.380 OA
ATOM     23  H   UNL     1      29.792  -5.897 -23.039  0.00  0.00    +0.211 HD
ENDBRANCH  17  22
ENDBRANCH  11  12
BRANCH   3  24
ATOM     24  C   UNL     1      32.962 -15.183 -22.089  0.00  0.00    -0.079 C 
ATOM     25  C   UNL     1      33.466 -16.237 -21.816  0.00  0.00    -0.014 C 
BRANCH  25  26
ATOM     26  C   UNL     1      34.044 -17.442 -21.503  0.00  0.00    -0.012 C 
ATOM     27  C   UNL     1      34.549 -18.496 -21.230  0.00  0.00    -0.053 C 
BRANCH  27  28
ATOM     28  C   UNL     1      35.170 -19.789 -20.892  0.00  0.00    +0.142 C 
ATOM     29  C   UNL     1      34.278 -20.567 -19.924  0.00  0.00    +0.043 C 
ATOM     30  C   UNL     1      36.559 -19.569 -20.295  0.00  0.00    +0.043 C 
BRANCH  28  31
ATOM     31  O   UNL     1      35.309 -20.552 -22.090  0.00  0.00    -0.375 OA
ATOM     32  H   UNL     1      34.430 -20.766 -22.441  0.00  0.00    +0.211 HD
ENDBRANCH  28  31
ENDBRANCH  27  28
ENDBRANCH  25  26
ENDBRANCH   3  24
TORSDOF 7
ENDMDL
MODEL 7
REMARK VINA RESULT:      -6.4      2.397      4.557
REMARK  Name = 11269429
REMARK  7 active torsions:
REMARK  status: ('A' for Active; 'I' for Inactive)
REMARK    1  A    between atoms: C_3  and  C_24
REMARK    2  A    between atoms: C_11  and  C_12
REMARK    3  A    between atoms: C_16  and  O_20
REMARK    4  A    between atoms: C_17  and  O_22
REMARK    5  A    between atoms: C_25  and  C_26
REMARK    6  A    between atoms: C_27  and  C_28
REMARK    7  A    between atoms: C_28  and  O_31
REMARK                            x       y       z     vdW  Elec       q    Type
REMARK                         _______ _______ _______ _____ _____    ______ ____
ROOT
ATOM      1  C   UNL     1      35.152 -19.774 -20.925  0.00  0.00    +0.015 C 
ATOM      2  C   UNL     1      34.030 -19.173 -21.809  0.00  0.00    +0.019 C 
ATOM      3  C   UNL     1      34.382 -20.971 -20.318  0.00  0.00    +0.065 C 
ATOM      4  C   UNL     1      32.827 -19.131 -20.865  0.00  0.00    +0.005 C 
ATOM      5  C   UNL     1      36.330 -20.172 -21.838  0.00  0.00    +0.002 C 
ATOM      6  C   UNL     1      32.983 -20.397 -20.002  0.00  0.00    +0.013 C 
ATOM      7  C   UNL     1      34.511 -17.957 -22.554  0.00  0.00    -0.045 C 
ATOM      8  C   UNL     1      36.837 -18.978 -22.667  0.00  0.00    +0.004 C 
ATOM      9  C   UNL     1      35.648 -18.795 -19.826  0.00  0.00    +0.001 C 
ATOM     10  C   UNL     1      35.717 -18.244 -23.424  0.00  0.00    +0.022 C 
ATOM     11  C   UNL     1      33.953 -16.741 -22.486  0.00  0.00    -0.009 C 
ENDROOT
BRANCH  11  12
ATOM     12  C   UNL     1      34.443 -15.604 -23.226  0.00  0.00    -0.005 C 
ATOM     13  C   UNL     1      34.091 -14.338 -22.949  0.00  0.00    -0.021 C 
ATOM     14  C   UNL     1      34.592 -13.171 -23.770  0.00  0.00    +0.055 C 
ATOM     15  C   UNL     1      33.172 -13.988 -21.865  0.00  0.00    +0.000 C 
ATOM     16  C   UNL     1      33.460 -12.242 -24.221  0.00  0.00    +0.118 C 
ATOM     17  C   UNL     1      32.032 -13.085 -22.298  0.00  0.00    +0.135 C 
ATOM     18  C   UNL     1      32.552 -11.855 -23.053  0.00  0.00    +0.063 C 
ATOM     19  C   UNL     1      33.371 -14.417 -20.608  0.00  0.00    -0.003 C 
BRANCH  16  20
ATOM     20  O   UNL     1      32.677 -12.882 -25.227  0.00  0.00    -0.384 OA
ATOM     21  H   UNL     1      32.604 -12.300 -25.998  0.00  0.00    +0.210 HD
ENDBRANCH  16  20
BRANCH  17  22
ATOM     22  O   UNL     1      31.257 -12.616 -21.197  0.00  0.00    -0.380 OA
ATOM     23  H   UNL     1      30.456 -12.181 -21.527  0.00  0.00    +0.211 HD
ENDBRANCH  17  22
ENDBRANCH  11  12
BRANCH   3  24
ATOM     24  C   UNL     1      35.017 -21.580 -19.142  0.00  0.00    -0.079 C 
ATOM     25  C   UNL     1      35.535 -22.077 -18.181  0.00  0.00    -0.014 C 
BRANCH  25  26
ATOM     26  C   UNL     1      36.128 -22.647 -17.082  0.00  0.00    -0.012 C 
ATOM     27  C   UNL     1      36.647 -23.144 -16.121  0.00  0.00    -0.053 C 
BRANCH  27  28
ATOM     28  C   UNL     1      37.283 -23.757 -14.942  0.00  0.00    +0.142 C 
ATOM     29  C   UNL     1      36.748 -25.174 -14.728  0.00  0.00    +0.043 C 
ATOM     30  C   UNL     1      37.044 -22.894 -13.703  0.00  0.00    +0.043 C 
BRANCH  28  31
ATOM     31  O   UNL     1      38.689 -23.836 -15.173  0.00  0.00    -0.375 OA
ATOM     32  H   UNL     1      39.156 -23.315 -14.501  0.00  0.00    +0.211 HD
ENDBRANCH  28  31
ENDBRANCH  27  28
ENDBRANCH  25  26
ENDBRANCH   3  24
TORSDOF 7
ENDMDL
MODEL 8
REMARK VINA RESULT:      -5.1      3.051      6.288
REMARK  Name = 11269429
REMARK  7 active torsions:
REMARK  status: ('A' for Active; 'I' for Inactive)
REMARK    1  A    between atoms: C_3  and  C_24
REMARK    2  A    between atoms: C_11  and  C_12
REMARK    3  A    between atoms: C_16  and  O_20
REMARK    4  A    between atoms: C_17  and  O_22
REMARK    5  A    between atoms: C_25  and  C_26
REMARK    6  A    between atoms: C_27  and  C_28
REMARK    7  A    between atoms: C_28  and  O_31
REMARK                            x       y       z     vdW  Elec       q    Type
REMARK                         _______ _______ _______ _____ _____    ______ ____
ROOT
ATOM      1  C   UNL     1      34.867 -21.555 -19.346  0.00  0.00    +0.015 C 
ATOM      2  C   UNL     1      33.880 -21.024 -20.416  0.00  0.00    +0.019 C 
ATOM      3  C   UNL     1      33.938 -22.555 -18.617  0.00  0.00    +0.065 C 
ATOM      4  C   UNL     1      32.621 -20.712 -19.604  0.00  0.00    +0.005 C 
ATOM      5  C   UNL     1      36.063 -22.209 -20.070  0.00  0.00    +0.002 C 
ATOM      6  C   UNL     1      32.584 -21.815 -18.530  0.00  0.00    +0.013 C 
ATOM      7  C   UNL     1      34.535 -20.006 -21.309  0.00  0.00    -0.045 C 
ATOM      8  C   UNL     1      36.747 -21.229 -21.039  0.00  0.00    +0.004 C 
ATOM      9  C   UNL     1      35.378 -20.445 -18.388  0.00  0.00    +0.001 C 
ATOM     10  C   UNL     1      35.766 -20.545 -22.007  0.00  0.00    +0.022 C 
ATOM     11  C   UNL     1      34.099 -18.753 -21.498  0.00  0.00    -0.009 C 
ENDROOT
BRANCH  11  12
ATOM     12  C   UNL     1      34.755 -17.811 -22.372  0.00  0.00    -0.005 C 
ATOM     13  C   UNL     1      34.557 -16.484 -22.305  0.00  0.00    -0.021 C 
ATOM     14  C   UNL     1      35.231 -15.527 -23.264  0.00  0.00    +0.055 C 
ATOM     15  C   UNL     1      33.654 -15.864 -21.336  0.00  0.00    +0.000 C 
ATOM     16  C   UNL     1      34.241 -14.549 -23.907  0.00  0.00    +0.118 C 
ATOM     17  C   UNL     1      32.654 -14.907 -21.958  0.00  0.00    +0.135 C 
ATOM     18  C   UNL     1      33.351 -13.880 -22.860  0.00  0.00    +0.063 C 
ATOM     19  C   UNL     1      33.754 -16.114 -20.020  0.00  0.00    -0.003 C 
BRANCH  16  20
ATOM     20  O   UNL     1      33.418 -15.238 -24.846  0.00  0.00    -0.384 OA
ATOM     21  H   UNL     1      33.063 -14.606 -25.490  0.00  0.00    +0.210 HD
ENDBRANCH  16  20
BRANCH  17  22
ATOM     22  O   UNL     1      31.907 -14.184 -20.982  0.00  0.00    -0.380 OA
ATOM     23  H   UNL     1      32.250 -14.386 -20.098  0.00  0.00    +0.211 HD
ENDBRANCH  17  22
ENDBRANCH  11  12
BRANCH   3  24
ATOM     24  C   UNL     1      34.419 -23.000 -17.304  0.00  0.00    -0.079 C 
ATOM     25  C   UNL     1      34.813 -23.363 -16.230  0.00  0.00    -0.014 C 
BRANCH  25  26
ATOM     26  C   UNL     1      35.264 -23.778 -15.002  0.00  0.00    -0.012 C 
ATOM     27  C   UNL     1      35.657 -24.142 -13.928  0.00  0.00    -0.053 C 
BRANCH  27  28
ATOM     28  C   UNL     1      36.139 -24.590 -12.610  0.00  0.00    +0.142 C 
ATOM     29  C   UNL     1      36.784 -23.424 -11.858  0.00  0.00    +0.043 C 
ATOM     30  C   UNL     1      37.127 -25.745 -12.772  0.00  0.00    +0.043 C 
BRANCH  28  31
ATOM     31  O   UNL     1      35.023 -25.054 -11.851  0.00  0.00    -0.375 OA
ATOM     32  H   UNL     1      34.331 -25.367 -12.455  0.00  0.00    +0.211 HD
ENDBRANCH  28  31
ENDBRANCH  27  28
ENDBRANCH  25  26
ENDBRANCH   3  24
TORSDOF 7
ENDMDL
