MODEL 1
REMARK VINA RESULT:      -9.2      0.000      0.000
REMARK  Name = 11460087
REMARK  6 active torsions:
REMARK  status: ('A' for Active; 'I' for Inactive)
REMARK    1  A    between atoms: C_1  and  C_3
REMARK    2  A    between atoms: C_1  and  O_6
REMARK    3  A    between atoms: C_1  and  C_14
REMARK    4  A    between atoms: C_3  and  O_4
REMARK    5  A    between atoms: O_6  and  C_8
REMARK    6  A    between atoms: C_14  and  C_15
REMARK                            x       y       z     vdW  Elec       q    Type
REMARK                         _______ _______ _______ _____ _____    ______ ____
ROOT
ATOM      1  C   UNL     1      34.696 -17.992 -23.063  0.00  0.00    +0.267 C 
ENDROOT
BRANCH   1   3
ATOM      2  O   UNL     1      34.848 -19.770 -24.716  0.00  0.00    -0.246 OA
ATOM      3  C   UNL     1      34.736 -18.578 -24.460  0.00  0.00    +0.355 C 
BRANCH   3   4
ATOM      4  O   UNL     1      34.615 -17.624 -25.419  0.00  0.00    -0.478 OA
ATOM      5  H   UNL     1      34.604 -16.719 -25.179  0.00  0.00    +0.295 HD
ENDBRANCH   3   4
ENDBRANCH   1   3
BRANCH   1   6
ATOM      6  O   UNL     1      35.577 -18.759 -22.251  0.00  0.00    -0.468 OA
BRANCH   6   8
ATOM      7 CL   UNL     1      33.099 -22.393 -18.361  0.00  0.00    -0.082 Cl
ATOM      8  C   UNL     1      34.999 -19.606 -21.342  0.00  0.00    +0.139 C 
ATOM      9  C   UNL     1      35.797 -20.474 -20.605  0.00  0.00    +0.038 C 
ATOM     10  C   UNL     1      33.620 -19.591 -21.168  0.00  0.00    +0.038 C 
ATOM     11  C   UNL     1      35.209 -21.337 -19.681  0.00  0.00    +0.015 C 
ATOM     12  C   UNL     1      33.031 -20.455 -20.244  0.00  0.00    +0.015 C 
ATOM     13  C   UNL     1      33.825 -21.328 -19.501  0.00  0.00    +0.058 C 
ENDBRANCH   6   8
ENDBRANCH   1   6
BRANCH   1  14
ATOM     14  C   UNL     1      35.172 -16.530 -23.055  0.00  0.00    +0.082 C 
BRANCH  14  15
ATOM     15  C   UNL     1      34.189 -15.611 -22.412  0.00  0.00    -0.018 C 
ATOM     16  C   UNL     1      33.906 -15.732 -21.051  0.00  0.00    -0.004 C 
ATOM     17  C   UNL     1      33.551 -14.630 -23.171  0.00  0.00    -0.004 C 
ATOM     18  C   UNL     1      32.987 -14.873 -20.450  0.00  0.00    -0.000 C 
ATOM     19  C   UNL     1      32.631 -13.770 -22.570  0.00  0.00    -0.000 C 
ATOM     20  C   UNL     1      32.349 -13.892 -21.209  0.00  0.00    -0.000 C 
ENDBRANCH  14  15
ENDBRANCH   1  14
TORSDOF 6
ENDMDL
MODEL 2
REMARK VINA RESULT:      -9.1      0.046      1.109
REMARK  Name = 11460087
REMARK  6 active torsions:
REMARK  status: ('A' for Active; 'I' for Inactive)
REMARK    1  A    between atoms: C_1  and  C_3
REMARK    2  A    between atoms: C_1  and  O_6
REMARK    3  A    between atoms: C_1  and  C_14
REMARK    4  A    between atoms: C_3  and  O_4
REMARK    5  A    between atoms: O_6  and  C_8
REMARK    6  A    between atoms: C_14  and  C_15
REMARK                            x       y       z     vdW  Elec       q    Type
REMARK                         _______ _______ _______ _____ _____    ______ ____
ROOT
ATOM      1  C   UNL     1      34.699 -17.987 -23.032  0.00  0.00    +0.267 C 
ENDROOT
BRANCH   1   3
ATOM      2  O   UNL     1      34.854 -19.739 -24.713  0.00  0.00    -0.246 OA
ATOM      3  C   UNL     1      34.717 -18.555 -24.438  0.00  0.00    +0.355 C 
BRANCH   3   4
ATOM      4  O   UNL     1      34.541 -17.593 -25.380  0.00  0.00    -0.478 OA
ATOM      5  H   UNL     1      35.197 -16.935 -25.505  0.00  0.00    +0.295 HD
ENDBRANCH   3   4
ENDBRANCH   1   3
BRANCH   1   6
ATOM      6  O   UNL     1      35.580 -18.777 -22.241  0.00  0.00    -0.468 OA
BRANCH   6   8
ATOM      7 CL   UNL     1      33.100 -22.407 -18.349  0.00  0.00    -0.082 Cl
ATOM      8  C   UNL     1      35.002 -19.623 -21.332  0.00  0.00    +0.139 C 
ATOM      9  C   UNL     1      35.795 -20.518 -20.624  0.00  0.00    +0.038 C 
ATOM     10  C   UNL     1      33.627 -19.579 -21.129  0.00  0.00    +0.038 C 
ATOM     11  C   UNL     1      35.206 -21.381 -19.699  0.00  0.00    +0.015 C 
ATOM     12  C   UNL     1      33.038 -20.442 -20.205  0.00  0.00    +0.015 C 
ATOM     13  C   UNL     1      33.827 -21.343 -19.490  0.00  0.00    +0.058 C 
ENDBRANCH   6   8
ENDBRANCH   1   6
BRANCH   1  14
ATOM     14  C   UNL     1      35.194 -16.532 -23.010  0.00  0.00    +0.082 C 
BRANCH  14  15
ATOM     15  C   UNL     1      34.216 -15.604 -22.372  0.00  0.00    -0.018 C 
ATOM     16  C   UNL     1      33.595 -14.613 -23.133  0.00  0.00    -0.004 C 
ATOM     17  C   UNL     1      33.923 -15.725 -21.014  0.00  0.00    -0.004 C 
ATOM     18  C   UNL     1      32.681 -13.745 -22.536  0.00  0.00    -0.000 C 
ATOM     19  C   UNL     1      33.009 -14.857 -20.416  0.00  0.00    -0.000 C 
ATOM     20  C   UNL     1      32.388 -13.867 -21.178  0.00  0.00    -0.000 C 
ENDBRANCH  14  15
ENDBRANCH   1  14
TORSDOF 6
ENDMDL
MODEL 3
REMARK VINA RESULT:      -8.8      4.754      8.169
REMARK  Name = 11460087
REMARK  6 active torsions:
REMARK  status: ('A' for Active; 'I' for Inactive)
REMARK    1  A    between atoms: C_1  and  C_3
REMARK    2  A    between atoms: C_1  and  O_6
REMARK    3  A    between atoms: C_1  and  C_14
REMARK    4  A    between atoms: C_3  and  O_4
REMARK    5  A    between atoms: O_6  and  C_8
REMARK    6  A    between atoms: C_14  and  C_15
REMARK                            x       y       z     vdW  Elec       q    Type
REMARK                         _______ _______ _______ _____ _____    ______ ____
ROOT
ATOM      1  C   UNL     1      34.929 -22.676 -16.730  0.00  0.00    +0.267 C 
ENDROOT
BRANCH   1   3
ATOM      2  O   UNL     1      37.028 -21.511 -16.337  0.00  0.00    -0.246 OA
ATOM      3  C   UNL     1      36.392 -22.556 -16.353  0.00  0.00    +0.355 C 
BRANCH   3   4
ATOM      4  O   UNL     1      36.932 -23.755 -16.011  0.00  0.00    -0.478 OA
ATOM      5  H   UNL     1      37.111 -24.394 -16.672  0.00  0.00    +0.295 HD
ENDBRANCH   3   4
ENDBRANCH   1   3
BRANCH   1   6
ATOM      6  O   UNL     1      34.869 -23.023 -18.108  0.00  0.00    -0.468 OA
BRANCH   6   8
ATOM      7 CL   UNL     1      34.276 -18.603 -21.929  0.00  0.00    -0.082 Cl
ATOM      8  C   UNL     1      34.731 -21.991 -18.999  0.00  0.00    +0.139 C 
ATOM      9  C   UNL     1      33.461 -21.521 -19.316  0.00  0.00    +0.038 C 
ATOM     10  C   UNL     1      35.861 -21.425 -19.578  0.00  0.00    +0.038 C 
ATOM     11  C   UNL     1      33.320 -20.471 -20.224  0.00  0.00    +0.015 C 
ATOM     12  C   UNL     1      35.720 -20.375 -20.485  0.00  0.00    +0.015 C 
ATOM     13  C   UNL     1      34.450 -19.899 -20.809  0.00  0.00    +0.058 C 
ENDBRANCH   6   8
ENDBRANCH   1   6
BRANCH   1  14
ATOM     14  C   UNL     1      34.230 -23.778 -15.917  0.00  0.00    +0.082 C 
BRANCH  14  15
ATOM     15  C   UNL     1      32.809 -23.447 -15.606  0.00  0.00    -0.018 C 
ATOM     16  C   UNL     1      32.384 -23.375 -14.279  0.00  0.00    -0.004 C 
ATOM     17  C   UNL     1      31.905 -23.212 -16.642  0.00  0.00    -0.004 C 
ATOM     18  C   UNL     1      31.055 -23.066 -13.989  0.00  0.00    -0.000 C 
ATOM     19  C   UNL     1      30.576 -22.903 -16.351  0.00  0.00    -0.000 C 
ATOM     20  C   UNL     1      30.152 -22.831 -15.024  0.00  0.00    -0.000 C 
ENDBRANCH  14  15
ENDBRANCH   1  14
TORSDOF 6
ENDMDL
MODEL 4
REMARK VINA RESULT:      -8.5      3.468      6.536
REMARK  Name = 11460087
REMARK  6 active torsions:
REMARK  status: ('A' for Active; 'I' for Inactive)
REMARK    1  A    between atoms: C_1  and  C_3
REMARK    2  A    between atoms: C_1  and  O_6
REMARK    3  A    between atoms: C_1  and  C_14
REMARK    4  A    between atoms: C_3  and  O_4
REMARK    5  A    between atoms: O_6  and  C_8
REMARK    6  A    between atoms: C_14  and  C_15
REMARK                            x       y       z     vdW  Elec       q    Type
REMARK                         _______ _______ _______ _____ _____    ______ ____
ROOT
ATOM      1  C   UNL     1      34.652 -16.999 -22.060  0.00  0.00    +0.267 C 
ENDROOT
BRANCH   1   3
ATOM      2  O   UNL     1      35.042 -15.900 -19.924  0.00  0.00    -0.246 OA
ATOM      3  C   UNL     1      34.266 -16.230 -20.812  0.00  0.00    +0.355 C 
BRANCH   3   4
ATOM      4  O   UNL     1      32.943 -15.922 -20.790  0.00  0.00    -0.478 OA
ATOM      5  H   UNL     1      32.343 -16.399 -21.328  0.00  0.00    +0.295 HD
ENDBRANCH   3   4
ENDBRANCH   1   3
BRANCH   1   6
ATOM      6  O   UNL     1      35.332 -16.097 -22.925  0.00  0.00    -0.468 OA
BRANCH   6   8
ATOM      7 CL   UNL     1      32.120 -13.492 -27.093  0.00  0.00    -0.082 Cl
ATOM      8  C   UNL     1      34.582 -15.490 -23.897  0.00  0.00    +0.139 C 
ATOM      9  C   UNL     1      34.233 -16.198 -25.041  0.00  0.00    +0.038 C 
ATOM     10  C   UNL     1      34.178 -14.169 -23.730  0.00  0.00    +0.038 C 
ATOM     11  C   UNL     1      33.470 -15.580 -26.031  0.00  0.00    +0.015 C 
ATOM     12  C   UNL     1      33.415 -13.551 -24.721  0.00  0.00    +0.015 C 
ATOM     13  C   UNL     1      33.061 -14.256 -25.871  0.00  0.00    +0.058 C 
ENDBRANCH   6   8
ENDBRANCH   1   6
BRANCH   1  14
ATOM     14  C   UNL     1      35.597 -18.165 -21.729  0.00  0.00    +0.082 C 
BRANCH  14  15
ATOM     15  C   UNL     1      34.905 -19.281 -21.021  0.00  0.00    -0.018 C 
ATOM     16  C   UNL     1      35.649 -20.240 -20.334  0.00  0.00    -0.004 C 
ATOM     17  C   UNL     1      33.513 -19.365 -21.046  0.00  0.00    -0.004 C 
ATOM     18  C   UNL     1      35.002 -21.283 -19.672  0.00  0.00    -0.000 C 
ATOM     19  C   UNL     1      32.865 -20.409 -20.384  0.00  0.00    -0.000 C 
ATOM     20  C   UNL     1      33.610 -21.367 -19.697  0.00  0.00    -0.000 C 
ENDBRANCH  14  15
ENDBRANCH   1  14
TORSDOF 6
ENDMDL
MODEL 5
REMARK VINA RESULT:      -8.5      7.104      9.900
REMARK  Name = 11460087
REMARK  6 active torsions:
REMARK  status: ('A' for Active; 'I' for Inactive)
REMARK    1  A    between atoms: C_1  and  C_3
REMARK    2  A    between atoms: C_1  and  O_6
REMARK    3  A    between atoms: C_1  and  C_14
REMARK    4  A    between atoms: C_3  and  O_4
REMARK    5  A    between atoms: O_6  and  C_8
REMARK    6  A    between atoms: C_14  and  C_15
REMARK                            x       y       z     vdW  Elec       q    Type
REMARK                         _______ _______ _______ _____ _____    ______ ____
ROOT
ATOM      1  C   UNL     1      32.434  -8.394 -21.563  0.00  0.00    +0.267 C 
ENDROOT
BRANCH   1   3
ATOM      2  O   UNL     1      31.875  -9.166 -19.324  0.00  0.00    -0.246 OA
ATOM      3  C   UNL     1      32.450  -8.364 -20.048  0.00  0.00    +0.355 C 
BRANCH   3   4
ATOM      4  O   UNL     1      33.202  -7.340 -19.565  0.00  0.00    -0.478 OA
ATOM      5  H   UNL     1      33.799  -6.891 -20.130  0.00  0.00    +0.295 HD
ENDBRANCH   3   4
ENDBRANCH   1   3
BRANCH   1   6
ATOM      6  O   UNL     1      31.528  -9.417 -21.960  0.00  0.00    -0.468 OA
BRANCH   6   8
ATOM      7 CL   UNL     1      33.884 -14.410 -23.963  0.00  0.00    -0.082 Cl
ATOM      8  C   UNL     1      32.079 -10.582 -22.427  0.00  0.00    +0.139 C 
ATOM      9  C   UNL     1      33.015 -10.538 -23.454  0.00  0.00    +0.038 C 
ATOM     10  C   UNL     1      31.694 -11.796 -21.869  0.00  0.00    +0.038 C 
ATOM     11  C   UNL     1      33.574 -11.724 -23.930  0.00  0.00    +0.015 C 
ATOM     12  C   UNL     1      32.254 -12.982 -22.346  0.00  0.00    +0.015 C 
ATOM     13  C   UNL     1      33.193 -12.946 -23.375  0.00  0.00    +0.058 C 
ENDBRANCH   6   8
ENDBRANCH   1   6
BRANCH   1  14
ATOM     14  C   UNL     1      31.948  -7.058 -22.146  0.00  0.00    +0.082 C 
BRANCH  14  15
ATOM     15  C   UNL     1      32.697  -6.660 -23.372  0.00  0.00    -0.018 C 
ATOM     16  C   UNL     1      32.119  -5.784 -24.291  0.00  0.00    -0.004 C 
ATOM     17  C   UNL     1      33.976  -7.166 -23.602  0.00  0.00    -0.004 C 
ATOM     18  C   UNL     1      32.820  -5.413 -25.438  0.00  0.00    -0.000 C 
ATOM     19  C   UNL     1      34.678  -6.795 -24.750  0.00  0.00    -0.000 C 
ATOM     20  C   UNL     1      34.099  -5.919 -25.668  0.00  0.00    -0.000 C 
ENDBRANCH  14  15
ENDBRANCH   1  14
TORSDOF 6
ENDMDL
MODEL 6
REMARK VINA RESULT:      -8.4      6.913      9.634
REMARK  Name = 11460087
REMARK  6 active torsions:
REMARK  status: ('A' for Active; 'I' for Inactive)
REMARK    1  A    between atoms: C_1  and  C_3
REMARK    2  A    between atoms: C_1  and  O_6
REMARK    3  A    between atoms: C_1  and  C_14
REMARK    4  A    between atoms: C_3  and  O_4
REMARK    5  A    between atoms: O_6  and  C_8
REMARK    6  A    between atoms: C_14  and  C_15
REMARK                            x       y       z     vdW  Elec       q    Type
REMARK                         _______ _______ _______ _____ _____    ______ ____
ROOT
ATOM      1  C   UNL     1      32.326  -8.689 -21.575  0.00  0.00    +0.267 C 
ENDROOT
BRANCH   1   3
ATOM      2  O   UNL     1      31.916  -9.346 -19.268  0.00  0.00    -0.246 OA
ATOM      3  C   UNL     1      32.405  -8.558 -20.067  0.00  0.00    +0.355 C 
BRANCH   3   4
ATOM      4  O   UNL     1      33.109  -7.460 -19.685  0.00  0.00    -0.478 OA
ATOM      5  H   UNL     1      34.020  -7.535 -19.483  0.00  0.00    +0.295 HD
ENDBRANCH   3   4
ENDBRANCH   1   3
BRANCH   1   6
ATOM      6  O   UNL     1      31.460  -9.780 -21.864  0.00  0.00    -0.468 OA
BRANCH   6   8
ATOM      7 CL   UNL     1      33.974 -14.674 -23.915  0.00  0.00    -0.082 Cl
ATOM      8  C   UNL     1      32.045 -10.922 -22.343  0.00  0.00    +0.139 C 
ATOM      9  C   UNL     1      31.723 -12.150 -21.778  0.00  0.00    +0.038 C 
ATOM     10  C   UNL     1      32.958 -10.841 -23.390  0.00  0.00    +0.038 C 
ATOM     11  C   UNL     1      32.321 -13.313 -22.265  0.00  0.00    +0.015 C 
ATOM     12  C   UNL     1      33.555 -12.004 -23.877  0.00  0.00    +0.015 C 
ATOM     13  C   UNL     1      33.237 -13.239 -23.315  0.00  0.00    +0.058 C 
ENDBRANCH   6   8
ENDBRANCH   1   6
BRANCH   1  14
ATOM     14  C   UNL     1      31.744  -7.419 -22.217  0.00  0.00    +0.082 C 
BRANCH  14  15
ATOM     15  C   UNL     1      32.572  -6.921 -23.353  0.00  0.00    -0.018 C 
ATOM     16  C   UNL     1      33.885  -7.365 -23.508  0.00  0.00    -0.004 C 
ATOM     17  C   UNL     1      32.034  -6.009 -24.261  0.00  0.00    -0.004 C 
ATOM     18  C   UNL     1      34.659  -6.899 -24.570  0.00  0.00    -0.000 C 
ATOM     19  C   UNL     1      32.808  -5.542 -25.324  0.00  0.00    -0.000 C 
ATOM     20  C   UNL     1      34.121  -5.987 -25.477  0.00  0.00    -0.000 C 
ENDBRANCH  14  15
ENDBRANCH   1  14
TORSDOF 6
ENDMDL
MODEL 7
REMARK VINA RESULT:      -8.4      2.371      5.492
REMARK  Name = 11460087
REMARK  6 active torsions:
REMARK  status: ('A' for Active; 'I' for Inactive)
REMARK    1  A    between atoms: C_1  and  C_3
REMARK    2  A    between atoms: C_1  and  O_6
REMARK    3  A    between atoms: C_1  and  C_14
REMARK    4  A    between atoms: C_3  and  O_4
REMARK    5  A    between atoms: O_6  and  C_8
REMARK    6  A    between atoms: C_14  and  C_15
REMARK                            x       y       z     vdW  Elec       q    Type
REMARK                         _______ _______ _______ _____ _____    ______ ____
ROOT
ATOM      1  C   UNL     1      35.157 -18.164 -23.118  0.00  0.00    +0.267 C 
ENDROOT
BRANCH   1   3
ATOM      2  O   UNL     1      34.264 -17.901 -25.366  0.00  0.00    -0.246 OA
ATOM      3  C   UNL     1      34.706 -18.630 -24.487  0.00  0.00    +0.355 C 
BRANCH   3   4
ATOM      4  O   UNL     1      34.863 -19.970 -24.649  0.00  0.00    -0.478 OA
ATOM      5  H   UNL     1      34.298 -20.440 -25.230  0.00  0.00    +0.295 HD
ENDBRANCH   3   4
ENDBRANCH   1   3
BRANCH   1   6
ATOM      6  O   UNL     1      35.499 -16.787 -23.227  0.00  0.00    -0.468 OA
BRANCH   6   8
ATOM      7 CL   UNL     1      32.008 -12.973 -20.443  0.00  0.00    -0.082 Cl
ATOM      8  C   UNL     1      34.686 -15.896 -22.577  0.00  0.00    +0.139 C 
ATOM      9  C   UNL     1      34.797 -15.738 -21.201  0.00  0.00    +0.038 C 
ATOM     10  C   UNL     1      33.754 -15.160 -23.302  0.00  0.00    +0.038 C 
ATOM     11  C   UNL     1      33.968 -14.832 -20.539  0.00  0.00    +0.015 C 
ATOM     12  C   UNL     1      32.925 -14.254 -22.640  0.00  0.00    +0.015 C 
ATOM     13  C   UNL     1      33.032 -14.090 -21.259  0.00  0.00    +0.058 C 
ENDBRANCH   6   8
ENDBRANCH   1   6
BRANCH   1  14
ATOM     14  C   UNL     1      34.033 -18.308 -22.079  0.00  0.00    +0.082 C 
BRANCH  14  15
ATOM     15  C   UNL     1      34.253 -19.455 -21.152  0.00  0.00    -0.018 C 
ATOM     16  C   UNL     1      33.162 -20.113 -20.583  0.00  0.00    -0.004 C 
ATOM     17  C   UNL     1      35.551 -19.869 -20.851  0.00  0.00    -0.004 C 
ATOM     18  C   UNL     1      33.369 -21.185 -19.716  0.00  0.00    -0.000 C 
ATOM     19  C   UNL     1      35.757 -20.942 -19.983  0.00  0.00    -0.000 C 
ATOM     20  C   UNL     1      34.666 -21.600 -19.416  0.00  0.00    -0.000 C 
ENDBRANCH  14  15
ENDBRANCH   1  14
TORSDOF 6
ENDMDL
MODEL 8
REMARK VINA RESULT:      -8.4      2.474      5.636
REMARK  Name = 11460087
REMARK  6 active torsions:
REMARK  status: ('A' for Active; 'I' for Inactive)
REMARK    1  A    between atoms: C_1  and  C_3
REMARK    2  A    between atoms: C_1  and  O_6
REMARK    3  A    between atoms: C_1  and  C_14
REMARK    4  A    between atoms: C_3  and  O_4
REMARK    5  A    between atoms: O_6  and  C_8
REMARK    6  A    between atoms: C_14  and  C_15
REMARK                            x       y       z     vdW  Elec       q    Type
REMARK                         _______ _______ _______ _____ _____    ______ ____
ROOT
ATOM      1  C   UNL     1      35.211 -17.735 -23.189  0.00  0.00    +0.267 C 
ENDROOT
BRANCH   1   3
ATOM      2  O   UNL     1      34.704 -17.335 -25.535  0.00  0.00    -0.246 OA
ATOM      3  C   UNL     1      34.818 -18.119 -24.602  0.00  0.00    +0.355 C 
BRANCH   3   4
ATOM      4  O   UNL     1      34.620 -19.457 -24.732  0.00  0.00    -0.478 OA
ATOM      5  H   UNL     1      35.100 -20.055 -24.196  0.00  0.00    +0.295 HD
ENDBRANCH   3   4
ENDBRANCH   1   3
BRANCH   1   6
ATOM      6  O   UNL     1      35.545 -16.352 -23.200  0.00  0.00    -0.468 OA
BRANCH   6   8
ATOM      7 CL   UNL     1      31.640 -12.666 -20.824  0.00  0.00    -0.082 Cl
ATOM      8  C   UNL     1      34.633 -15.493 -22.645  0.00  0.00    +0.139 C 
ATOM      9  C   UNL     1      33.786 -14.762 -23.471  0.00  0.00    +0.038 C 
ATOM     10  C   UNL     1      34.565 -15.359 -21.263  0.00  0.00    +0.038 C 
ATOM     11  C   UNL     1      32.858 -13.886 -22.907  0.00  0.00    +0.015 C 
ATOM     12  C   UNL     1      33.637 -14.483 -20.699  0.00  0.00    +0.015 C 
ATOM     13  C   UNL     1      32.784 -13.747 -21.520  0.00  0.00    +0.058 C 
ENDBRANCH   6   8
ENDBRANCH   1   6
BRANCH   1  14
ATOM     14  C   UNL     1      34.048 -17.950 -22.207  0.00  0.00    +0.082 C 
BRANCH  14  15
ATOM     15  C   UNL     1      34.261 -19.127 -21.316  0.00  0.00    -0.018 C 
ATOM     16  C   UNL     1      35.555 -19.566 -21.037  0.00  0.00    -0.004 C 
ATOM     17  C   UNL     1      33.165 -19.789 -20.763  0.00  0.00    -0.004 C 
ATOM     18  C   UNL     1      35.754 -20.667 -20.204  0.00  0.00    -0.000 C 
ATOM     19  C   UNL     1      33.364 -20.890 -19.929  0.00  0.00    -0.000 C 
ATOM     20  C   UNL     1      34.658 -21.329 -19.651  0.00  0.00    -0.000 C 
ENDBRANCH  14  15
ENDBRANCH   1  14
TORSDOF 6
ENDMDL
MODEL 9
REMARK VINA RESULT:      -8.3      2.296      3.705
REMARK  Name = 11460087
REMARK  6 active torsions:
REMARK  status: ('A' for Active; 'I' for Inactive)
REMARK    1  A    between atoms: C_1  and  C_3
REMARK    2  A    between atoms: C_1  and  O_6
REMARK    3  A    between atoms: C_1  and  C_14
REMARK    4  A    between atoms: C_3  and  O_4
REMARK    5  A    between atoms: O_6  and  C_8
REMARK    6  A    between atoms: C_14  and  C_15
REMARK                            x       y       z     vdW  Elec       q    Type
REMARK                         _______ _______ _______ _____ _____    ______ ____
ROOT
ATOM      1  C   UNL     1      33.641 -14.742 -24.281  0.00  0.00    +0.267 C 
ENDROOT
BRANCH   1   3
ATOM      2  O   UNL     1      33.727 -15.990 -26.368  0.00  0.00    -0.246 OA
ATOM      3  C   UNL     1      33.227 -15.097 -25.695  0.00  0.00    +0.355 C 
BRANCH   3   4
ATOM      4  O   UNL     1      32.210 -14.317 -26.142  0.00  0.00    -0.478 OA
ATOM      5  H   UNL     1      31.796 -14.511 -26.960  0.00  0.00    +0.295 HD
ENDBRANCH   3   4
ENDBRANCH   1   3
BRANCH   1   6
ATOM      6  O   UNL     1      34.883 -15.387 -24.023  0.00  0.00    -0.468 OA
BRANCH   6   8
ATOM      7 CL   UNL     1      34.727 -20.124 -20.558  0.00  0.00    -0.082 Cl
ATOM      8  C   UNL     1      34.848 -16.492 -23.215  0.00  0.00    +0.139 C 
ATOM      9  C   UNL     1      35.021 -17.756 -23.768  0.00  0.00    +0.038 C 
ATOM     10  C   UNL     1      34.637 -16.339 -21.849  0.00  0.00    +0.038 C 
ATOM     11  C   UNL     1      34.984 -18.882 -22.945  0.00  0.00    +0.015 C 
ATOM     12  C   UNL     1      34.601 -17.465 -21.026  0.00  0.00    +0.015 C 
ATOM     13  C   UNL     1      34.773 -18.736 -21.573  0.00  0.00    +0.058 C 
ENDBRANCH   6   8
ENDBRANCH   1   6
BRANCH   1  14
ATOM     14  C   UNL     1      33.835 -13.226 -24.118  0.00  0.00    +0.082 C 
BRANCH  14  15
ATOM     15  C   UNL     1      32.991 -12.653 -23.030  0.00  0.00    -0.018 C 
ATOM     16  C   UNL     1      32.565 -11.327 -23.101  0.00  0.00    -0.004 C 
ATOM     17  C   UNL     1      32.629 -13.444 -21.940  0.00  0.00    -0.004 C 
ATOM     18  C   UNL     1      31.776 -10.792 -22.083  0.00  0.00    -0.000 C 
ATOM     19  C   UNL     1      31.840 -12.908 -20.921  0.00  0.00    -0.000 C 
ATOM     20  C   UNL     1      31.414 -11.582 -20.993  0.00  0.00    -0.000 C 
ENDBRANCH  14  15
ENDBRANCH   1  14
TORSDOF 6
ENDMDL
