MODEL 1
REMARK VINA RESULT:      -6.3      0.000      0.000
REMARK  Name = 3777900
REMARK  4 active torsions:
REMARK  status: ('A' for Active; 'I' for Inactive)
REMARK    1  A    between atoms: C_4  and  O_11
REMARK    2  A    between atoms: O_11  and  C_12
REMARK    3  A    between atoms: C_12  and  C_13
REMARK    4  A    between atoms: C_13  and  O_14
REMARK                            x       y       z     vdW  Elec       q    Type
REMARK                         _______ _______ _______ _____ _____    ______ ____
ROOT
ATOM      1  N   UNL     1      35.318 -17.252 -20.666  0.00  0.00    -0.295 NA
ATOM      2  N   UNL     1      34.564 -16.401 -22.790  0.00  0.00    -0.337 NA
ATOM      3  N   UNL     1      34.450 -15.080 -20.855  0.00  0.00    -0.283 N 
ATOM      4  C   UNL     1      35.636 -18.408 -21.284  0.00  0.00    +0.272 C 
ATOM      5  C   UNL     1      34.905 -17.584 -23.343  0.00  0.00    +0.111 C 
ATOM      6  C   UNL     1      35.449 -18.634 -22.633  0.00  0.00    +0.155 C 
ATOM      7  C   UNL     1      34.665 -17.734 -24.808  0.00  0.00    +0.063 C 
ATOM      8  C   UNL     1      34.794 -16.305 -21.467  0.00  0.00    +0.198 C 
ATOM      9  H   UNL     1      34.596 -14.955 -19.889  0.00  0.00    +0.156 HD
ATOM     10  H   UNL     1      34.062 -14.353 -21.393  0.00  0.00    +0.156 HD
ENDROOT
BRANCH   4  11
ATOM     11  O   UNL     1      36.173 -19.402 -20.509  0.00  0.00    -0.451 OA
BRANCH  11  12
ATOM     12  C   UNL     1      35.357 -20.545 -20.278  0.00  0.00    +0.240 C 
BRANCH  12  13
ATOM     13  C   UNL     1      36.079 -21.485 -19.332  0.00  0.00    +0.189 C 
BRANCH  13  14
ATOM     14  O   UNL     1      35.150 -22.432 -18.821  0.00  0.00    -0.347 OA
ATOM     15  C   UNL     1      33.832 -22.172 -19.284  0.00  0.00    +0.174 C 
ENDBRANCH  13  14
ENDBRANCH  12  13
ENDBRANCH  11  12
ENDBRANCH   4  11
TORSDOF 4
ENDMDL
MODEL 2
REMARK VINA RESULT:      -6.2      3.744      4.940
REMARK  Name = 3777900
REMARK  4 active torsions:
REMARK  status: ('A' for Active; 'I' for Inactive)
REMARK    1  A    between atoms: C_4  and  O_11
REMARK    2  A    between atoms: O_11  and  C_12
REMARK    3  A    between atoms: C_12  and  C_13
REMARK    4  A    between atoms: C_13  and  O_14
REMARK                            x       y       z     vdW  Elec       q    Type
REMARK                         _______ _______ _______ _____ _____    ______ ____
ROOT
ATOM      1  N   UNL     1      33.040 -21.789 -19.482  0.00  0.00    -0.295 NA
ATOM      2  N   UNL     1      34.558 -20.199 -20.469  0.00  0.00    -0.337 NA
ATOM      3  N   UNL     1      32.246 -20.040 -20.830  0.00  0.00    -0.283 N 
ATOM      4  C   UNL     1      34.104 -22.402 -18.925  0.00  0.00    +0.272 C 
ATOM      5  C   UNL     1      35.576 -20.862 -19.881  0.00  0.00    +0.111 C 
ATOM      6  C   UNL     1      35.408 -21.981 -19.091  0.00  0.00    +0.155 C 
ATOM      7  C   UNL     1      36.950 -20.332 -20.120  0.00  0.00    +0.063 C 
ATOM      8  C   UNL     1      33.335 -20.709 -20.231  0.00  0.00    +0.198 C 
ATOM      9  H   UNL     1      31.328 -20.370 -20.691  0.00  0.00    +0.156 HD
ATOM     10  H   UNL     1      32.403 -19.245 -21.389  0.00  0.00    +0.156 HD
ENDROOT
BRANCH   4  11
ATOM     11  O   UNL     1      33.853 -23.507 -18.153  0.00  0.00    -0.451 OA
BRANCH  11  12
ATOM     12  C   UNL     1      33.035 -23.312 -17.005  0.00  0.00    +0.240 C 
BRANCH  12  13
ATOM     13  C   UNL     1      33.874 -23.523 -15.759  0.00  0.00    +0.189 C 
BRANCH  13  14
ATOM     14  O   UNL     1      35.055 -24.234 -16.109  0.00  0.00    -0.347 OA
ATOM     15  C   UNL     1      35.533 -25.018 -15.025  0.00  0.00    +0.174 C 
ENDBRANCH  13  14
ENDBRANCH  12  13
ENDBRANCH  11  12
ENDBRANCH   4  11
TORSDOF 4
ENDMDL
MODEL 3
REMARK VINA RESULT:      -6.2      8.331      9.806
REMARK  Name = 3777900
REMARK  4 active torsions:
REMARK  status: ('A' for Active; 'I' for Inactive)
REMARK    1  A    between atoms: C_4  and  O_11
REMARK    2  A    between atoms: O_11  and  C_12
REMARK    3  A    between atoms: C_12  and  C_13
REMARK    4  A    between atoms: C_13  and  O_14
REMARK                            x       y       z     vdW  Elec       q    Type
REMARK                         _______ _______ _______ _____ _____    ______ ____
ROOT
ATOM      1  N   UNL     1      30.132 -23.952 -15.101  0.00  0.00    -0.295 NA
ATOM      2  N   UNL     1      32.470 -24.198 -14.572  0.00  0.00    -0.337 NA
ATOM      3  N   UNL     1      30.819 -25.123 -13.187  0.00  0.00    -0.283 N 
ATOM      4  C   UNL     1      30.492 -23.253 -16.197  0.00  0.00    +0.272 C 
ATOM      5  C   UNL     1      32.758 -23.491 -15.685  0.00  0.00    +0.111 C 
ATOM      6  C   UNL     1      31.802 -22.989 -16.543  0.00  0.00    +0.155 C 
ATOM      7  C   UNL     1      34.202 -23.255 -15.976  0.00  0.00    +0.063 C 
ATOM      8  C   UNL     1      31.157 -24.388 -14.343  0.00  0.00    +0.198 C 
ATOM      9  H   UNL     1      29.873 -25.292 -12.970  0.00  0.00    +0.156 HD
ATOM     10  H   UNL     1      31.528 -25.466 -12.596  0.00  0.00    +0.156 HD
ENDROOT
BRANCH   4  11
ATOM     11  O   UNL     1      29.483 -22.789 -16.999  0.00  0.00    -0.451 OA
BRANCH  11  12
ATOM     12  C   UNL     1      28.207 -23.397 -16.839  0.00  0.00    +0.240 C 
BRANCH  12  13
ATOM     13  C   UNL     1      27.213 -22.346 -16.379  0.00  0.00    +0.189 C 
BRANCH  13  14
ATOM     14  O   UNL     1      27.195 -21.281 -17.321  0.00  0.00    -0.347 OA
ATOM     15  C   UNL     1      25.903 -21.110 -17.888  0.00  0.00    +0.174 C 
ENDBRANCH  13  14
ENDBRANCH  12  13
ENDBRANCH  11  12
ENDBRANCH   4  11
TORSDOF 4
ENDMDL
MODEL 4
REMARK VINA RESULT:      -6.2      1.610      2.678
REMARK  Name = 3777900
REMARK  4 active torsions:
REMARK  status: ('A' for Active; 'I' for Inactive)
REMARK    1  A    between atoms: C_4  and  O_11
REMARK    2  A    between atoms: O_11  and  C_12
REMARK    3  A    between atoms: C_12  and  C_13
REMARK    4  A    between atoms: C_13  and  O_14
REMARK                            x       y       z     vdW  Elec       q    Type
REMARK                         _______ _______ _______ _____ _____    ______ ____
ROOT
ATOM      1  N   UNL     1      35.007 -18.329 -23.459  0.00  0.00    -0.295 NA
ATOM      2  N   UNL     1      34.815 -15.975 -22.981  0.00  0.00    -0.337 NA
ATOM      3  N   UNL     1      35.065 -16.740 -25.184  0.00  0.00    -0.283 N 
ATOM      4  C   UNL     1      34.902 -18.568 -22.136  0.00  0.00    +0.272 C 
ATOM      5  C   UNL     1      34.715 -16.287 -21.672  0.00  0.00    +0.111 C 
ATOM      6  C   UNL     1      34.753 -17.578 -21.186  0.00  0.00    +0.155 C 
ATOM      7  C   UNL     1      34.558 -15.149 -20.720  0.00  0.00    +0.063 C 
ATOM      8  C   UNL     1      34.958 -17.029 -23.807  0.00  0.00    +0.198 C 
ATOM      9  H   UNL     1      35.171 -17.472 -25.834  0.00  0.00    +0.156 HD
ATOM     10  H   UNL     1      35.035 -15.806 -25.495  0.00  0.00    +0.156 HD
ENDROOT
BRANCH   4  11
ATOM     11  O   UNL     1      34.947 -19.877 -21.733  0.00  0.00    -0.451 OA
BRANCH  11  12
ATOM     12  C   UNL     1      34.476 -20.159 -20.421  0.00  0.00    +0.240 C 
BRANCH  12  13
ATOM     13  C   UNL     1      33.001 -20.511 -20.490  0.00  0.00    +0.189 C 
BRANCH  13  14
ATOM     14  O   UNL     1      32.810 -21.814 -19.952  0.00  0.00    -0.347 OA
ATOM     15  C   UNL     1      33.888 -22.192 -19.107  0.00  0.00    +0.174 C 
ENDBRANCH  13  14
ENDBRANCH  12  13
ENDBRANCH  11  12
ENDBRANCH   4  11
TORSDOF 4
ENDMDL
MODEL 5
REMARK VINA RESULT:      -6.1      3.033      5.812
REMARK  Name = 3777900
REMARK  4 active torsions:
REMARK  status: ('A' for Active; 'I' for Inactive)
REMARK    1  A    between atoms: C_4  and  O_11
REMARK    2  A    between atoms: O_11  and  C_12
REMARK    3  A    between atoms: C_12  and  C_13
REMARK    4  A    between atoms: C_13  and  O_14
REMARK                            x       y       z     vdW  Elec       q    Type
REMARK                         _______ _______ _______ _____ _____    ______ ____
ROOT
ATOM      1  N   UNL     1      34.485 -16.575 -22.506  0.00  0.00    -0.295 NA
ATOM      2  N   UNL     1      35.426 -17.667 -20.575  0.00  0.00    -0.337 NA
ATOM      3  N   UNL     1      34.633 -15.463 -20.445  0.00  0.00    -0.283 N 
ATOM      4  C   UNL     1      34.716 -17.702 -23.210  0.00  0.00    +0.272 C 
ATOM      5  C   UNL     1      35.628 -18.761 -21.338  0.00  0.00    +0.111 C 
ATOM      6  C   UNL     1      35.291 -18.838 -22.674  0.00  0.00    +0.155 C 
ATOM      7  C   UNL     1      36.255 -19.939 -20.671  0.00  0.00    +0.063 C 
ATOM      8  C   UNL     1      34.860 -16.625 -21.213  0.00  0.00    +0.198 C 
ATOM      9  H   UNL     1      34.222 -14.670 -20.862  0.00  0.00    +0.156 HD
ATOM     10  H   UNL     1      34.888 -15.443 -19.495  0.00  0.00    +0.156 HD
ENDROOT
BRANCH   4  11
ATOM     11  O   UNL     1      34.352 -17.699 -24.530  0.00  0.00    -0.451 OA
BRANCH  11  12
ATOM     12  C   UNL     1      34.741 -16.567 -25.299  0.00  0.00    +0.240 C 
BRANCH  12  13
ATOM     13  C   UNL     1      33.521 -15.706 -25.564  0.00  0.00    +0.189 C 
BRANCH  13  14
ATOM     14  O   UNL     1      33.645 -15.109 -26.849  0.00  0.00    -0.347 OA
ATOM     15  C   UNL     1      33.150 -13.777 -26.856  0.00  0.00    +0.174 C 
ENDBRANCH  13  14
ENDBRANCH  12  13
ENDBRANCH  11  12
ENDBRANCH   4  11
TORSDOF 4
ENDMDL
MODEL 6
REMARK VINA RESULT:      -6.1      1.852      2.876
REMARK  Name = 3777900
REMARK  4 active torsions:
REMARK  status: ('A' for Active; 'I' for Inactive)
REMARK    1  A    between atoms: C_4  and  O_11
REMARK    2  A    between atoms: O_11  and  C_12
REMARK    3  A    between atoms: C_12  and  C_13
REMARK    4  A    between atoms: C_13  and  O_14
REMARK                            x       y       z     vdW  Elec       q    Type
REMARK                         _______ _______ _______ _____ _____    ______ ____
ROOT
ATOM      1  N   UNL     1      35.271 -17.215 -22.893  0.00  0.00    -0.295 NA
ATOM      2  N   UNL     1      33.820 -15.413 -23.567  0.00  0.00    -0.337 NA
ATOM      3  N   UNL     1      35.051 -16.625 -25.154  0.00  0.00    -0.283 N 
ATOM      4  C   UNL     1      34.909 -16.978 -21.616  0.00  0.00    +0.272 C 
ATOM      5  C   UNL     1      33.504 -15.231 -22.268  0.00  0.00    +0.111 C 
ATOM      6  C   UNL     1      34.022 -15.990 -21.239  0.00  0.00    +0.155 C 
ATOM      7  C   UNL     1      32.536 -14.138 -21.959  0.00  0.00    +0.063 C 
ATOM      8  C   UNL     1      34.697 -16.406 -23.805  0.00  0.00    +0.198 C 
ATOM      9  H   UNL     1      35.689 -17.339 -25.386  0.00  0.00    +0.156 HD
ATOM     10  H   UNL     1      34.663 -16.063 -25.862  0.00  0.00    +0.156 HD
ENDROOT
BRANCH   4  11
ATOM     11  O   UNL     1      35.468 -17.776 -20.651  0.00  0.00    -0.451 OA
BRANCH  11  12
ATOM     12  C   UNL     1      36.173 -18.926 -21.103  0.00  0.00    +0.240 C 
BRANCH  12  13
ATOM     13  C   UNL     1      35.457 -20.170 -20.610  0.00  0.00    +0.189 C 
BRANCH  13  14
ATOM     14  O   UNL     1      34.110 -20.141 -21.066  0.00  0.00    -0.347 OA
ATOM     15  C   UNL     1      33.207 -20.556 -20.051  0.00  0.00    +0.174 C 
ENDBRANCH  13  14
ENDBRANCH  12  13
ENDBRANCH  11  12
ENDBRANCH   4  11
TORSDOF 4
ENDMDL
MODEL 7
REMARK VINA RESULT:      -6.0      6.756      9.601
REMARK  Name = 3777900
REMARK  4 active torsions:
REMARK  status: ('A' for Active; 'I' for Inactive)
REMARK    1  A    between atoms: C_4  and  O_11
REMARK    2  A    between atoms: O_11  and  C_12
REMARK    3  A    between atoms: C_12  and  C_13
REMARK    4  A    between atoms: C_13  and  O_14
REMARK                            x       y       z     vdW  Elec       q    Type
REMARK                         _______ _______ _______ _____ _____    ______ ____
ROOT
ATOM      1  N   UNL     1      36.356 -25.184 -15.287  0.00  0.00    -0.295 NA
ATOM      2  N   UNL     1      38.286 -26.473 -14.643  0.00  0.00    -0.337 NA
ATOM      3  N   UNL     1      36.186 -27.489 -14.886  0.00  0.00    -0.283 N 
ATOM      4  C   UNL     1      37.146 -24.092 -15.330  0.00  0.00    +0.272 C 
ATOM      5  C   UNL     1      39.017 -25.341 -14.706  0.00  0.00    +0.111 C 
ATOM      6  C   UNL     1      38.496 -24.110 -15.046  0.00  0.00    +0.155 C 
ATOM      7  C   UNL     1      40.469 -25.459 -14.381  0.00  0.00    +0.063 C 
ATOM      8  C   UNL     1      36.982 -26.325 -14.941  0.00  0.00    +0.198 C 
ATOM      9  H   UNL     1      35.225 -27.439 -15.094  0.00  0.00    +0.156 HD
ATOM     10  H   UNL     1      36.592 -28.351 -14.638  0.00  0.00    +0.156 HD
ENDROOT
BRANCH   4  11
ATOM     11  O   UNL     1      36.553 -22.906 -15.678  0.00  0.00    -0.451 OA
BRANCH  11  12
ATOM     12  C   UNL     1      37.372 -21.952 -16.344  0.00  0.00    +0.240 C 
BRANCH  12  13
ATOM     13  C   UNL     1      36.774 -21.652 -17.705  0.00  0.00    +0.189 C 
BRANCH  13  14
ATOM     14  O   UNL     1      35.568 -22.391 -17.855  0.00  0.00    -0.347 OA
ATOM     15  C   UNL     1      34.912 -22.075 -19.076  0.00  0.00    +0.174 C 
ENDBRANCH  13  14
ENDBRANCH  12  13
ENDBRANCH  11  12
ENDBRANCH   4  11
TORSDOF 4
ENDMDL
MODEL 8
REMARK VINA RESULT:      -6.0      2.602      5.289
REMARK  Name = 3777900
REMARK  4 active torsions:
REMARK  status: ('A' for Active; 'I' for Inactive)
REMARK    1  A    between atoms: C_4  and  O_11
REMARK    2  A    between atoms: O_11  and  C_12
REMARK    3  A    between atoms: C_12  and  C_13
REMARK    4  A    between atoms: C_13  and  O_14
REMARK                            x       y       z     vdW  Elec       q    Type
REMARK                         _______ _______ _______ _____ _____    ______ ____
ROOT
ATOM      1  N   UNL     1      34.130 -19.274 -21.605  0.00  0.00    -0.295 NA
ATOM      2  N   UNL     1      34.488 -20.872 -19.838  0.00  0.00    -0.337 NA
ATOM      3  N   UNL     1      32.326 -20.407 -20.620  0.00  0.00    -0.283 N 
ATOM      4  C   UNL     1      35.463 -19.076 -21.646  0.00  0.00    +0.272 C 
ATOM      5  C   UNL     1      35.811 -20.624 -19.932  0.00  0.00    +0.111 C 
ATOM      6  C   UNL     1      36.361 -19.728 -20.825  0.00  0.00    +0.155 C 
ATOM      7  C   UNL     1      36.704 -21.377 -19.004  0.00  0.00    +0.063 C 
ATOM      8  C   UNL     1      33.716 -20.173 -20.691  0.00  0.00    +0.198 C 
ATOM      9  H   UNL     1      31.714 -19.923 -21.221  0.00  0.00    +0.156 HD
ATOM     10  H   UNL     1      31.969 -21.054 -19.970  0.00  0.00    +0.156 HD
ENDROOT
BRANCH   4  11
ATOM     11  O   UNL     1      35.931 -18.169 -22.561  0.00  0.00    -0.451 OA
BRANCH  11  12
ATOM     12  C   UNL     1      35.284 -18.147 -23.827  0.00  0.00    +0.240 C 
BRANCH  12  13
ATOM     13  C   UNL     1      34.901 -16.717 -24.161  0.00  0.00    +0.189 C 
BRANCH  13  14
ATOM     14  O   UNL     1      35.374 -15.858 -23.131  0.00  0.00    -0.347 OA
ATOM     15  C   UNL     1      34.430 -14.840 -22.828  0.00  0.00    +0.174 C 
ENDBRANCH  13  14
ENDBRANCH  12  13
ENDBRANCH  11  12
ENDBRANCH   4  11
TORSDOF 4
ENDMDL
MODEL 9
REMARK VINA RESULT:      -6.0      4.413      7.007
REMARK  Name = 3777900
REMARK  4 active torsions:
REMARK  status: ('A' for Active; 'I' for Inactive)
REMARK    1  A    between atoms: C_4  and  O_11
REMARK    2  A    between atoms: O_11  and  C_12
REMARK    3  A    between atoms: C_12  and  C_13
REMARK    4  A    between atoms: C_13  and  O_14
REMARK                            x       y       z     vdW  Elec       q    Type
REMARK                         _______ _______ _______ _____ _____    ______ ____
ROOT
ATOM      1  N   UNL     1      34.138 -15.298 -24.020  0.00  0.00    -0.295 NA
ATOM      2  N   UNL     1      34.829 -17.261 -22.807  0.00  0.00    -0.337 NA
ATOM      3  N   UNL     1      34.616 -15.190 -21.726  0.00  0.00    -0.283 N 
ATOM      4  C   UNL     1      34.060 -16.058 -25.132  0.00  0.00    +0.272 C 
ATOM      5  C   UNL     1      34.730 -17.961 -23.956  0.00  0.00    +0.111 C 
ATOM      6  C   UNL     1      34.348 -17.408 -25.160  0.00  0.00    +0.155 C 
ATOM      7  C   UNL     1      35.062 -19.414 -23.888  0.00  0.00    +0.063 C 
ATOM      8  C   UNL     1      34.524 -15.954 -22.909  0.00  0.00    +0.198 C 
ATOM      9  H   UNL     1      34.404 -14.228 -21.742  0.00  0.00    +0.156 HD
ATOM     10  H   UNL     1      34.893 -15.619 -20.884  0.00  0.00    +0.156 HD
ENDROOT
BRANCH   4  11
ATOM     11  O   UNL     1      33.672 -15.434 -26.288  0.00  0.00    -0.451 OA
BRANCH  11  12
ATOM     12  C   UNL     1      32.934 -14.226 -26.146  0.00  0.00    +0.240 C 
BRANCH  12  13
ATOM     13  C   UNL     1      33.333 -13.269 -27.254  0.00  0.00    +0.189 C 
BRANCH  13  14
ATOM     14  O   UNL     1      34.017 -12.160 -26.685  0.00  0.00    -0.347 OA
ATOM     15  C   UNL     1      33.711 -12.011 -25.306  0.00  0.00    +0.174 C 
ENDBRANCH  13  14
ENDBRANCH  12  13
ENDBRANCH  11  12
ENDBRANCH   4  11
TORSDOF 4
ENDMDL
