MODEL 1
REMARK VINA RESULT:      -9.1      0.000      0.000
REMARK  Name = 25271555
REMARK  5 active torsions:
REMARK  status: ('A' for Active; 'I' for Inactive)
REMARK    1  A    between atoms: N_2  and  C_12
REMARK    2  A    between atoms: N_2  and  C_19
REMARK    3  A    between atoms: C_3  and  C_7
REMARK    4  A    between atoms: C_12  and  C_13
REMARK    5  A    between atoms: C_19  and  C_20
REMARK                            x       y       z     vdW  Elec       q    Type
REMARK                         _______ _______ _______ _____ _____    ______ ____
ROOT
ATOM      1  O   UNL     1      32.413 -15.292 -20.194  0.00  0.00    -0.266 OA
ATOM      2  N   UNL     1      32.978 -14.002 -22.059  0.00  0.00    -0.265 N 
ATOM      3  C   UNL     1      33.062 -15.116 -21.224  0.00  0.00    +0.286 C 
ENDROOT
BRANCH   3   7
ATOM      4  O   UNL     1      33.952 -16.734 -22.823  0.00  0.00    -0.419 OA
ATOM      5  N   UNL     1      35.631 -17.740 -21.690  0.00  0.00    -0.193 NA
ATOM      6  N   UNL     1      35.106 -18.368 -23.953  0.00  0.00    -0.313 N 
ATOM      7  C   UNL     1      34.016 -16.180 -21.581  0.00  0.00    +0.221 C 
ATOM      8  C   UNL     1      35.036 -16.792 -20.897  0.00  0.00    +0.146 C 
ATOM      9  C   UNL     1      34.950 -17.659 -22.811  0.00  0.00    +0.286 C 
ATOM     10  H   UNL     1      34.515 -18.198 -24.722  0.00  0.00    +0.147 HD
ATOM     11  H   UNL     1      35.810 -19.053 -24.014  0.00  0.00    +0.147 HD
ENDBRANCH   3   7
BRANCH   2  12
ATOM     12  C   UNL     1      31.744 -13.231 -22.212  0.00  0.00    +0.121 C 
BRANCH  12  13
ATOM     13  C   UNL     1      31.785 -11.940 -21.466  0.00  0.00    -0.002 C 
ATOM     14  C   UNL     1      31.901 -10.736 -22.161  0.00  0.00    -0.003 C 
ATOM     15  C   UNL     1      31.707 -11.936 -20.074  0.00  0.00    -0.003 C 
ATOM     16  C   UNL     1      31.940  -9.529 -21.464  0.00  0.00    -0.000 C 
ATOM     17  C   UNL     1      31.746 -10.728 -19.375  0.00  0.00    -0.000 C 
ATOM     18  C   UNL     1      31.862  -9.524 -20.071  0.00  0.00    -0.000 C 
ENDBRANCH  12  13
ENDBRANCH   2  12
BRANCH   2  19
ATOM     19  C   UNL     1      34.114 -13.526 -22.840  0.00  0.00    +0.121 C 
BRANCH  19  20
ATOM     20  C   UNL     1      33.780 -13.412 -24.304  0.00  0.00    -0.002 C 
ATOM     21  C   UNL     1      33.309 -14.525 -25.001  0.00  0.00    -0.003 C 
ATOM     22  C   UNL     1      33.942 -12.193 -24.963  0.00  0.00    -0.003 C 
ATOM     23  C   UNL     1      33.001 -14.420 -26.357  0.00  0.00    -0.000 C 
ATOM     24  C   UNL     1      33.632 -12.088 -26.319  0.00  0.00    -0.000 C 
ATOM     25  C   UNL     1      33.162 -13.201 -27.016  0.00  0.00    -0.000 C 
ENDBRANCH  19  20
ENDBRANCH   2  19
TORSDOF 5
ENDMDL
MODEL 2
REMARK VINA RESULT:      -9.1      3.627      6.094
REMARK  Name = 25271555
REMARK  5 active torsions:
REMARK  status: ('A' for Active; 'I' for Inactive)
REMARK    1  A    between atoms: N_2  and  C_12
REMARK    2  A    between atoms: N_2  and  C_19
REMARK    3  A    between atoms: C_3  and  C_7
REMARK    4  A    between atoms: C_12  and  C_13
REMARK    5  A    between atoms: C_19  and  C_20
REMARK                            x       y       z     vdW  Elec       q    Type
REMARK                         _______ _______ _______ _____ _____    ______ ____
ROOT
ATOM      1  O   UNL     1      35.198 -10.226 -25.289  0.00  0.00    -0.266 OA
ATOM      2  N   UNL     1      33.524  -9.593 -23.787  0.00  0.00    -0.265 N 
ATOM      3  C   UNL     1      34.260 -10.504 -24.544  0.00  0.00    +0.286 C 
ENDROOT
BRANCH   3   7
ATOM      4  O   UNL     1      33.355 -12.529 -25.569  0.00  0.00    -0.419 OA
ATOM      5  N   UNL     1      33.476 -14.067 -23.916  0.00  0.00    -0.193 NA
ATOM      6  N   UNL     1      32.597 -14.636 -26.081  0.00  0.00    -0.313 N 
ATOM      7  C   UNL     1      33.889 -11.927 -24.470  0.00  0.00    +0.221 C 
ATOM      8  C   UNL     1      33.962 -12.863 -23.469  0.00  0.00    +0.146 C 
ATOM      9  C   UNL     1      33.135 -13.807 -25.157  0.00  0.00    +0.286 C 
ATOM     10  H   UNL     1      32.390 -14.300 -26.983  0.00  0.00    +0.147 HD
ATOM     11  H   UNL     1      32.412 -15.575 -25.851  0.00  0.00    +0.147 HD
ENDBRANCH   3   7
BRANCH   2  12
ATOM     12  C   UNL     1      34.106  -8.353 -23.273  0.00  0.00    +0.121 C 
BRANCH  12  13
ATOM     13  C   UNL     1      33.719  -7.164 -24.087  0.00  0.00    -0.002 C 
ATOM     14  C   UNL     1      32.541  -6.474 -23.797  0.00  0.00    -0.003 C 
ATOM     15  C   UNL     1      34.535  -6.741 -25.136  0.00  0.00    -0.003 C 
ATOM     16  C   UNL     1      32.179  -5.364 -24.558  0.00  0.00    -0.000 C 
ATOM     17  C   UNL     1      34.172  -5.629 -25.897  0.00  0.00    -0.000 C 
ATOM     18  C   UNL     1      32.994  -4.940 -25.608  0.00  0.00    -0.000 C 
ENDBRANCH  12  13
ENDBRANCH   2  12
BRANCH   2  19
ATOM     19  C   UNL     1      32.121  -9.811 -23.453  0.00  0.00    +0.121 C 
BRANCH  19  20
ATOM     20  C   UNL     1      31.923 -10.032 -21.977  0.00  0.00    -0.002 C 
ATOM     21  C   UNL     1      32.137  -8.985 -21.080  0.00  0.00    -0.003 C 
ATOM     22  C   UNL     1      31.526 -11.283 -21.506  0.00  0.00    -0.003 C 
ATOM     23  C   UNL     1      31.954  -9.189 -19.712  0.00  0.00    -0.000 C 
ATOM     24  C   UNL     1      31.342 -11.487 -20.138  0.00  0.00    -0.000 C 
ATOM     25  C   UNL     1      31.557 -10.441 -19.241  0.00  0.00    -0.000 C 
ENDBRANCH  19  20
ENDBRANCH   2  19
TORSDOF 5
ENDMDL
MODEL 3
REMARK VINA RESULT:      -9.1      0.030      1.425
REMARK  Name = 25271555
REMARK  5 active torsions:
REMARK  status: ('A' for Active; 'I' for Inactive)
REMARK    1  A    between atoms: N_2  and  C_12
REMARK    2  A    between atoms: N_2  and  C_19
REMARK    3  A    between atoms: C_3  and  C_7
REMARK    4  A    between atoms: C_12  and  C_13
REMARK    5  A    between atoms: C_19  and  C_20
REMARK                            x       y       z     vdW  Elec       q    Type
REMARK                         _______ _______ _______ _____ _____    ______ ____
ROOT
ATOM      1  O   UNL     1      32.405 -15.299 -20.214  0.00  0.00    -0.266 OA
ATOM      2  N   UNL     1      32.966 -13.987 -22.064  0.00  0.00    -0.265 N 
ATOM      3  C   UNL     1      33.054 -15.110 -21.241  0.00  0.00    +0.286 C 
ENDROOT
BRANCH   3   7
ATOM      4  O   UNL     1      33.944 -16.711 -22.857  0.00  0.00    -0.419 OA
ATOM      5  N   UNL     1      35.631 -17.720 -21.738  0.00  0.00    -0.193 NA
ATOM      6  N   UNL     1      35.101 -18.331 -24.003  0.00  0.00    -0.313 N 
ATOM      7  C   UNL     1      34.010 -16.167 -21.610  0.00  0.00    +0.221 C 
ATOM      8  C   UNL     1      35.035 -16.781 -20.934  0.00  0.00    +0.146 C 
ATOM      9  C   UNL     1      34.946 -17.633 -22.855  0.00  0.00    +0.286 C 
ATOM     10  H   UNL     1      34.507 -18.157 -24.770  0.00  0.00    +0.147 HD
ATOM     11  H   UNL     1      35.807 -19.013 -24.073  0.00  0.00    +0.147 HD
ENDBRANCH   3   7
BRANCH   2  12
ATOM     12  C   UNL     1      31.730 -13.217 -22.208  0.00  0.00    +0.121 C 
BRANCH  12  13
ATOM     13  C   UNL     1      31.773 -11.928 -21.459  0.00  0.00    -0.002 C 
ATOM     14  C   UNL     1      31.710 -11.928 -20.065  0.00  0.00    -0.003 C 
ATOM     15  C   UNL     1      31.879 -10.722 -22.152  0.00  0.00    -0.003 C 
ATOM     16  C   UNL     1      31.750 -10.723 -19.366  0.00  0.00    -0.000 C 
ATOM     17  C   UNL     1      31.919  -9.516 -21.452  0.00  0.00    -0.000 C 
ATOM     18  C   UNL     1      31.855  -9.517 -20.058  0.00  0.00    -0.000 C 
ENDBRANCH  12  13
ENDBRANCH   2  12
BRANCH   2  19
ATOM     19  C   UNL     1      34.101 -13.499 -22.840  0.00  0.00    +0.121 C 
BRANCH  19  20
ATOM     20  C   UNL     1      33.776 -13.399 -24.307  0.00  0.00    -0.002 C 
ATOM     21  C   UNL     1      33.937 -12.185 -24.976  0.00  0.00    -0.003 C 
ATOM     22  C   UNL     1      33.315 -14.520 -24.997  0.00  0.00    -0.003 C 
ATOM     23  C   UNL     1      33.636 -12.092 -26.334  0.00  0.00    -0.000 C 
ATOM     24  C   UNL     1      33.014 -14.427 -26.356  0.00  0.00    -0.000 C 
ATOM     25  C   UNL     1      33.175 -13.213 -27.025  0.00  0.00    -0.000 C 
ENDBRANCH  19  20
ENDBRANCH   2  19
TORSDOF 5
ENDMDL
MODEL 4
REMARK VINA RESULT:      -9.0      9.960     13.067
REMARK  Name = 25271555
REMARK  5 active torsions:
REMARK  status: ('A' for Active; 'I' for Inactive)
REMARK    1  A    between atoms: N_2  and  C_12
REMARK    2  A    between atoms: N_2  and  C_19
REMARK    3  A    between atoms: C_3  and  C_7
REMARK    4  A    between atoms: C_12  and  C_13
REMARK    5  A    between atoms: C_19  and  C_20
REMARK                            x       y       z     vdW  Elec       q    Type
REMARK                         _______ _______ _______ _____ _____    ______ ____
ROOT
ATOM      1  O   UNL     1      35.522 -25.479 -15.694  0.00  0.00    -0.266 OA
ATOM      2  N   UNL     1      33.967 -23.736 -15.661  0.00  0.00    -0.265 N 
ATOM      3  C   UNL     1      35.033 -24.484 -15.162  0.00  0.00    +0.286 C 
ENDROOT
BRANCH   3   7
ATOM      4  O   UNL     1      35.141 -24.596 -12.724  0.00  0.00    -0.419 OA
ATOM      5  N   UNL     1      36.818 -23.173 -12.197  0.00  0.00    -0.193 NA
ATOM      6  N   UNL     1      35.617 -24.368 -10.488  0.00  0.00    -0.313 N 
ATOM      7  C   UNL     1      35.631 -24.070 -13.882  0.00  0.00    +0.221 C 
ATOM      8  C   UNL     1      36.648 -23.209 -13.558  0.00  0.00    +0.146 C 
ATOM      9  C   UNL     1      35.904 -24.009 -11.761  0.00  0.00    +0.286 C 
ATOM     10  H   UNL     1      34.896 -25.014 -10.309  0.00  0.00    +0.147 HD
ATOM     11  H   UNL     1      36.131 -23.983  -9.742  0.00  0.00    +0.147 HD
ENDBRANCH   3   7
BRANCH   2  12
ATOM     12  C   UNL     1      33.702 -23.611 -17.095  0.00  0.00    +0.121 C 
BRANCH  12  13
ATOM     13  C   UNL     1      34.684 -22.721 -17.779  0.00  0.00    -0.002 C 
ATOM     14  C   UNL     1      34.427 -22.260 -19.071  0.00  0.00    -0.003 C 
ATOM     15  C   UNL     1      35.860 -22.349 -17.127  0.00  0.00    -0.003 C 
ATOM     16  C   UNL     1      35.345 -21.429 -19.710  0.00  0.00    -0.000 C 
ATOM     17  C   UNL     1      36.779 -21.517 -17.767  0.00  0.00    -0.000 C 
ATOM     18  C   UNL     1      36.521 -21.056 -19.059  0.00  0.00    -0.000 C 
ENDBRANCH  12  13
ENDBRANCH   2  12
BRANCH   2  19
ATOM     19  C   UNL     1      33.039 -23.024 -14.790  0.00  0.00    +0.121 C 
BRANCH  19  20
ATOM     20  C   UNL     1      31.640 -23.573 -14.893  0.00  0.00    -0.002 C 
ATOM     21  C   UNL     1      30.621 -22.789 -15.435  0.00  0.00    -0.003 C 
ATOM     22  C   UNL     1      31.363 -24.865 -14.446  0.00  0.00    -0.003 C 
ATOM     23  C   UNL     1      29.326 -23.297 -15.530  0.00  0.00    -0.000 C 
ATOM     24  C   UNL     1      30.067 -25.373 -14.542  0.00  0.00    -0.000 C 
ATOM     25  C   UNL     1      29.049 -24.589 -15.083  0.00  0.00    -0.000 C 
ENDBRANCH  19  20
ENDBRANCH   2  19
TORSDOF 5
ENDMDL
MODEL 5
REMARK VINA RESULT:      -8.5     10.794     13.158
REMARK  Name = 25271555
REMARK  5 active torsions:
REMARK  status: ('A' for Active; 'I' for Inactive)
REMARK    1  A    between atoms: N_2  and  C_12
REMARK    2  A    between atoms: N_2  and  C_19
REMARK    3  A    between atoms: C_3  and  C_7
REMARK    4  A    between atoms: C_12  and  C_13
REMARK    5  A    between atoms: C_19  and  C_20
REMARK                            x       y       z     vdW  Elec       q    Type
REMARK                         _______ _______ _______ _____ _____    ______ ____
ROOT
ATOM      1  O   UNL     1      36.558 -23.027 -12.658  0.00  0.00    -0.266 OA
ATOM      2  N   UNL     1      34.835 -24.011 -13.892  0.00  0.00    -0.265 N 
ATOM      3  C   UNL     1      36.142 -23.900 -13.418  0.00  0.00    +0.286 C 
ENDROOT
BRANCH   3   7
ATOM      4  O   UNL     1      38.274 -24.471 -14.466  0.00  0.00    -0.419 OA
ATOM      5  N   UNL     1      38.326 -26.730 -14.379  0.00  0.00    -0.193 NA
ATOM      6  N   UNL     1      40.135 -25.481 -15.355  0.00  0.00    -0.313 N 
ATOM      7  C   UNL     1      37.128 -24.898 -13.865  0.00  0.00    +0.221 C 
ATOM      8  C   UNL     1      37.164 -26.269 -13.813  0.00  0.00    +0.146 C 
ATOM      9  C   UNL     1      38.937 -25.626 -14.744  0.00  0.00    +0.286 C 
ATOM     10  H   UNL     1      40.472 -24.581 -15.571  0.00  0.00    +0.147 HD
ATOM     11  H   UNL     1      40.670 -26.275 -15.584  0.00  0.00    +0.147 HD
ENDBRANCH   3   7
BRANCH   2  12
ATOM     12  C   UNL     1      33.681 -23.551 -13.119  0.00  0.00    +0.121 C 
BRANCH  12  13
ATOM     13  C   UNL     1      32.391 -23.781 -13.831  0.00  0.00    -0.002 C 
ATOM     14  C   UNL     1      31.770 -22.730 -14.507  0.00  0.00    -0.003 C 
ATOM     15  C   UNL     1      31.806 -25.047 -13.824  0.00  0.00    -0.003 C 
ATOM     16  C   UNL     1      30.564 -22.946 -15.173  0.00  0.00    -0.000 C 
ATOM     17  C   UNL     1      30.599 -25.263 -14.490  0.00  0.00    -0.000 C 
ATOM     18  C   UNL     1      29.978 -24.212 -15.166  0.00  0.00    -0.000 C 
ENDBRANCH  12  13
ENDBRANCH   2  12
BRANCH   2  19
ATOM     19  C   UNL     1      34.524 -24.592 -15.193  0.00  0.00    +0.121 C 
BRANCH  19  20
ATOM     20  C   UNL     1      34.771 -23.619 -16.316  0.00  0.00    -0.002 C 
ATOM     21  C   UNL     1      33.798 -23.423 -17.296  0.00  0.00    -0.003 C 
ATOM     22  C   UNL     1      35.974 -22.914 -16.376  0.00  0.00    -0.003 C 
ATOM     23  C   UNL     1      34.027 -22.522 -18.336  0.00  0.00    -0.000 C 
ATOM     24  C   UNL     1      36.202 -22.013 -17.415  0.00  0.00    -0.000 C 
ATOM     25  C   UNL     1      35.230 -21.817 -18.396  0.00  0.00    -0.000 C 
ENDBRANCH  19  20
ENDBRANCH   2  19
TORSDOF 5
ENDMDL
MODEL 6
REMARK VINA RESULT:      -8.4      8.554     12.280
REMARK  Name = 25271555
REMARK  5 active torsions:
REMARK  status: ('A' for Active; 'I' for Inactive)
REMARK    1  A    between atoms: N_2  and  C_12
REMARK    2  A    between atoms: N_2  and  C_19
REMARK    3  A    between atoms: C_3  and  C_7
REMARK    4  A    between atoms: C_12  and  C_13
REMARK    5  A    between atoms: C_19  and  C_20
REMARK                            x       y       z     vdW  Elec       q    Type
REMARK                         _______ _______ _______ _____ _____    ______ ____
ROOT
ATOM      1  O   UNL     1      31.456 -22.932 -17.592  0.00  0.00    -0.266 OA
ATOM      2  N   UNL     1      33.700 -22.966 -16.943  0.00  0.00    -0.265 N 
ATOM      3  C   UNL     1      32.325 -23.067 -16.732  0.00  0.00    +0.286 C 
ENDROOT
BRANCH   3   7
ATOM      4  O   UNL     1      30.969 -24.365 -15.169  0.00  0.00    -0.419 OA
ATOM      5  N   UNL     1      31.405 -23.413 -13.164  0.00  0.00    -0.193 NA
ATOM      6  N   UNL     1      29.891 -25.273 -13.355  0.00  0.00    -0.313 N 
ATOM      7  C   UNL     1      31.852 -23.346 -15.366  0.00  0.00    +0.221 C 
ATOM      8  C   UNL     1      32.114 -22.772 -14.148  0.00  0.00    +0.146 C 
ATOM      9  C   UNL     1      30.750 -24.340 -13.826  0.00  0.00    +0.286 C 
ATOM     10  H   UNL     1      29.470 -25.912 -13.975  0.00  0.00    +0.147 HD
ATOM     11  H   UNL     1      29.688 -25.314 -12.393  0.00  0.00    +0.147 HD
ENDBRANCH   3   7
BRANCH   2  12
ATOM     12  C   UNL     1      34.324 -23.314 -18.221  0.00  0.00    +0.121 C 
BRANCH  12  13
ATOM     13  C   UNL     1      34.597 -22.115 -19.065  0.00  0.00    -0.002 C 
ATOM     14  C   UNL     1      35.911 -21.695 -19.276  0.00  0.00    -0.003 C 
ATOM     15  C   UNL     1      33.539 -21.414 -19.643  0.00  0.00    -0.003 C 
ATOM     16  C   UNL     1      36.166 -20.574 -20.064  0.00  0.00    -0.000 C 
ATOM     17  C   UNL     1      33.794 -20.292 -20.432  0.00  0.00    -0.000 C 
ATOM     18  C   UNL     1      35.108 -19.872 -20.644  0.00  0.00    -0.000 C 
ENDBRANCH  12  13
ENDBRANCH   2  12
BRANCH   2  19
ATOM     19  C   UNL     1      34.616 -22.505 -15.905  0.00  0.00    +0.121 C 
BRANCH  19  20
ATOM     20  C   UNL     1      35.643 -23.551 -15.559  0.00  0.00    -0.002 C 
ATOM     21  C   UNL     1      35.238 -24.843 -15.225  0.00  0.00    -0.003 C 
ATOM     22  C   UNL     1      37.000 -23.226 -15.572  0.00  0.00    -0.003 C 
ATOM     23  C   UNL     1      36.190 -25.812 -14.904  0.00  0.00    -0.000 C 
ATOM     24  C   UNL     1      37.951 -24.195 -15.252  0.00  0.00    -0.000 C 
ATOM     25  C   UNL     1      37.546 -25.487 -14.917  0.00  0.00    -0.000 C 
ENDBRANCH  19  20
ENDBRANCH   2  19
TORSDOF 5
ENDMDL
MODEL 7
REMARK VINA RESULT:      -8.4      9.378     12.423
REMARK  Name = 25271555
REMARK  5 active torsions:
REMARK  status: ('A' for Active; 'I' for Inactive)
REMARK    1  A    between atoms: N_2  and  C_12
REMARK    2  A    between atoms: N_2  and  C_19
REMARK    3  A    between atoms: C_3  and  C_7
REMARK    4  A    between atoms: C_12  and  C_13
REMARK    5  A    between atoms: C_19  and  C_20
REMARK                            x       y       z     vdW  Elec       q    Type
REMARK                         _______ _______ _______ _____ _____    ______ ____
ROOT
ATOM      1  O   UNL     1      35.875 -22.792 -13.773  0.00  0.00    -0.266 OA
ATOM      2  N   UNL     1      34.394 -23.377 -15.483  0.00  0.00    -0.265 N 
ATOM      3  C   UNL     1      35.496 -23.567 -14.649  0.00  0.00    +0.286 C 
ENDROOT
BRANCH   3   7
ATOM      4  O   UNL     1      37.607 -24.781 -14.458  0.00  0.00    -0.419 OA
ATOM      5  N   UNL     1      37.117 -26.838 -15.261  0.00  0.00    -0.193 NA
ATOM      6  N   UNL     1      39.327 -26.304 -14.477  0.00  0.00    -0.313 N 
ATOM      7  C   UNL     1      36.295 -24.792 -14.824  0.00  0.00    +0.221 C 
ATOM      8  C   UNL     1      36.001 -26.041 -15.310  0.00  0.00    +0.146 C 
ATOM      9  C   UNL     1      38.029 -26.042 -14.752  0.00  0.00    +0.286 C 
ATOM     10  H   UNL     1      39.901 -25.602 -14.091  0.00  0.00    +0.147 HD
ATOM     11  H   UNL     1      39.699 -27.196 -14.662  0.00  0.00    +0.147 HD
ENDBRANCH   3   7
BRANCH   2  12
ATOM     12  C   UNL     1      33.215 -22.620 -15.061  0.00  0.00    +0.121 C 
BRANCH  12  13
ATOM     13  C   UNL     1      31.975 -23.450 -15.068  0.00  0.00    -0.002 C 
ATOM     14  C   UNL     1      31.855 -24.532 -14.195  0.00  0.00    -0.003 C 
ATOM     15  C   UNL     1      30.936 -23.144 -15.945  0.00  0.00    -0.003 C 
ATOM     16  C   UNL     1      30.697 -25.308 -14.202  0.00  0.00    -0.000 C 
ATOM     17  C   UNL     1      29.776 -23.920 -15.953  0.00  0.00    -0.000 C 
ATOM     18  C   UNL     1      29.656 -25.002 -15.080  0.00  0.00    -0.000 C 
ENDBRANCH  12  13
ENDBRANCH   2  12
BRANCH   2  19
ATOM     19  C   UNL     1      34.339 -23.918 -16.836  0.00  0.00    +0.121 C 
BRANCH  19  20
ATOM     20  C   UNL     1      34.493 -22.841 -17.878  0.00  0.00    -0.002 C 
ATOM     21  C   UNL     1      33.385 -22.415 -18.609  0.00  0.00    -0.003 C 
ATOM     22  C   UNL     1      35.745 -22.271 -18.110  0.00  0.00    -0.003 C 
ATOM     23  C   UNL     1      33.528 -21.418 -19.575  0.00  0.00    -0.000 C 
ATOM     24  C   UNL     1      35.888 -21.273 -19.075  0.00  0.00    -0.000 C 
ATOM     25  C   UNL     1      34.780 -20.847 -19.807  0.00  0.00    -0.000 C 
ENDBRANCH  19  20
ENDBRANCH   2  19
TORSDOF 5
ENDMDL
MODEL 8
REMARK VINA RESULT:      -8.3      4.470      8.247
REMARK  Name = 25271555
REMARK  5 active torsions:
REMARK  status: ('A' for Active; 'I' for Inactive)
REMARK    1  A    between atoms: N_2  and  C_12
REMARK    2  A    between atoms: N_2  and  C_19
REMARK    3  A    between atoms: C_3  and  C_7
REMARK    4  A    between atoms: C_12  and  C_13
REMARK    5  A    between atoms: C_19  and  C_20
REMARK                            x       y       z     vdW  Elec       q    Type
REMARK                         _______ _______ _______ _____ _____    ______ ____
ROOT
ATOM      1  O   UNL     1      34.989  -7.333 -22.984  0.00  0.00    -0.266 OA
ATOM      2  N   UNL     1      33.628  -9.101 -23.677  0.00  0.00    -0.265 N 
ATOM      3  C   UNL     1      33.924  -7.761 -23.426  0.00  0.00    +0.286 C 
ENDROOT
BRANCH   3   7
ATOM      4  O   UNL     1      32.275  -6.138 -22.644  0.00  0.00    -0.419 OA
ATOM      5  N   UNL     1      31.374  -5.327 -24.553  0.00  0.00    -0.193 NA
ATOM      6  N   UNL     1      30.637  -4.546 -22.401  0.00  0.00    -0.313 N 
ATOM      7  C   UNL     1      32.881  -6.758 -23.694  0.00  0.00    +0.221 C 
ATOM      8  C   UNL     1      32.332  -6.263 -24.851  0.00  0.00    +0.146 C 
ATOM      9  C   UNL     1      31.386  -5.298 -23.240  0.00  0.00    +0.286 C 
ATOM     10  H   UNL     1      30.755  -4.630 -21.426  0.00  0.00    +0.147 HD
ATOM     11  H   UNL     1      29.975  -3.914 -22.764  0.00  0.00    +0.147 HD
ENDBRANCH   3   7
BRANCH   2  12
ATOM     12  C   UNL     1      34.655 -10.071 -24.058  0.00  0.00    +0.121 C 
BRANCH  12  13
ATOM     13  C   UNL     1      34.071 -11.342 -24.577  0.00  0.00    -0.002 C 
ATOM     14  C   UNL     1      33.721 -12.362 -23.691  0.00  0.00    -0.003 C 
ATOM     15  C   UNL     1      33.874 -11.511 -25.947  0.00  0.00    -0.003 C 
ATOM     16  C   UNL     1      33.175 -13.550 -24.176  0.00  0.00    -0.000 C 
ATOM     17  C   UNL     1      33.328 -12.700 -26.432  0.00  0.00    -0.000 C 
ATOM     18  C   UNL     1      32.978 -13.719 -25.546  0.00  0.00    -0.000 C 
ENDBRANCH  12  13
ENDBRANCH   2  12
BRANCH   2  19
ATOM     19  C   UNL     1      32.273  -9.631 -23.576  0.00  0.00    +0.121 C 
BRANCH  19  20
ATOM     20  C   UNL     1      31.898  -9.947 -22.152  0.00  0.00    -0.002 C 
ATOM     21  C   UNL     1      32.333  -9.120 -21.116  0.00  0.00    -0.003 C 
ATOM     22  C   UNL     1      31.116 -11.067 -21.869  0.00  0.00    -0.003 C 
ATOM     23  C   UNL     1      31.987  -9.413 -19.797  0.00  0.00    -0.000 C 
ATOM     24  C   UNL     1      30.768 -11.359 -20.549  0.00  0.00    -0.000 C 
ATOM     25  C   UNL     1      31.204 -10.532 -19.514  0.00  0.00    -0.000 C 
ENDBRANCH  19  20
ENDBRANCH   2  19
TORSDOF 5
ENDMDL
MODEL 9
REMARK VINA RESULT:      -8.2      1.832      5.810
REMARK  Name = 25271555
REMARK  5 active torsions:
REMARK  status: ('A' for Active; 'I' for Inactive)
REMARK    1  A    between atoms: N_2  and  C_12
REMARK    2  A    between atoms: N_2  and  C_19
REMARK    3  A    between atoms: C_3  and  C_7
REMARK    4  A    between atoms: C_12  and  C_13
REMARK    5  A    between atoms: C_19  and  C_20
REMARK                            x       y       z     vdW  Elec       q    Type
REMARK                         _______ _______ _______ _____ _____    ______ ____
ROOT
ATOM      1  O   UNL     1      33.808 -14.636 -20.399  0.00  0.00    -0.266 OA
ATOM      2  N   UNL     1      33.570 -14.507 -22.720  0.00  0.00    -0.265 N 
ATOM      3  C   UNL     1      33.321 -14.120 -21.403  0.00  0.00    +0.286 C 
ENDROOT
BRANCH   3   7
ATOM      4  O   UNL     1      32.267 -12.492 -19.917  0.00  0.00    -0.419 OA
ATOM      5  N   UNL     1      30.870 -11.349 -21.280  0.00  0.00    -0.193 NA
ATOM      6  N   UNL     1      31.033 -10.819 -18.939  0.00  0.00    -0.313 N 
ATOM      7  C   UNL     1      32.386 -13.006 -21.173  0.00  0.00    +0.221 C 
ATOM      8  C   UNL     1      31.537 -12.309 -21.997  0.00  0.00    +0.146 C 
ATOM      9  C   UNL     1      31.341 -11.505 -20.064  0.00  0.00    +0.286 C 
ATOM     10  H   UNL     1      31.471 -11.049 -18.087  0.00  0.00    +0.147 HD
ATOM     11  H   UNL     1      30.372 -10.091 -18.972  0.00  0.00    +0.147 HD
ENDBRANCH   3   7
BRANCH   2  12
ATOM     12  C   UNL     1      34.844 -15.096 -23.134  0.00  0.00    +0.121 C 
BRANCH  12  13
ATOM     13  C   UNL     1      34.735 -16.562 -23.388  0.00  0.00    -0.002 C 
ATOM     14  C   UNL     1      34.643 -17.038 -24.697  0.00  0.00    -0.003 C 
ATOM     15  C   UNL     1      34.728 -17.457 -22.319  0.00  0.00    -0.003 C 
ATOM     16  C   UNL     1      34.541 -18.408 -24.934  0.00  0.00    -0.000 C 
ATOM     17  C   UNL     1      34.625 -18.828 -22.556  0.00  0.00    -0.000 C 
ATOM     18  C   UNL     1      34.533 -19.304 -23.864  0.00  0.00    -0.000 C 
ENDBRANCH  12  13
ENDBRANCH   2  12
BRANCH   2  19
ATOM     19  C   UNL     1      32.579 -14.353 -23.778  0.00  0.00    +0.121 C 
BRANCH  19  20
ATOM     20  C   UNL     1      33.120 -13.568 -24.944  0.00  0.00    -0.002 C 
ATOM     21  C   UNL     1      33.721 -12.328 -24.732  0.00  0.00    -0.003 C 
ATOM     22  C   UNL     1      33.021 -14.083 -26.237  0.00  0.00    -0.003 C 
ATOM     23  C   UNL     1      34.222 -11.601 -25.812  0.00  0.00    -0.000 C 
ATOM     24  C   UNL     1      33.523 -13.357 -27.317  0.00  0.00    -0.000 C 
ATOM     25  C   UNL     1      34.123 -12.116 -27.105  0.00  0.00    -0.000 C 
ENDBRANCH  19  20
ENDBRANCH   2  19
TORSDOF 5
ENDMDL
