MODEL 1
REMARK VINA RESULT:      -7.9      0.000      0.000
REMARK  Name = 449127
REMARK  2 active torsions:
REMARK  status: ('A' for Active; 'I' for Inactive)
REMARK    1  A    between atoms: C_4  and  C_8
REMARK    2  A    between atoms: C_5  and  S_14
REMARK                            x       y       z     vdW  Elec       q    Type
REMARK                         _______ _______ _______ _____ _____    ______ ____
ROOT
ATOM      1  N   UNL     1      35.182 -17.633 -21.358  0.00  0.00    -0.200 N 
ATOM      2  N   UNL     1      34.444 -18.848 -23.018  0.00  0.00    -0.327 NA
ATOM      3  N   UNL     1      35.294 -16.812 -22.414  0.00  0.00    -0.107 NA
ATOM      4  C   UNL     1      34.677 -18.839 -21.727  0.00  0.00    +0.211 C 
ATOM      5  C   UNL     1      34.834 -17.595 -23.393  0.00  0.00    +0.132 C 
ATOM      6  H   UNL     1      35.434 -17.392 -20.438  0.00  0.00    +0.178 HD
ENDROOT
BRANCH   4   8
ATOM      7 CL   UNL     1      33.744 -23.275 -17.869  0.00  0.00    -0.082 Cl
ATOM      8  C   UNL     1      34.451 -19.913 -20.792  0.00  0.00    +0.046 C 
ATOM      9  C   UNL     1      35.529 -20.647 -20.299  0.00  0.00    +0.005 C 
ATOM     10  C   UNL     1      33.153 -20.219 -20.381  0.00  0.00    +0.005 C 
ATOM     11  C   UNL     1      35.311 -21.687 -19.395  0.00  0.00    +0.012 C 
ATOM     12  C   UNL     1      32.935 -21.258 -19.477  0.00  0.00    +0.012 C 
ATOM     13  C   UNL     1      34.013 -21.992 -18.984  0.00  0.00    +0.058 C 
ENDBRANCH   4   8
BRANCH   5  14
ATOM     14  S   UNL     1      34.743 -17.040 -25.047  0.00  0.00    -0.028 S 
ATOM     15  C   UNL     1      33.740 -15.545 -24.848  0.00  0.00    +0.086 C 
ENDBRANCH   5  14
TORSDOF 2
ENDMDL
MODEL 2
REMARK VINA RESULT:      -7.9      1.740      1.952
REMARK  Name = 449127
REMARK  2 active torsions:
REMARK  status: ('A' for Active; 'I' for Inactive)
REMARK    1  A    between atoms: C_4  and  C_8
REMARK    2  A    between atoms: C_5  and  S_14
REMARK                            x       y       z     vdW  Elec       q    Type
REMARK                         _______ _______ _______ _____ _____    ______ ____
ROOT
ATOM      1  N   UNL     1      35.590 -17.427 -22.983  0.00  0.00    -0.200 N 
ATOM      2  N   UNL     1      34.029 -16.480 -21.783  0.00  0.00    -0.327 NA
ATOM      3  N   UNL     1      35.516 -16.189 -23.496  0.00  0.00    -0.107 NA
ATOM      4  C   UNL     1      34.703 -17.589 -21.967  0.00  0.00    +0.211 C 
ATOM      5  C   UNL     1      34.558 -15.657 -22.735  0.00  0.00    +0.132 C 
ATOM      6  H   UNL     1      36.205 -18.126 -23.302  0.00  0.00    +0.178 HD
ENDROOT
BRANCH   4   8
ATOM      7 CL   UNL     1      34.144 -22.687 -18.943  0.00  0.00    -0.082 Cl
ATOM      8  C   UNL     1      34.568 -18.824 -21.234  0.00  0.00    +0.046 C 
ATOM      9  C   UNL     1      35.703 -19.552 -20.880  0.00  0.00    +0.005 C 
ATOM     10  C   UNL     1      33.302 -19.290 -20.879  0.00  0.00    +0.005 C 
ATOM     11  C   UNL     1      35.573 -20.747 -20.171  0.00  0.00    +0.012 C 
ATOM     12  C   UNL     1      33.170 -20.484 -20.171  0.00  0.00    +0.012 C 
ATOM     13  C   UNL     1      34.305 -21.213 -19.818  0.00  0.00    +0.058 C 
ENDBRANCH   4   8
BRANCH   5  14
ATOM     14  S   UNL     1      34.021 -14.009 -22.954  0.00  0.00    -0.028 S 
ATOM     15  C   UNL     1      32.452 -14.040 -22.048  0.00  0.00    +0.086 C 
ENDBRANCH   5  14
TORSDOF 2
ENDMDL
MODEL 3
REMARK VINA RESULT:      -7.8      1.813      2.421
REMARK  Name = 449127
REMARK  2 active torsions:
REMARK  status: ('A' for Active; 'I' for Inactive)
REMARK    1  A    between atoms: C_4  and  C_8
REMARK    2  A    between atoms: C_5  and  S_14
REMARK                            x       y       z     vdW  Elec       q    Type
REMARK                         _______ _______ _______ _____ _____    ______ ____
ROOT
ATOM      1  N   UNL     1      35.555 -17.313 -23.032  0.00  0.00    -0.200 N 
ATOM      2  N   UNL     1      34.044 -16.389 -21.751  0.00  0.00    -0.327 NA
ATOM      3  N   UNL     1      35.451 -16.069 -23.525  0.00  0.00    -0.107 NA
ATOM      4  C   UNL     1      34.716 -17.492 -21.978  0.00  0.00    +0.211 C 
ATOM      5  C   UNL     1      34.525 -15.552 -22.716  0.00  0.00    +0.132 C 
ATOM      6  H   UNL     1      36.159 -18.004 -23.386  0.00  0.00    +0.178 HD
ENDROOT
BRANCH   4   8
ATOM      7 CL   UNL     1      34.323 -22.627 -18.991  0.00  0.00    -0.082 Cl
ATOM      8  C   UNL     1      34.620 -18.737 -21.255  0.00  0.00    +0.046 C 
ATOM      9  C   UNL     1      33.369 -19.262 -20.933  0.00  0.00    +0.005 C 
ATOM     10  C   UNL     1      35.780 -19.415 -20.878  0.00  0.00    +0.005 C 
ATOM     11  C   UNL     1      33.277 -20.465 -20.232  0.00  0.00    +0.012 C 
ATOM     12  C   UNL     1      35.688 -20.618 -20.178  0.00  0.00    +0.012 C 
ATOM     13  C   UNL     1      34.437 -21.142 -19.855  0.00  0.00    +0.058 C 
ENDBRANCH   4   8
BRANCH   5  14
ATOM     14  S   UNL     1      33.969 -13.904 -22.890  0.00  0.00    -0.028 S 
ATOM     15  C   UNL     1      32.443 -13.957 -21.915  0.00  0.00    +0.086 C 
ENDBRANCH   5  14
TORSDOF 2
ENDMDL
MODEL 4
REMARK VINA RESULT:      -7.6      5.172      6.972
REMARK  Name = 449127
REMARK  2 active torsions:
REMARK  status: ('A' for Active; 'I' for Inactive)
REMARK    1  A    between atoms: C_4  and  C_8
REMARK    2  A    between atoms: C_5  and  S_14
REMARK                            x       y       z     vdW  Elec       q    Type
REMARK                         _______ _______ _______ _____ _____    ______ ____
ROOT
ATOM      1  N   UNL     1      32.781 -22.723 -18.074  0.00  0.00    -0.200 N 
ATOM      2  N   UNL     1      34.897 -22.637 -17.531  0.00  0.00    -0.327 NA
ATOM      3  N   UNL     1      32.859 -23.535 -17.008  0.00  0.00    -0.107 NA
ATOM      4  C   UNL     1      33.996 -22.195 -18.376  0.00  0.00    +0.211 C 
ATOM      5  C   UNL     1      34.159 -23.448 -16.717  0.00  0.00    +0.132 C 
ATOM      6  H   UNL     1      31.954 -22.536 -18.571  0.00  0.00    +0.178 HD
ENDROOT
BRANCH   4   8
ATOM      7 CL   UNL     1      34.856 -18.448 -22.921  0.00  0.00    -0.082 Cl
ATOM      8  C   UNL     1      34.205 -21.287 -19.477  0.00  0.00    +0.046 C 
ATOM      9  C   UNL     1      33.114 -20.663 -20.082  0.00  0.00    +0.005 C 
ATOM     10  C   UNL     1      35.497 -21.032 -19.936  0.00  0.00    +0.005 C 
ATOM     11  C   UNL     1      33.314 -19.785 -21.147  0.00  0.00    +0.012 C 
ATOM     12  C   UNL     1      35.698 -20.154 -21.001  0.00  0.00    +0.012 C 
ATOM     13  C   UNL     1      34.607 -19.531 -21.606  0.00  0.00    +0.058 C 
ENDBRANCH   4   8
BRANCH   5  14
ATOM     14  S   UNL     1      34.861 -24.322 -15.378  0.00  0.00    -0.028 S 
ATOM     15  C   UNL     1      36.529 -23.616 -15.349  0.00  0.00    +0.086 C 
ENDBRANCH   5  14
TORSDOF 2
ENDMDL
MODEL 5
REMARK VINA RESULT:      -7.5      3.929      6.015
REMARK  Name = 449127
REMARK  2 active torsions:
REMARK  status: ('A' for Active; 'I' for Inactive)
REMARK    1  A    between atoms: C_4  and  C_8
REMARK    2  A    between atoms: C_5  and  S_14
REMARK                            x       y       z     vdW  Elec       q    Type
REMARK                         _______ _______ _______ _____ _____    ______ ____
ROOT
ATOM      1  N   UNL     1      36.544 -18.918 -20.894  0.00  0.00    -0.200 N 
ATOM      2  N   UNL     1      34.728 -20.114 -21.114  0.00  0.00    -0.327 NA
ATOM      3  N   UNL     1      36.686 -19.868 -19.957  0.00  0.00    -0.107 NA
ATOM      4  C   UNL     1      35.379 -19.073 -21.575  0.00  0.00    +0.211 C 
ATOM      5  C   UNL     1      35.562 -20.565 -20.131  0.00  0.00    +0.132 C 
ATOM      6  H   UNL     1      37.198 -18.202 -21.066  0.00  0.00    +0.178 HD
ENDROOT
BRANCH   4   8
ATOM      7 CL   UNL     1      33.687 -15.433 -25.972  0.00  0.00    -0.082 Cl
ATOM      8  C   UNL     1      34.969 -18.191 -22.641  0.00  0.00    +0.046 C 
ATOM      9  C   UNL     1      34.745 -16.840 -22.379  0.00  0.00    +0.005 C 
ATOM     10  C   UNL     1      34.798 -18.689 -23.932  0.00  0.00    +0.005 C 
ATOM     11  C   UNL     1      34.349 -15.986 -23.409  0.00  0.00    +0.012 C 
ATOM     12  C   UNL     1      34.401 -17.837 -24.962  0.00  0.00    +0.012 C 
ATOM     13  C   UNL     1      34.176 -16.486 -24.701  0.00  0.00    +0.058 C 
ENDBRANCH   4   8
BRANCH   5  14
ATOM     14  S   UNL     1      35.191 -21.967 -19.156  0.00  0.00    -0.028 S 
ATOM     15  C   UNL     1      33.380 -21.903 -19.148  0.00  0.00    +0.086 C 
ENDBRANCH   5  14
TORSDOF 2
ENDMDL
MODEL 6
REMARK VINA RESULT:      -7.4      5.185      6.828
REMARK  Name = 449127
REMARK  2 active torsions:
REMARK  status: ('A' for Active; 'I' for Inactive)
REMARK    1  A    between atoms: C_4  and  C_8
REMARK    2  A    between atoms: C_5  and  S_14
REMARK                            x       y       z     vdW  Elec       q    Type
REMARK                         _______ _______ _______ _____ _____    ______ ____
ROOT
ATOM      1  N   UNL     1      34.231 -22.887 -17.600  0.00  0.00    -0.200 N 
ATOM      2  N   UNL     1      32.155 -22.328 -17.989  0.00  0.00    -0.327 NA
ATOM      3  N   UNL     1      33.547 -23.585 -16.680  0.00  0.00    -0.107 NA
ATOM      4  C   UNL     1      33.396 -22.144 -18.371  0.00  0.00    +0.211 C 
ATOM      5  C   UNL     1      32.296 -23.212 -16.958  0.00  0.00    +0.132 C 
ATOM      6  H   UNL     1      35.210 -22.910 -17.701  0.00  0.00    +0.178 HD
ENDROOT
BRANCH   4   8
ATOM      7 CL   UNL     1      35.322 -18.642 -22.783  0.00  0.00    -0.082 Cl
ATOM      8  C   UNL     1      33.862 -21.296 -19.441  0.00  0.00    +0.046 C 
ATOM      9  C   UNL     1      35.221 -21.251 -19.753  0.00  0.00    +0.005 C 
ATOM     10  C   UNL     1      32.955 -20.520 -20.162  0.00  0.00    +0.005 C 
ATOM     11  C   UNL     1      35.673 -20.430 -20.786  0.00  0.00    +0.012 C 
ATOM     12  C   UNL     1      33.407 -19.699 -21.196  0.00  0.00    +0.012 C 
ATOM     13  C   UNL     1      34.765 -19.654 -21.507  0.00  0.00    +0.058 C 
ENDBRANCH   4   8
BRANCH   5  14
ATOM     14  S   UNL     1      30.933 -23.822 -16.052  0.00  0.00    -0.028 S 
ATOM     15  C   UNL     1      31.050 -22.820 -14.548  0.00  0.00    +0.086 C 
ENDBRANCH   5  14
TORSDOF 2
ENDMDL
MODEL 7
REMARK VINA RESULT:      -7.2      1.806      2.269
REMARK  Name = 449127
REMARK  2 active torsions:
REMARK  status: ('A' for Active; 'I' for Inactive)
REMARK    1  A    between atoms: C_4  and  C_8
REMARK    2  A    between atoms: C_5  and  S_14
REMARK                            x       y       z     vdW  Elec       q    Type
REMARK                         _______ _______ _______ _____ _____    ______ ____
ROOT
ATOM      1  N   UNL     1      34.622 -15.610 -21.081  0.00  0.00    -0.200 N 
ATOM      2  N   UNL     1      34.156 -16.416 -23.058  0.00  0.00    -0.327 NA
ATOM      3  N   UNL     1      34.366 -14.512 -21.808  0.00  0.00    -0.107 NA
ATOM      4  C   UNL     1      34.494 -16.735 -21.832  0.00  0.00    +0.211 C 
ATOM      5  C   UNL     1      34.089 -15.054 -22.996  0.00  0.00    +0.132 C 
ATOM      6  H   UNL     1      34.870 -15.602 -20.129  0.00  0.00    +0.178 HD
ENDROOT
BRANCH   4   8
ATOM      7 CL   UNL     1      35.390 -22.203 -19.654  0.00  0.00    -0.082 Cl
ATOM      8  C   UNL     1      34.711 -18.060 -21.304  0.00  0.00    +0.046 C 
ATOM      9  C   UNL     1      36.009 -18.518 -21.085  0.00  0.00    +0.005 C 
ATOM     10  C   UNL     1      33.622 -18.882 -21.013  0.00  0.00    +0.005 C 
ATOM     11  C   UNL     1      36.220 -19.800 -20.574  0.00  0.00    +0.012 C 
ATOM     12  C   UNL     1      33.832 -20.163 -20.503  0.00  0.00    +0.012 C 
ATOM     13  C   UNL     1      35.131 -20.622 -20.284  0.00  0.00    +0.058 C 
ENDBRANCH   4   8
BRANCH   5  14
ATOM     14  S   UNL     1      33.671 -14.071 -24.378  0.00  0.00    -0.028 S 
ATOM     15  C   UNL     1      33.389 -15.349 -25.630  0.00  0.00    +0.086 C 
ENDBRANCH   5  14
TORSDOF 2
ENDMDL
MODEL 8
REMARK VINA RESULT:      -7.1      5.809      7.764
REMARK  Name = 449127
REMARK  2 active torsions:
REMARK  status: ('A' for Active; 'I' for Inactive)
REMARK    1  A    between atoms: C_4  and  C_8
REMARK    2  A    between atoms: C_5  and  S_14
REMARK                            x       y       z     vdW  Elec       q    Type
REMARK                         _______ _______ _______ _____ _____    ______ ____
ROOT
ATOM      1  N   UNL     1      37.424 -22.203 -16.394  0.00  0.00    -0.200 N 
ATOM      2  N   UNL     1      35.656 -23.489 -16.377  0.00  0.00    -0.327 NA
ATOM      3  N   UNL     1      37.620 -22.983 -15.319  0.00  0.00    -0.107 NA
ATOM      4  C   UNL     1      36.255 -22.512 -17.014  0.00  0.00    +0.211 C 
ATOM      5  C   UNL     1      36.523 -23.742 -15.353  0.00  0.00    +0.132 C 
ATOM      6  H   UNL     1      38.044 -21.500 -16.692  0.00  0.00    +0.178 HD
ENDROOT
BRANCH   4   8
ATOM      7 CL   UNL     1      34.347 -19.701 -21.903  0.00  0.00    -0.082 Cl
ATOM      8  C   UNL     1      35.793 -21.830 -18.199  0.00  0.00    +0.046 C 
ATOM      9  C   UNL     1      34.454 -21.922 -18.577  0.00  0.00    +0.005 C 
ATOM     10  C   UNL     1      36.684 -21.080 -18.965  0.00  0.00    +0.005 C 
ATOM     11  C   UNL     1      34.006 -21.263 -19.723  0.00  0.00    +0.012 C 
ATOM     12  C   UNL     1      36.238 -20.422 -20.111  0.00  0.00    +0.012 C 
ATOM     13  C   UNL     1      34.899 -20.514 -20.490  0.00  0.00    +0.058 C 
ENDBRANCH   4   8
BRANCH   5  14
ATOM     14  S   UNL     1      36.226 -24.981 -14.157  0.00  0.00    -0.028 S 
ATOM     15  C   UNL     1      36.691 -26.466 -15.084  0.00  0.00    +0.086 C 
ENDBRANCH   5  14
TORSDOF 2
ENDMDL
MODEL 9
REMARK VINA RESULT:      -7.1      5.779      7.644
REMARK  Name = 449127
REMARK  2 active torsions:
REMARK  status: ('A' for Active; 'I' for Inactive)
REMARK    1  A    between atoms: C_4  and  C_8
REMARK    2  A    between atoms: C_5  and  S_14
REMARK                            x       y       z     vdW  Elec       q    Type
REMARK                         _______ _______ _______ _____ _____    ______ ____
ROOT
ATOM      1  N   UNL     1      37.604 -22.364 -16.701  0.00  0.00    -0.200 N 
ATOM      2  N   UNL     1      35.662 -23.318 -16.393  0.00  0.00    -0.327 NA
ATOM      3  N   UNL     1      37.802 -23.120 -15.610  0.00  0.00    -0.107 NA
ATOM      4  C   UNL     1      36.330 -22.489 -17.158  0.00  0.00    +0.211 C 
ATOM      5  C   UNL     1      36.597 -23.676 -15.466  0.00  0.00    +0.132 C 
ATOM      6  H   UNL     1      38.290 -21.794 -17.115  0.00  0.00    +0.178 HD
ENDROOT
BRANCH   4   8
ATOM      7 CL   UNL     1      34.315 -19.593 -21.953  0.00  0.00    -0.082 Cl
ATOM      8  C   UNL     1      35.842 -21.788 -18.320  0.00  0.00    +0.046 C 
ATOM      9  C   UNL     1      36.716 -21.022 -19.090  0.00  0.00    +0.005 C 
ATOM     10  C   UNL     1      34.496 -21.876 -18.674  0.00  0.00    +0.005 C 
ATOM     11  C   UNL     1      36.245 -20.342 -20.214  0.00  0.00    +0.012 C 
ATOM     12  C   UNL     1      34.023 -21.197 -19.797  0.00  0.00    +0.012 C 
ATOM     13  C   UNL     1      34.897 -20.431 -20.566  0.00  0.00    +0.058 C 
ENDBRANCH   4   8
BRANCH   5  14
ATOM     14  S   UNL     1      36.251 -24.792 -14.166  0.00  0.00    -0.028 S 
ATOM     15  C   UNL     1      36.961 -26.319 -14.833  0.00  0.00    +0.086 C 
ENDBRANCH   5  14
TORSDOF 2
ENDMDL
