MODEL 1
REMARK VINA RESULT:      -9.6      0.000      0.000
REMARK  Name = 2856
REMARK  5 active torsions:
REMARK  status: ('A' for Active; 'I' for Inactive)
REMARK    1  A    between atoms: N_1  and  C_12
REMARK    2  A    between atoms: N_5  and  C_24
REMARK    3  A    between atoms: N_15  and  C_18
REMARK    4  A    between atoms: C_24  and  C_25
REMARK    5  A    between atoms: C_25  and  O_26
REMARK                            x       y       z     vdW  Elec       q    Type
REMARK                         _______ _______ _______ _____ _____    ______ ____
ROOT
ATOM      1  N   UNL     1      36.533 -24.429 -14.072  0.00  0.00    -0.262 N 
ATOM      2  N   UNL     1      37.513 -23.323 -15.740  0.00  0.00    -0.240 NA
ATOM      3  N   UNL     1      34.203 -24.140 -14.693  0.00  0.00    -0.311 NA
ATOM      4  N   UNL     1      33.988 -22.844 -16.749  0.00  0.00    -0.311 NA
ATOM      5  N   UNL     1      32.107 -23.654 -15.612  0.00  0.00    -0.256 N 
ATOM      6  C   UNL     1      35.522 -23.970 -14.867  0.00  0.00    +0.220 C 
ATOM      7  C   UNL     1      36.151 -23.287 -15.896  0.00  0.00    +0.168 C 
ATOM      8  C   UNL     1      37.709 -24.015 -14.637  0.00  0.00    +0.222 C 
ATOM      9  C   UNL     1      35.331 -22.711 -16.862  0.00  0.00    +0.219 C 
ATOM     10  C   UNL     1      33.514 -23.539 -15.687  0.00  0.00    +0.202 C 
ATOM     11  H   UNL     1      31.713 -24.152 -14.860  0.00  0.00    +0.160 HD
ATOM     12  N   UNL     1      35.883 -22.000 -17.941  0.00  0.00    -0.286 N 
ATOM     13  H   UNL     1      36.868 -21.966 -17.928  0.00  0.00    +0.155 HD
ENDROOT
BRANCH  12  15
ATOM     14 CL   UNL     1      36.488 -18.772 -21.882  0.00  0.00    -0.082 Cl
ATOM     15  C   UNL     1      35.309 -21.327 -19.040  0.00  0.00    +0.051 C 
ATOM     16  C   UNL     1      36.092 -20.480 -19.826  0.00  0.00    +0.026 C 
ATOM     17  C   UNL     1      33.959 -21.506 -19.338  0.00  0.00    +0.015 C 
ATOM     18  C   UNL     1      35.523 -19.815 -20.911  0.00  0.00    +0.059 C 
ATOM     19  C   UNL     1      33.390 -20.841 -20.423  0.00  0.00    +0.002 C 
ATOM     20  C   UNL     1      34.172 -19.993 -21.210  0.00  0.00    +0.011 C 
ENDBRANCH  12  15
BRANCH   1  21
ATOM     21  C   UNL     1      36.398 -25.203 -12.862  0.00  0.00    +0.077 C 
ATOM     22  C   UNL     1      36.206 -24.314 -11.632  0.00  0.00    +0.022 C 
ATOM     23  C   UNL     1      37.559 -26.182 -12.675  0.00  0.00    +0.022 C 
ENDBRANCH   1  21
BRANCH   5  24
ATOM     24  C   UNL     1      31.231 -23.077 -16.583  0.00  0.00    +0.130 C 
BRANCH  24  25
ATOM     25  C   UNL     1      29.832 -22.910 -16.012  0.00  0.00    +0.159 C 
BRANCH  25  26
ATOM     26  O   UNL     1      28.995 -22.347 -17.014  0.00  0.00    -0.380 OA
ATOM     27  H   UNL     1      28.726 -21.453 -16.745  0.00  0.00    +0.211 HD
ENDBRANCH  25  26
ENDBRANCH  24  25
ENDBRANCH   5  24
TORSDOF 5
ENDMDL
MODEL 2
REMARK VINA RESULT:      -9.3      3.298      7.036
REMARK  Name = 2856
REMARK  5 active torsions:
REMARK  status: ('A' for Active; 'I' for Inactive)
REMARK    1  A    between atoms: N_1  and  C_12
REMARK    2  A    between atoms: N_5  and  C_24
REMARK    3  A    between atoms: N_15  and  C_18
REMARK    4  A    between atoms: C_24  and  C_25
REMARK    5  A    between atoms: C_25  and  O_26
REMARK                            x       y       z     vdW  Elec       q    Type
REMARK                         _______ _______ _______ _____ _____    ______ ____
ROOT
ATOM      1  N   UNL     1      29.873 -23.371 -15.725  0.00  0.00    -0.262 N 
ATOM      2  N   UNL     1      31.052 -24.345 -14.105  0.00  0.00    -0.240 NA
ATOM      3  N   UNL     1      31.672 -22.755 -17.237  0.00  0.00    -0.311 NA
ATOM      4  N   UNL     1      33.842 -23.440 -16.358  0.00  0.00    -0.311 NA
ATOM      5  N   UNL     1      33.650 -22.336 -18.415  0.00  0.00    -0.256 N 
ATOM      6  C   UNL     1      31.180 -23.298 -16.114  0.00  0.00    +0.220 C 
ATOM      7  C   UNL     1      31.896 -23.909 -15.096  0.00  0.00    +0.168 C 
ATOM      8  C   UNL     1      29.847 -24.007 -14.513  0.00  0.00    +0.222 C 
ATOM      9  C   UNL     1      33.277 -23.970 -15.247  0.00  0.00    +0.219 C 
ATOM     10  C   UNL     1      33.017 -22.874 -17.271  0.00  0.00    +0.202 C 
ATOM     11  H   UNL     1      33.092 -21.916 -19.109  0.00  0.00    +0.160 HD
ATOM     12  N   UNL     1      34.082 -24.571 -14.263  0.00  0.00    -0.286 N 
ATOM     13  H   UNL     1      33.570 -24.924 -13.498  0.00  0.00    +0.155 HD
ENDROOT
BRANCH  12  15
ATOM     14 CL   UNL     1      38.471 -23.453 -11.855  0.00  0.00    -0.082 Cl
ATOM     15  C   UNL     1      35.474 -24.769 -14.152  0.00  0.00    +0.051 C 
ATOM     16  C   UNL     1      36.200 -24.091 -13.172  0.00  0.00    +0.026 C 
ATOM     17  C   UNL     1      36.124 -25.641 -15.025  0.00  0.00    +0.015 C 
ATOM     18  C   UNL     1      37.575 -24.287 -13.065  0.00  0.00    +0.059 C 
ATOM     19  C   UNL     1      37.500 -25.837 -14.917  0.00  0.00    +0.002 C 
ATOM     20  C   UNL     1      38.227 -25.160 -13.937  0.00  0.00    +0.011 C 
ENDBRANCH  12  15
BRANCH   1  21
ATOM     21  C   UNL     1      28.728 -22.872 -16.448  0.00  0.00    +0.077 C 
ATOM     22  C   UNL     1      27.730 -22.170 -15.525  0.00  0.00    +0.022 C 
ATOM     23  C   UNL     1      28.054 -23.966 -17.280  0.00  0.00    +0.022 C 
ENDBRANCH   1  21
BRANCH   5  24
ATOM     24  C   UNL     1      35.065 -22.379 -18.608  0.00  0.00    +0.130 C 
BRANCH  24  25
ATOM     25  C   UNL     1      35.483 -21.434 -19.723  0.00  0.00    +0.159 C 
BRANCH  25  26
ATOM     26  O   UNL     1      36.488 -20.558 -19.226  0.00  0.00    -0.380 OA
ATOM     27  H   UNL     1      36.306 -20.355 -18.294  0.00  0.00    +0.211 HD
ENDBRANCH  25  26
ENDBRANCH  24  25
ENDBRANCH   5  24
TORSDOF 5
ENDMDL
MODEL 3
REMARK VINA RESULT:      -9.2     11.562     14.596
REMARK  Name = 2856
REMARK  5 active torsions:
REMARK  status: ('A' for Active; 'I' for Inactive)
REMARK    1  A    between atoms: N_1  and  C_12
REMARK    2  A    between atoms: N_5  and  C_24
REMARK    3  A    between atoms: N_15  and  C_18
REMARK    4  A    between atoms: C_24  and  C_25
REMARK    5  A    between atoms: C_25  and  O_26
REMARK                            x       y       z     vdW  Elec       q    Type
REMARK                         _______ _______ _______ _____ _____    ______ ____
ROOT
ATOM      1  N   UNL     1      33.513 -13.503 -24.292  0.00  0.00    -0.262 N 
ATOM      2  N   UNL     1      33.807 -11.484 -25.188  0.00  0.00    -0.240 NA
ATOM      3  N   UNL     1      32.329 -12.889 -22.262  0.00  0.00    -0.311 NA
ATOM      4  N   UNL     1      32.007 -10.475 -22.119  0.00  0.00    -0.311 NA
ATOM      5  N   UNL     1      31.224 -11.914 -20.445  0.00  0.00    -0.256 N 
ATOM      6  C   UNL     1      32.943 -12.617 -23.423  0.00  0.00    +0.220 C 
ATOM      7  C   UNL     1      33.135 -11.371 -23.997  0.00  0.00    +0.168 C 
ATOM      8  C   UNL     1      34.018 -12.775 -25.336  0.00  0.00    +0.222 C 
ATOM      9  C   UNL     1      32.639 -10.274 -23.300  0.00  0.00    +0.219 C 
ATOM     10  C   UNL     1      31.893 -11.751 -21.680  0.00  0.00    +0.202 C 
ATOM     11  H   UNL     1      31.113 -12.823 -20.084  0.00  0.00    +0.160 HD
ATOM     12  N   UNL     1      32.790  -8.971 -23.808  0.00  0.00    -0.286 N 
ATOM     13  H   UNL     1      33.262  -8.938 -24.672  0.00  0.00    +0.155 HD
ENDROOT
BRANCH  12  15
ATOM     14 CL   UNL     1      30.840  -4.335 -24.818  0.00  0.00    -0.082 Cl
ATOM     15  C   UNL     1      32.398  -7.704 -23.329  0.00  0.00    +0.051 C 
ATOM     16  C   UNL     1      31.874  -6.756 -24.208  0.00  0.00    +0.026 C 
ATOM     17  C   UNL     1      32.539  -7.398 -21.976  0.00  0.00    +0.015 C 
ATOM     18  C   UNL     1      31.489  -5.504 -23.734  0.00  0.00    +0.059 C 
ATOM     19  C   UNL     1      32.153  -6.145 -21.501  0.00  0.00    +0.002 C 
ATOM     20  C   UNL     1      31.628  -5.197 -22.380  0.00  0.00    +0.011 C 
ENDBRANCH  12  15
BRANCH   1  21
ATOM     21  C   UNL     1      33.577 -14.937 -24.146  0.00  0.00    +0.077 C 
ATOM     22  C   UNL     1      34.721 -15.368 -23.226  0.00  0.00    +0.022 C 
ATOM     23  C   UNL     1      33.642 -15.649 -25.499  0.00  0.00    +0.022 C 
ENDBRANCH   1  21
BRANCH   5  24
ATOM     24  C   UNL     1      30.700 -10.814 -19.698  0.00  0.00    +0.130 C 
BRANCH  24  25
ATOM     25  C   UNL     1      31.666 -10.402 -18.600  0.00  0.00    +0.159 C 
BRANCH  25  26
ATOM     26  O   UNL     1      32.604  -9.479 -19.140  0.00  0.00    -0.380 OA
ATOM     27  H   UNL     1      33.067  -9.029 -18.415  0.00  0.00    +0.211 HD
ENDBRANCH  25  26
ENDBRANCH  24  25
ENDBRANCH   5  24
TORSDOF 5
ENDMDL
MODEL 4
REMARK VINA RESULT:      -9.2      2.637      4.986
REMARK  Name = 2856
REMARK  5 active torsions:
REMARK  status: ('A' for Active; 'I' for Inactive)
REMARK    1  A    between atoms: N_1  and  C_12
REMARK    2  A    between atoms: N_5  and  C_24
REMARK    3  A    between atoms: N_15  and  C_18
REMARK    4  A    between atoms: C_24  and  C_25
REMARK    5  A    between atoms: C_25  and  O_26
REMARK                            x       y       z     vdW  Elec       q    Type
REMARK                         _______ _______ _______ _____ _____    ______ ____
ROOT
ATOM      1  N   UNL     1      30.746 -24.188 -15.339  0.00  0.00    -0.262 N 
ATOM      2  N   UNL     1      30.604 -23.018 -17.231  0.00  0.00    -0.240 NA
ATOM      3  N   UNL     1      33.156 -24.198 -15.035  0.00  0.00    -0.311 NA
ATOM      4  N   UNL     1      34.281 -22.991 -16.833  0.00  0.00    -0.311 NA
ATOM      5  N   UNL     1      35.486 -23.989 -15.089  0.00  0.00    -0.256 N 
ATOM      6  C   UNL     1      32.029 -23.875 -15.687  0.00  0.00    +0.220 C 
ATOM      7  C   UNL     1      31.919 -23.149 -16.862  0.00  0.00    +0.168 C 
ATOM      8  C   UNL     1      29.927 -23.652 -16.297  0.00  0.00    +0.222 C 
ATOM      9  C   UNL     1      33.104 -22.701 -17.438  0.00  0.00    +0.219 C 
ATOM     10  C   UNL     1      34.234 -23.711 -15.686  0.00  0.00    +0.202 C 
ATOM     11  H   UNL     1      35.504 -24.507 -14.252  0.00  0.00    +0.160 HD
ATOM     12  N   UNL     1      33.087 -21.957 -18.631  0.00  0.00    -0.286 N 
ATOM     13  H   UNL     1      32.181 -21.802 -18.985  0.00  0.00    +0.155 HD
ENDROOT
BRANCH  12  15
ATOM     14 CL   UNL     1      34.445 -18.549 -22.216  0.00  0.00    -0.082 Cl
ATOM     15  C   UNL     1      34.109 -21.389 -19.421  0.00  0.00    +0.051 C 
ATOM     16  C   UNL     1      33.807 -20.369 -20.323  0.00  0.00    +0.026 C 
ATOM     17  C   UNL     1      35.419 -21.850 -19.301  0.00  0.00    +0.015 C 
ATOM     18  C   UNL     1      34.816 -19.809 -21.104  0.00  0.00    +0.059 C 
ATOM     19  C   UNL     1      36.429 -21.289 -20.082  0.00  0.00    +0.002 C 
ATOM     20  C   UNL     1      36.128 -20.269 -20.985  0.00  0.00    +0.011 C 
ENDBRANCH  12  15
BRANCH   1  21
ATOM     21  C   UNL     1      30.323 -24.941 -14.184  0.00  0.00    +0.077 C 
ATOM     22  C   UNL     1      28.925 -25.535 -14.368  0.00  0.00    +0.022 C 
ATOM     23  C   UNL     1      30.422 -24.121 -12.896  0.00  0.00    +0.022 C 
ENDBRANCH   1  21
BRANCH   5  24
ATOM     24  C   UNL     1      36.724 -23.547 -15.647  0.00  0.00    +0.130 C 
BRANCH  24  25
ATOM     25  C   UNL     1      37.898 -24.170 -14.910  0.00  0.00    +0.159 C 
BRANCH  25  26
ATOM     26  O   UNL     1      39.084 -23.933 -15.659  0.00  0.00    -0.380 OA
ATOM     27  H   UNL     1      39.072 -24.477 -16.463  0.00  0.00    +0.211 HD
ENDBRANCH  25  26
ENDBRANCH  24  25
ENDBRANCH   5  24
TORSDOF 5
ENDMDL
MODEL 5
REMARK VINA RESULT:      -9.2      2.860      6.648
REMARK  Name = 2856
REMARK  5 active torsions:
REMARK  status: ('A' for Active; 'I' for Inactive)
REMARK    1  A    between atoms: N_1  and  C_12
REMARK    2  A    between atoms: N_5  and  C_24
REMARK    3  A    between atoms: N_15  and  C_18
REMARK    4  A    between atoms: C_24  and  C_25
REMARK    5  A    between atoms: C_25  and  O_26
REMARK                            x       y       z     vdW  Elec       q    Type
REMARK                         _______ _______ _______ _____ _____    ______ ____
ROOT
ATOM      1  N   UNL     1      34.786 -20.997 -19.963  0.00  0.00    -0.262 N 
ATOM      2  N   UNL     1      36.600 -21.526 -18.783  0.00  0.00    -0.240 NA
ATOM      3  N   UNL     1      33.076 -22.043 -18.592  0.00  0.00    -0.311 NA
ATOM      4  N   UNL     1      34.053 -23.143 -16.644  0.00  0.00    -0.311 NA
ATOM      5  N   UNL     1      31.742 -23.163 -17.029  0.00  0.00    -0.256 N 
ATOM      6  C   UNL     1      34.342 -21.714 -18.890  0.00  0.00    +0.220 C 
ATOM      7  C   UNL     1      35.482 -22.032 -18.169  0.00  0.00    +0.168 C 
ATOM      8  C   UNL     1      36.148 -20.911 -19.855  0.00  0.00    +0.222 C 
ATOM      9  C   UNL     1      35.305 -22.775 -17.006  0.00  0.00    +0.219 C 
ATOM     10  C   UNL     1      33.031 -22.759 -17.448  0.00  0.00    +0.202 C 
ATOM     11  H   UNL     1      30.966 -22.907 -17.579  0.00  0.00    +0.160 HD
ATOM     12  N   UNL     1      36.407 -23.143 -16.214  0.00  0.00    -0.286 N 
ATOM     13  H   UNL     1      37.269 -22.824 -16.567  0.00  0.00    +0.155 HD
ENDROOT
BRANCH  12  15
ATOM     14 CL   UNL     1      36.714 -23.115 -11.093  0.00  0.00    -0.082 Cl
ATOM     15  C   UNL     1      36.522 -23.877 -15.014  0.00  0.00    +0.051 C 
ATOM     16  C   UNL     1      36.557 -23.210 -13.789  0.00  0.00    +0.026 C 
ATOM     17  C   UNL     1      36.605 -25.268 -15.055  0.00  0.00    +0.015 C 
ATOM     18  C   UNL     1      36.673 -23.936 -12.605  0.00  0.00    +0.059 C 
ATOM     19  C   UNL     1      36.720 -25.994 -13.870  0.00  0.00    +0.002 C 
ATOM     20  C   UNL     1      36.755 -25.328 -12.644  0.00  0.00    +0.011 C 
ENDBRANCH  12  15
BRANCH   1  21
ATOM     21  C   UNL     1      33.980 -20.432 -21.019  0.00  0.00    +0.077 C 
ATOM     22  C   UNL     1      34.782 -19.473 -21.900  0.00  0.00    +0.022 C 
ATOM     23  C   UNL     1      32.709 -19.774 -20.479  0.00  0.00    +0.022 C 
ENDBRANCH   1  21
BRANCH   5  24
ATOM     24  C   UNL     1      31.518 -23.926 -15.842  0.00  0.00    +0.130 C 
BRANCH  24  25
ATOM     25  C   UNL     1      31.156 -23.016 -14.680  0.00  0.00    +0.159 C 
BRANCH  25  26
ATOM     26  O   UNL     1      32.335 -22.736 -13.936  0.00  0.00    -0.380 OA
ATOM     27  H   UNL     1      32.128 -22.106 -13.227  0.00  0.00    +0.211 HD
ENDBRANCH  25  26
ENDBRANCH  24  25
ENDBRANCH   5  24
TORSDOF 5
ENDMDL
MODEL 6
REMARK VINA RESULT:      -8.9      2.673      6.602
REMARK  Name = 2856
REMARK  5 active torsions:
REMARK  status: ('A' for Active; 'I' for Inactive)
REMARK    1  A    between atoms: N_1  and  C_12
REMARK    2  A    between atoms: N_5  and  C_24
REMARK    3  A    between atoms: N_15  and  C_18
REMARK    4  A    between atoms: C_24  and  C_25
REMARK    5  A    between atoms: C_25  and  O_26
REMARK                            x       y       z     vdW  Elec       q    Type
REMARK                         _______ _______ _______ _____ _____    ______ ____
ROOT
ATOM      1  N   UNL     1      34.954 -20.654 -20.330  0.00  0.00    -0.262 N 
ATOM      2  N   UNL     1      36.686 -21.175 -19.028  0.00  0.00    -0.240 NA
ATOM      3  N   UNL     1      33.161 -21.721 -19.086  0.00  0.00    -0.311 NA
ATOM      4  N   UNL     1      34.008 -22.822 -17.079  0.00  0.00    -0.311 NA
ATOM      5  N   UNL     1      31.730 -22.858 -17.625  0.00  0.00    -0.256 N 
ATOM      6  C   UNL     1      34.442 -21.380 -19.293  0.00  0.00    +0.220 C 
ATOM      7  C   UNL     1      35.532 -21.693 -18.496  0.00  0.00    +0.168 C 
ATOM      8  C   UNL     1      36.304 -20.558 -20.127  0.00  0.00    +0.222 C 
ATOM      9  C   UNL     1      35.280 -22.443 -17.352  0.00  0.00    +0.219 C 
ATOM     10  C   UNL     1      33.042 -22.443 -17.951  0.00  0.00    +0.202 C 
ATOM     11  H   UNL     1      30.992 -22.605 -18.226  0.00  0.00    +0.160 HD
ATOM     12  N   UNL     1      36.326 -22.806 -16.486  0.00  0.00    -0.286 N 
ATOM     13  H   UNL     1      37.209 -22.479 -16.776  0.00  0.00    +0.155 HD
ENDROOT
BRANCH  12  15
ATOM     14 CL   UNL     1      39.002 -25.776 -13.271  0.00  0.00    -0.082 Cl
ATOM     15  C   UNL     1      36.364 -23.544 -15.284  0.00  0.00    +0.051 C 
ATOM     16  C   UNL     1      37.529 -24.217 -14.915  0.00  0.00    +0.026 C 
ATOM     17  C   UNL     1      35.235 -23.604 -14.468  0.00  0.00    +0.015 C 
ATOM     18  C   UNL     1      37.565 -24.947 -13.728  0.00  0.00    +0.059 C 
ATOM     19  C   UNL     1      35.271 -24.334 -13.281  0.00  0.00    +0.002 C 
ATOM     20  C   UNL     1      36.436 -25.007 -12.911  0.00  0.00    +0.011 C 
ENDBRANCH  12  15
BRANCH   1  21
ATOM     21  C   UNL     1      34.219 -20.091 -21.437  0.00  0.00    +0.077 C 
ATOM     22  C   UNL     1      35.126 -19.303 -22.384  0.00  0.00    +0.022 C 
ATOM     23  C   UNL     1      33.028 -19.253 -20.967  0.00  0.00    +0.022 C 
ENDBRANCH   1  21
BRANCH   5  24
ATOM     24  C   UNL     1      31.429 -23.628 -16.460  0.00  0.00    +0.130 C 
BRANCH  24  25
ATOM     25  C   UNL     1      30.049 -23.279 -15.927  0.00  0.00    +0.159 C 
BRANCH  25  26
ATOM     26  O   UNL     1      29.385 -22.461 -16.882  0.00  0.00    -0.380 OA
ATOM     27  H   UNL     1      30.044 -21.977 -17.406  0.00  0.00    +0.211 HD
ENDBRANCH  25  26
ENDBRANCH  24  25
ENDBRANCH   5  24
TORSDOF 5
ENDMDL
MODEL 7
REMARK VINA RESULT:      -8.6      3.830      7.618
REMARK  Name = 2856
REMARK  5 active torsions:
REMARK  status: ('A' for Active; 'I' for Inactive)
REMARK    1  A    between atoms: N_1  and  C_12
REMARK    2  A    between atoms: N_5  and  C_24
REMARK    3  A    between atoms: N_15  and  C_18
REMARK    4  A    between atoms: C_24  and  C_25
REMARK    5  A    between atoms: C_25  and  O_26
REMARK                            x       y       z     vdW  Elec       q    Type
REMARK                         _______ _______ _______ _____ _____    ______ ____
ROOT
ATOM      1  N   UNL     1      34.579 -20.387 -20.732  0.00  0.00    -0.262 N 
ATOM      2  N   UNL     1      32.611 -21.104 -19.971  0.00  0.00    -0.240 NA
ATOM      3  N   UNL     1      36.041 -21.277 -19.008  0.00  0.00    -0.311 NA
ATOM      4  N   UNL     1      34.774 -22.491 -17.312  0.00  0.00    -0.311 NA
ATOM      5  N   UNL     1      37.104 -22.283 -17.183  0.00  0.00    -0.256 N 
ATOM      6  C   UNL     1      34.845 -21.071 -19.580  0.00  0.00    +0.220 C 
ATOM      7  C   UNL     1      33.612 -21.508 -19.124  0.00  0.00    +0.168 C 
ATOM      8  C   UNL     1      33.224 -20.434 -20.924  0.00  0.00    +0.222 C 
ATOM      9  C   UNL     1      33.602 -22.244 -17.943  0.00  0.00    +0.219 C 
ATOM     10  C   UNL     1      35.905 -21.999 -17.875  0.00  0.00    +0.202 C 
ATOM     11  H   UNL     1      37.953 -21.950 -17.554  0.00  0.00    +0.160 HD
ATOM     12  N   UNL     1      32.395 -22.727 -17.408  0.00  0.00    -0.286 N 
ATOM     13  H   UNL     1      31.604 -22.492 -17.946  0.00  0.00    +0.155 HD
ENDROOT
BRANCH  12  15
ATOM     14 CL   UNL     1      28.903 -25.304 -14.673  0.00  0.00    -0.082 Cl
ATOM     15  C   UNL     1      32.092 -23.481 -16.255  0.00  0.00    +0.051 C 
ATOM     16  C   UNL     1      30.798 -23.963 -16.057  0.00  0.00    +0.026 C 
ATOM     17  C   UNL     1      33.085 -23.741 -15.312  0.00  0.00    +0.015 C 
ATOM     18  C   UNL     1      30.499 -24.707 -14.917  0.00  0.00    +0.059 C 
ATOM     19  C   UNL     1      32.786 -24.485 -14.171  0.00  0.00    +0.002 C 
ATOM     20  C   UNL     1      31.492 -24.968 -13.973  0.00  0.00    +0.011 C 
ENDBRANCH  12  15
BRANCH   1  21
ATOM     21  C   UNL     1      35.537 -19.733 -21.590  0.00  0.00    +0.077 C 
ATOM     22  C   UNL     1      36.199 -18.537 -20.903  0.00  0.00    +0.022 C 
ATOM     23  C   UNL     1      34.928 -19.343 -22.938  0.00  0.00    +0.022 C 
ENDBRANCH   1  21
BRANCH   5  24
ATOM     24  C   UNL     1      37.137 -23.035 -15.969  0.00  0.00    +0.130 C 
BRANCH  24  25
ATOM     25  C   UNL     1      38.513 -23.645 -15.752  0.00  0.00    +0.159 C 
BRANCH  25  26
ATOM     26  O   UNL     1      38.354 -25.011 -15.386  0.00  0.00    -0.380 OA
ATOM     27  H   UNL     1      37.421 -25.183 -15.181  0.00  0.00    +0.211 HD
ENDBRANCH  25  26
ENDBRANCH  24  25
ENDBRANCH   5  24
TORSDOF 5
ENDMDL
MODEL 8
REMARK VINA RESULT:      -8.5      8.608     11.814
REMARK  Name = 2856
REMARK  5 active torsions:
REMARK  status: ('A' for Active; 'I' for Inactive)
REMARK    1  A    between atoms: N_1  and  C_12
REMARK    2  A    between atoms: N_5  and  C_24
REMARK    3  A    between atoms: N_15  and  C_18
REMARK    4  A    between atoms: C_24  and  C_25
REMARK    5  A    between atoms: C_25  and  O_26
REMARK                            x       y       z     vdW  Elec       q    Type
REMARK                         _______ _______ _______ _____ _____    ______ ____
ROOT
ATOM      1  N   UNL     1      34.845 -17.043 -22.131  0.00  0.00    -0.262 N 
ATOM      2  N   UNL     1      34.395 -15.260 -20.872  0.00  0.00    -0.240 NA
ATOM      3  N   UNL     1      34.068 -16.237 -24.287  0.00  0.00    -0.311 NA
ATOM      4  N   UNL     1      33.194 -13.965 -24.122  0.00  0.00    -0.311 NA
ATOM      5  N   UNL     1      33.227 -15.116 -26.161  0.00  0.00    -0.256 N 
ATOM      6  C   UNL     1      34.297 -16.116 -22.971  0.00  0.00    +0.220 C 
ATOM      7  C   UNL     1      34.025 -15.017 -22.171  0.00  0.00    +0.168 C 
ATOM      8  C   UNL     1      34.882 -16.483 -20.882  0.00  0.00    +0.222 C 
ATOM      9  C   UNL     1      33.452 -13.912 -22.793  0.00  0.00    +0.219 C 
ATOM     10  C   UNL     1      33.513 -15.107 -24.776  0.00  0.00    +0.202 C 
ATOM     11  H   UNL     1      33.444 -15.923 -26.682  0.00  0.00    +0.160 HD
ATOM     12  N   UNL     1      33.143 -12.754 -22.058  0.00  0.00    -0.286 N 
ATOM     13  H   UNL     1      33.373 -12.821 -21.102  0.00  0.00    +0.155 HD
ENDROOT
BRANCH  12  15
ATOM     14 CL   UNL     1      33.717  -8.153 -24.252  0.00  0.00    -0.082 Cl
ATOM     15  C   UNL     1      32.571 -11.515 -22.417  0.00  0.00    +0.051 C 
ATOM     16  C   UNL     1      33.338 -10.558 -23.080  0.00  0.00    +0.026 C 
ATOM     17  C   UNL     1      31.239 -11.249 -22.105  0.00  0.00    +0.015 C 
ATOM     18  C   UNL     1      32.772  -9.334 -23.432  0.00  0.00    +0.059 C 
ATOM     19  C   UNL     1      30.672 -10.024 -22.458  0.00  0.00    +0.002 C 
ATOM     20  C   UNL     1      31.439  -9.066 -23.121  0.00  0.00    +0.011 C 
ENDBRANCH  12  15
BRANCH   1  21
ATOM     21  C   UNL     1      35.300 -18.366 -22.483  0.00  0.00    +0.077 C 
ATOM     22  C   UNL     1      34.303 -19.446 -22.060  0.00  0.00    +0.022 C 
ATOM     23  C   UNL     1      36.704 -18.652 -21.945  0.00  0.00    +0.022 C 
ENDBRANCH   1  21
BRANCH   5  24
ATOM     24  C   UNL     1      32.640 -14.003 -26.837  0.00  0.00    +0.130 C 
BRANCH  24  25
ATOM     25  C   UNL     1      33.710 -13.023 -27.287  0.00  0.00    +0.159 C 
BRANCH  25  26
ATOM     26  O   UNL     1      33.814 -11.985 -26.320  0.00  0.00    -0.380 OA
ATOM     27  H   UNL     1      33.302 -11.215 -26.617  0.00  0.00    +0.211 HD
ENDBRANCH  25  26
ENDBRANCH  24  25
ENDBRANCH   5  24
TORSDOF 5
ENDMDL
MODEL 9
REMARK VINA RESULT:      -8.4      3.720      7.557
REMARK  Name = 2856
REMARK  5 active torsions:
REMARK  status: ('A' for Active; 'I' for Inactive)
REMARK    1  A    between atoms: N_1  and  C_12
REMARK    2  A    between atoms: N_5  and  C_24
REMARK    3  A    between atoms: N_15  and  C_18
REMARK    4  A    between atoms: C_24  and  C_25
REMARK    5  A    between atoms: C_25  and  O_26
REMARK                            x       y       z     vdW  Elec       q    Type
REMARK                         _______ _______ _______ _____ _____    ______ ____
ROOT
ATOM      1  N   UNL     1      34.449 -20.077 -21.040  0.00  0.00    -0.262 N 
ATOM      2  N   UNL     1      32.416 -20.683 -20.359  0.00  0.00    -0.240 NA
ATOM      3  N   UNL     1      35.797 -21.111 -19.304  0.00  0.00    -0.311 NA
ATOM      4  N   UNL     1      34.402 -22.286 -17.682  0.00  0.00    -0.311 NA
ATOM      5  N   UNL     1      36.735 -22.237 -17.480  0.00  0.00    -0.256 N 
ATOM      6  C   UNL     1      34.635 -20.809 -19.903  0.00  0.00    +0.220 C 
ATOM      7  C   UNL     1      33.362 -21.176 -19.496  0.00  0.00    +0.168 C 
ATOM      8  C   UNL     1      33.101 -20.029 -21.273  0.00  0.00    +0.222 C 
ATOM      9  C   UNL     1      33.268 -21.943 -18.339  0.00  0.00    +0.219 C 
ATOM     10  C   UNL     1      35.578 -21.854 -18.197  0.00  0.00    +0.202 C 
ATOM     11  H   UNL     1      37.615 -21.950 -17.816  0.00  0.00    +0.160 HD
ATOM     12  N   UNL     1      32.016 -22.361 -17.853  0.00  0.00    -0.286 N 
ATOM     13  H   UNL     1      31.259 -22.059 -18.406  0.00  0.00    +0.155 HD
ENDROOT
BRANCH  12  15
ATOM     14 CL   UNL     1      33.326 -24.564 -13.410  0.00  0.00    -0.082 Cl
ATOM     15  C   UNL     1      31.629 -23.125 -16.733  0.00  0.00    +0.051 C 
ATOM     16  C   UNL     1      32.561 -23.431 -15.741  0.00  0.00    +0.026 C 
ATOM     17  C   UNL     1      30.315 -23.577 -16.619  0.00  0.00    +0.015 C 
ATOM     18  C   UNL     1      32.178 -24.188 -14.635  0.00  0.00    +0.059 C 
ATOM     19  C   UNL     1      29.931 -24.334 -15.513  0.00  0.00    +0.002 C 
ATOM     20  C   UNL     1      30.863 -24.640 -14.520  0.00  0.00    +0.011 C 
ENDBRANCH  12  15
BRANCH   1  21
ATOM     21  C   UNL     1      35.474 -19.464 -21.850  0.00  0.00    +0.077 C 
ATOM     22  C   UNL     1      35.979 -18.155 -21.241  0.00  0.00    +0.022 C 
ATOM     23  C   UNL     1      35.023 -19.274 -23.300  0.00  0.00    +0.022 C 
ENDBRANCH   1  21
BRANCH   5  24
ATOM     24  C   UNL     1      36.682 -23.024 -16.289  0.00  0.00    +0.130 C 
BRANCH  24  25
ATOM     25  C   UNL     1      37.922 -22.798 -15.440  0.00  0.00    +0.159 C 
BRANCH  25  26
ATOM     26  O   UNL     1      38.939 -23.693 -15.872  0.00  0.00    -0.380 OA
ATOM     27  H   UNL     1      38.571 -24.309 -16.525  0.00  0.00    +0.211 HD
ENDBRANCH  25  26
ENDBRANCH  24  25
ENDBRANCH   5  24
TORSDOF 5
ENDMDL
