MODEL 1
REMARK VINA RESULT:      -8.7      0.000      0.000
REMARK  Name = 5568
REMARK  5 active torsions:
REMARK  status: ('A' for Active; 'I' for Inactive)
REMARK    1  A    between atoms: N_2  and  C_19
REMARK    2  A    between atoms: C_9  and  C_18
REMARK    3  A    between atoms: C_19  and  C_20
REMARK    4  A    between atoms: C_20  and  C_21
REMARK    5  A    between atoms: C_21  and  N_22
REMARK                            x       y       z     vdW  Elec       q    Type
REMARK                         _______ _______ _______ _____ _____    ______ ____
ROOT
ATOM      1  S   UNL     1      34.642 -15.856 -21.381  0.00  0.00    -0.084 S 
ATOM      2  N   UNL     1      33.385 -14.533 -23.897  0.00  0.00    -0.286 N 
ATOM      3  C   UNL     1      33.005 -13.970 -22.652  0.00  0.00    +0.058 C 
ATOM      4  C   UNL     1      33.888 -15.846 -24.079  0.00  0.00    +0.058 C 
ATOM      5  C   UNL     1      33.490 -14.498 -21.438  0.00  0.00    +0.043 C 
ATOM      6  C   UNL     1      34.461 -16.559 -23.007  0.00  0.00    +0.043 C 
ATOM      7  C   UNL     1      32.103 -12.888 -22.565  0.00  0.00    +0.019 C 
ATOM      8  C   UNL     1      33.809 -16.512 -25.322  0.00  0.00    +0.015 C 
ATOM      9  C   UNL     1      31.719 -12.342 -21.338  0.00  0.00    +0.073 C 
ATOM     10  C   UNL     1      33.104 -13.941 -20.206  0.00  0.00    +0.008 C 
ATOM     11  C   UNL     1      34.952 -17.865 -23.191  0.00  0.00    +0.008 C 
ATOM     12  C   UNL     1      32.222 -12.866 -20.157  0.00  0.00    +0.004 C 
ATOM     13  C   UNL     1      34.295 -17.811 -25.498  0.00  0.00    +0.001 C 
ATOM     14  C   UNL     1      34.870 -18.487 -24.432  0.00  0.00    +0.001 C 
ENDROOT
BRANCH   9  18
ATOM     15  F   UNL     1      29.599 -11.467 -20.656  0.00  0.00    -0.166 F 
ATOM     16  F   UNL     1      31.274 -10.091 -20.661  0.00  0.00    -0.166 F 
ATOM     17  F   UNL     1      30.415 -10.760 -22.542  0.00  0.00    -0.166 F 
ATOM     18  C   UNL     1      30.771 -11.189 -21.298  0.00  0.00    +0.419 C 
ENDBRANCH   9  18
BRANCH   2  19
ATOM     19  C   UNL     1      33.176 -13.717 -25.100  0.00  0.00    +0.093 C 
BRANCH  19  20
ATOM     20  C   UNL     1      34.309 -12.705 -25.271  0.00  0.00    -0.001 C 
BRANCH  20  21
ATOM     21  C   UNL     1      33.936 -11.264 -24.908  0.00  0.00    -0.076 C 
BRANCH  21  22
ATOM     22  N   UNL     1      35.112 -10.415 -24.769  0.00  0.00    +0.384 N 
ATOM     23  C   UNL     1      34.750  -9.123 -24.182  0.00  0.00    -0.101 C 
ATOM     24  C   UNL     1      35.762 -10.218 -26.066  0.00  0.00    -0.101 C 
ATOM     25  H   UNL     1      35.770 -10.881 -24.144  0.00  0.00    -0.080 HD
ENDBRANCH  21  22
ENDBRANCH  20  21
ENDBRANCH  19  20
ENDBRANCH   2  19
TORSDOF 5
ENDMDL
MODEL 2
REMARK VINA RESULT:      -8.6      4.322      6.962
REMARK  Name = 5568
REMARK  5 active torsions:
REMARK  status: ('A' for Active; 'I' for Inactive)
REMARK    1  A    between atoms: N_2  and  C_19
REMARK    2  A    between atoms: C_9  and  C_18
REMARK    3  A    between atoms: C_19  and  C_20
REMARK    4  A    between atoms: C_20  and  C_21
REMARK    5  A    between atoms: C_21  and  N_22
REMARK                            x       y       z     vdW  Elec       q    Type
REMARK                         _______ _______ _______ _____ _____    ______ ____
ROOT
ATOM      1  S   UNL     1      32.288  -7.616 -19.914  0.00  0.00    -0.084 S 
ATOM      2  N   UNL     1      32.287  -8.879 -22.754  0.00  0.00    -0.286 N 
ATOM      3  C   UNL     1      32.103  -7.474 -22.707  0.00  0.00    +0.058 C 
ATOM      4  C   UNL     1      32.029  -9.772 -21.684  0.00  0.00    +0.058 C 
ATOM      5  C   UNL     1      32.061  -6.788 -21.476  0.00  0.00    +0.043 C 
ATOM      6  C   UNL     1      31.980  -9.315 -20.352  0.00  0.00    +0.043 C 
ATOM      7  C   UNL     1      31.917  -6.704 -23.875  0.00  0.00    +0.019 C 
ATOM      8  C   UNL     1      31.775 -11.145 -21.900  0.00  0.00    +0.015 C 
ATOM      9  C   UNL     1      31.723  -5.321 -23.827  0.00  0.00    +0.073 C 
ATOM     10  C   UNL     1      31.871  -5.396 -21.434  0.00  0.00    +0.008 C 
ATOM     11  C   UNL     1      31.717 -10.204 -19.294  0.00  0.00    +0.008 C 
ATOM     12  C   UNL     1      31.703  -4.665 -22.605  0.00  0.00    +0.004 C 
ATOM     13  C   UNL     1      31.510 -12.023 -20.845  0.00  0.00    +0.001 C 
ATOM     14  C   UNL     1      31.483 -11.553 -19.541  0.00  0.00    +0.001 C 
ENDROOT
BRANCH   9  18
ATOM     15  F   UNL     1      32.065  -3.287 -25.040  0.00  0.00    -0.166 F 
ATOM     16  F   UNL     1      32.132  -5.133 -26.176  0.00  0.00    -0.166 F 
ATOM     17  F   UNL     1      30.231  -4.389 -25.427  0.00  0.00    -0.166 F 
ATOM     18  C   UNL     1      31.544  -4.548 -25.092  0.00  0.00    +0.419 C 
ENDBRANCH   9  18
BRANCH   2  19
ATOM     19  C   UNL     1      32.712  -9.462 -24.034  0.00  0.00    +0.093 C 
BRANCH  19  20
ATOM     20  C   UNL     1      34.212  -9.757 -24.023  0.00  0.00    -0.001 C 
BRANCH  20  21
ATOM     21  C   UNL     1      34.647 -10.883 -24.965  0.00  0.00    -0.076 C 
BRANCH  21  22
ATOM     22  N   UNL     1      33.638 -11.930 -25.064  0.00  0.00    +0.384 N 
ATOM     23  C   UNL     1      33.909 -13.001 -24.103  0.00  0.00    -0.101 C 
ATOM     24  C   UNL     1      33.589 -12.471 -26.424  0.00  0.00    -0.101 C 
ATOM     25  H   UNL     1      32.730 -11.520 -24.845  0.00  0.00    -0.080 HD
ENDBRANCH  21  22
ENDBRANCH  20  21
ENDBRANCH  19  20
ENDBRANCH   2  19
TORSDOF 5
ENDMDL
MODEL 3
REMARK VINA RESULT:      -8.5      2.196      4.218
REMARK  Name = 5568
REMARK  5 active torsions:
REMARK  status: ('A' for Active; 'I' for Inactive)
REMARK    1  A    between atoms: N_2  and  C_19
REMARK    2  A    between atoms: C_9  and  C_18
REMARK    3  A    between atoms: C_19  and  C_20
REMARK    4  A    between atoms: C_20  and  C_21
REMARK    5  A    between atoms: C_21  and  N_22
REMARK                            x       y       z     vdW  Elec       q    Type
REMARK                         _______ _______ _______ _____ _____    ______ ____
ROOT
ATOM      1  S   UNL     1      33.461 -15.393 -25.966  0.00  0.00    -0.084 S 
ATOM      2  N   UNL     1      33.874 -14.602 -22.989  0.00  0.00    -0.286 N 
ATOM      3  C   UNL     1      33.767 -13.523 -23.902  0.00  0.00    +0.058 C 
ATOM      4  C   UNL     1      34.249 -15.926 -23.331  0.00  0.00    +0.058 C 
ATOM      5  C   UNL     1      33.601 -13.754 -25.283  0.00  0.00    +0.043 C 
ATOM      6  C   UNL     1      34.131 -16.395 -24.654  0.00  0.00    +0.043 C 
ATOM      7  C   UNL     1      33.856 -12.177 -23.484  0.00  0.00    +0.019 C 
ATOM      8  C   UNL     1      34.788 -16.820 -22.380  0.00  0.00    +0.015 C 
ATOM      9  C   UNL     1      33.762 -11.114 -24.386  0.00  0.00    +0.073 C 
ATOM     10  C   UNL     1      33.501 -12.680 -26.185  0.00  0.00    +0.008 C 
ATOM     11  C   UNL     1      34.511 -17.707 -24.990  0.00  0.00    +0.008 C 
ATOM     12  C   UNL     1      33.581 -11.366 -25.738  0.00  0.00    +0.004 C 
ATOM     13  C   UNL     1      35.168 -18.122 -22.720  0.00  0.00    +0.001 C 
ATOM     14  C   UNL     1      35.026 -18.567 -24.026  0.00  0.00    +0.001 C 
ENDROOT
BRANCH   9  18
ATOM     15  F   UNL     1      33.151  -8.817 -24.656  0.00  0.00    -0.166 F 
ATOM     16  F   UNL     1      33.373  -9.543 -22.625  0.00  0.00    -0.166 F 
ATOM     17  F   UNL     1      35.131  -9.241 -23.867  0.00  0.00    -0.166 F 
ATOM     18  C   UNL     1      33.850  -9.708 -23.894  0.00  0.00    +0.419 C 
ENDBRANCH   9  18
BRANCH   2  19
ATOM     19  C   UNL     1      33.647 -14.310 -21.567  0.00  0.00    +0.093 C 
BRANCH  19  20
ATOM     20  C   UNL     1      32.230 -13.785 -21.342  0.00  0.00    -0.001 C 
BRANCH  20  21
ATOM     21  C   UNL     1      32.063 -12.916 -20.092  0.00  0.00    -0.076 C 
BRANCH  21  22
ATOM     22  N   UNL     1      31.829 -11.517 -20.428  0.00  0.00    +0.384 N 
ATOM     23  C   UNL     1      31.392 -10.769 -19.247  0.00  0.00    -0.101 C 
ATOM     24  C   UNL     1      30.836 -11.403 -21.497  0.00  0.00    -0.101 C 
ATOM     25  H   UNL     1      32.707 -11.117 -20.757  0.00  0.00    -0.080 HD
ENDBRANCH  21  22
ENDBRANCH  20  21
ENDBRANCH  19  20
ENDBRANCH   2  19
TORSDOF 5
ENDMDL
MODEL 4
REMARK VINA RESULT:      -8.5      8.838     11.660
REMARK  Name = 5568
REMARK  5 active torsions:
REMARK  status: ('A' for Active; 'I' for Inactive)
REMARK    1  A    between atoms: N_2  and  C_19
REMARK    2  A    between atoms: C_9  and  C_18
REMARK    3  A    between atoms: C_19  and  C_20
REMARK    4  A    between atoms: C_20  and  C_21
REMARK    5  A    between atoms: C_21  and  N_22
REMARK                            x       y       z     vdW  Elec       q    Type
REMARK                         _______ _______ _______ _____ _____    ______ ____
ROOT
ATOM      1  S   UNL     1      37.356 -22.363 -16.982  0.00  0.00    -0.084 S 
ATOM      2  N   UNL     1      34.307 -22.922 -17.204  0.00  0.00    -0.286 N 
ATOM      3  C   UNL     1      34.841 -22.035 -18.173  0.00  0.00    +0.058 C 
ATOM      4  C   UNL     1      34.893 -23.204 -15.945  0.00  0.00    +0.058 C 
ATOM      5  C   UNL     1      36.206 -21.685 -18.162  0.00  0.00    +0.043 C 
ATOM      6  C   UNL     1      36.263 -22.970 -15.714  0.00  0.00    +0.043 C 
ATOM      7  C   UNL     1      34.034 -21.435 -19.164  0.00  0.00    +0.019 C 
ATOM      8  C   UNL     1      34.135 -23.694 -14.859  0.00  0.00    +0.015 C 
ATOM      9  C   UNL     1      34.558 -20.552 -20.111  0.00  0.00    +0.073 C 
ATOM     10  C   UNL     1      36.729 -20.799 -19.121  0.00  0.00    +0.008 C 
ATOM     11  C   UNL     1      36.839 -23.244 -14.459  0.00  0.00    +0.008 C 
ATOM     12  C   UNL     1      35.908 -20.235 -20.091  0.00  0.00    +0.004 C 
ATOM     13  C   UNL     1      34.712 -23.961 -13.614  0.00  0.00    +0.001 C 
ATOM     14  C   UNL     1      36.066 -23.739 -13.415  0.00  0.00    +0.001 C 
ENDROOT
BRANCH   9  18
ATOM     15  F   UNL     1      34.188 -19.995 -22.408  0.00  0.00    -0.166 F 
ATOM     16  F   UNL     1      32.451 -20.568 -21.242  0.00  0.00    -0.166 F 
ATOM     17  F   UNL     1      33.393 -18.638 -20.907  0.00  0.00    -0.166 F 
ATOM     18  C   UNL     1      33.666 -19.953 -21.147  0.00  0.00    +0.419 C 
ENDBRANCH   9  18
BRANCH   2  19
ATOM     19  C   UNL     1      33.009 -23.544 -17.500  0.00  0.00    +0.093 C 
BRANCH  19  20
ATOM     20  C   UNL     1      31.871 -22.758 -16.852  0.00  0.00    -0.001 C 
BRANCH  20  21
ATOM     21  C   UNL     1      30.718 -23.619 -16.329  0.00  0.00    -0.076 C 
BRANCH  21  22
ATOM     22  N   UNL     1      29.432 -22.945 -16.460  0.00  0.00    +0.384 N 
ATOM     23  C   UNL     1      29.061 -22.292 -15.203  0.00  0.00    -0.101 C 
ATOM     24  C   UNL     1      28.392 -23.894 -16.864  0.00  0.00    -0.101 C 
ATOM     25  H   UNL     1      29.518 -22.231 -17.183  0.00  0.00    -0.080 HD
ENDBRANCH  21  22
ENDBRANCH  20  21
ENDBRANCH  19  20
ENDBRANCH   2  19
TORSDOF 5
ENDMDL
MODEL 5
REMARK VINA RESULT:      -8.3     10.462     13.219
REMARK  Name = 5568
REMARK  5 active torsions:
REMARK  status: ('A' for Active; 'I' for Inactive)
REMARK    1  A    between atoms: N_2  and  C_19
REMARK    2  A    between atoms: C_9  and  C_18
REMARK    3  A    between atoms: C_19  and  C_20
REMARK    4  A    between atoms: C_20  and  C_21
REMARK    5  A    between atoms: C_21  and  N_22
REMARK                            x       y       z     vdW  Elec       q    Type
REMARK                         _______ _______ _______ _____ _____    ______ ____
ROOT
ATOM      1  S   UNL     1      37.778 -23.127 -15.293  0.00  0.00    -0.084 S 
ATOM      2  N   UNL     1      34.726 -23.704 -15.166  0.00  0.00    -0.286 N 
ATOM      3  C   UNL     1      35.175 -23.017 -16.324  0.00  0.00    +0.058 C 
ATOM      4  C   UNL     1      35.412 -23.746 -13.927  0.00  0.00    +0.058 C 
ATOM      5  C   UNL     1      36.533 -22.678 -16.486  0.00  0.00    +0.043 C 
ATOM      6  C   UNL     1      36.793 -23.479 -13.851  0.00  0.00    +0.043 C 
ATOM      7  C   UNL     1      34.287 -22.611 -17.344  0.00  0.00    +0.019 C 
ATOM      8  C   UNL     1      34.745 -24.019 -12.712  0.00  0.00    +0.015 C 
ATOM      9  C   UNL     1      34.727 -21.925 -18.478  0.00  0.00    +0.073 C 
ATOM     10  C   UNL     1      36.971 -21.992 -17.632  0.00  0.00    +0.008 C 
ATOM     11  C   UNL     1      37.468 -23.515 -12.617  0.00  0.00    +0.008 C 
ATOM     12  C   UNL     1      36.072 -21.617 -18.624  0.00  0.00    +0.004 C 
ATOM     13  C   UNL     1      35.419 -24.050 -11.488  0.00  0.00    +0.001 C 
ATOM     14  C   UNL     1      36.783 -23.800 -11.441  0.00  0.00    +0.001 C 
ENDROOT
BRANCH   9  18
ATOM     15  F   UNL     1      32.707 -20.785 -19.065  0.00  0.00    -0.166 F 
ATOM     16  F   UNL     1      34.304 -20.776 -20.533  0.00  0.00    -0.166 F 
ATOM     17  F   UNL     1      33.186 -22.602 -20.157  0.00  0.00    -0.166 F 
ATOM     18  C   UNL     1      33.752 -21.528 -19.536  0.00  0.00    +0.419 C 
ENDBRANCH   9  18
BRANCH   2  19
ATOM     19  C   UNL     1      33.416 -24.364 -15.238  0.00  0.00    +0.093 C 
BRANCH  19  20
ATOM     20  C   UNL     1      32.296 -23.385 -14.890  0.00  0.00    -0.001 C 
BRANCH  20  21
ATOM     21  C   UNL     1      31.066 -23.475 -15.797  0.00  0.00    -0.076 C 
BRANCH  21  22
ATOM     22  N   UNL     1      29.878 -23.895 -15.064  0.00  0.00    +0.384 N 
ATOM     23  C   UNL     1      29.872 -25.348 -14.880  0.00  0.00    -0.101 C 
ATOM     24  C   UNL     1      28.664 -23.467 -15.762  0.00  0.00    -0.101 C 
ATOM     25  H   UNL     1      29.897 -23.453 -14.146  0.00  0.00    -0.080 HD
ENDBRANCH  21  22
ENDBRANCH  20  21
ENDBRANCH  19  20
ENDBRANCH   2  19
TORSDOF 5
ENDMDL
MODEL 6
REMARK VINA RESULT:      -8.0      4.632      6.978
REMARK  Name = 5568
REMARK  5 active torsions:
REMARK  status: ('A' for Active; 'I' for Inactive)
REMARK    1  A    between atoms: N_2  and  C_19
REMARK    2  A    between atoms: C_9  and  C_18
REMARK    3  A    between atoms: C_19  and  C_20
REMARK    4  A    between atoms: C_20  and  C_21
REMARK    5  A    between atoms: C_21  and  N_22
REMARK                            x       y       z     vdW  Elec       q    Type
REMARK                         _______ _______ _______ _____ _____    ______ ____
ROOT
ATOM      1  S   UNL     1      32.254  -7.547 -19.873  0.00  0.00    -0.084 S 
ATOM      2  N   UNL     1      32.191  -8.754 -22.737  0.00  0.00    -0.286 N 
ATOM      3  C   UNL     1      32.026  -7.347 -22.659  0.00  0.00    +0.058 C 
ATOM      4  C   UNL     1      31.939  -9.664 -21.681  0.00  0.00    +0.058 C 
ATOM      5  C   UNL     1      32.012  -6.686 -21.415  0.00  0.00    +0.043 C 
ATOM      6  C   UNL     1      31.918  -9.233 -20.340  0.00  0.00    +0.043 C 
ATOM      7  C   UNL     1      31.831  -6.552 -23.809  0.00  0.00    +0.019 C 
ATOM      8  C   UNL     1      31.664 -11.029 -21.919  0.00  0.00    +0.015 C 
ATOM      9  C   UNL     1      31.656  -5.168 -23.731  0.00  0.00    +0.073 C 
ATOM     10  C   UNL     1      31.841  -5.292 -21.342  0.00  0.00    +0.008 C 
ATOM     11  C   UNL     1      31.660 -10.140 -19.295  0.00  0.00    +0.008 C 
ATOM     12  C   UNL     1      31.663  -4.537 -22.496  0.00  0.00    +0.004 C 
ATOM     13  C   UNL     1      31.405 -11.925 -20.878  0.00  0.00    +0.001 C 
ATOM     14  C   UNL     1      31.405 -11.480 -19.564  0.00  0.00    +0.001 C 
ENDROOT
BRANCH   9  18
ATOM     15  F   UNL     1      30.175  -3.975 -25.182  0.00  0.00    -0.166 F 
ATOM     16  F   UNL     1      32.199  -3.217 -25.003  0.00  0.00    -0.166 F 
ATOM     17  F   UNL     1      31.822  -5.055 -26.100  0.00  0.00    -0.166 F 
ATOM     18  C   UNL     1      31.466  -4.368 -24.977  0.00  0.00    +0.419 C 
ENDBRANCH   9  18
BRANCH   2  19
ATOM     19  C   UNL     1      32.588  -9.316 -24.035  0.00  0.00    +0.093 C 
BRANCH  19  20
ATOM     20  C   UNL     1      34.094  -9.577 -24.074  0.00  0.00    -0.001 C 
BRANCH  20  21
ATOM     21  C   UNL     1      34.483 -11.057 -24.129  0.00  0.00    -0.076 C 
BRANCH  21  22
ATOM     22  N   UNL     1      34.895 -11.463 -25.467  0.00  0.00    +0.384 N 
ATOM     23  C   UNL     1      35.514 -10.343 -26.178  0.00  0.00    -0.101 C 
ATOM     24  C   UNL     1      33.752 -11.976 -26.224  0.00  0.00    -0.101 C 
ATOM     25  H   UNL     1      35.584 -12.209 -25.375  0.00  0.00    -0.080 HD
ENDBRANCH  21  22
ENDBRANCH  20  21
ENDBRANCH  19  20
ENDBRANCH   2  19
TORSDOF 5
ENDMDL
MODEL 7
REMARK VINA RESULT:      -8.0     11.012     13.702
REMARK  Name = 5568
REMARK  5 active torsions:
REMARK  status: ('A' for Active; 'I' for Inactive)
REMARK    1  A    between atoms: N_2  and  C_19
REMARK    2  A    between atoms: C_9  and  C_18
REMARK    3  A    between atoms: C_19  and  C_20
REMARK    4  A    between atoms: C_20  and  C_21
REMARK    5  A    between atoms: C_21  and  N_22
REMARK                            x       y       z     vdW  Elec       q    Type
REMARK                         _______ _______ _______ _____ _____    ______ ____
ROOT
ATOM      1  S   UNL     1      33.462 -22.702 -18.407  0.00  0.00    -0.084 S 
ATOM      2  N   UNL     1      34.797 -23.483 -15.710  0.00  0.00    -0.286 N 
ATOM      3  C   UNL     1      33.381 -23.559 -15.740  0.00  0.00    +0.058 C 
ATOM      4  C   UNL     1      35.590 -22.698 -16.583  0.00  0.00    +0.058 C 
ATOM      5  C   UNL     1      32.659 -23.208 -16.899  0.00  0.00    +0.043 C 
ATOM      6  C   UNL     1      35.087 -22.261 -17.826  0.00  0.00    +0.043 C 
ATOM      7  C   UNL     1      32.629 -23.951 -14.612  0.00  0.00    +0.019 C 
ATOM      8  C   UNL     1      36.897 -22.287 -16.241  0.00  0.00    +0.015 C 
ATOM      9  C   UNL     1      31.233 -24.015 -14.637  0.00  0.00    +0.073 C 
ATOM     10  C   UNL     1      31.255 -23.279 -16.921  0.00  0.00    +0.008 C 
ATOM     11  C   UNL     1      35.876 -21.476 -18.686  0.00  0.00    +0.008 C 
ATOM     12  C   UNL     1      30.545 -23.681 -15.794  0.00  0.00    +0.004 C 
ATOM     13  C   UNL     1      37.675 -21.503 -17.098  0.00  0.00    +0.001 C 
ATOM     14  C   UNL     1      37.165 -21.099 -18.323  0.00  0.00    +0.001 C 
ENDROOT
BRANCH   9  18
ATOM     15  F   UNL     1      30.366 -23.470 -12.475  0.00  0.00    -0.166 F 
ATOM     16  F   UNL     1      29.204 -24.846 -13.684  0.00  0.00    -0.166 F 
ATOM     17  F   UNL     1      31.074 -25.501 -12.789  0.00  0.00    -0.166 F 
ATOM     18  C   UNL     1      30.483 -24.447 -13.422  0.00  0.00    +0.419 C 
ENDBRANCH   9  18
BRANCH   2  19
ATOM     19  C   UNL     1      35.491 -24.222 -14.647  0.00  0.00    +0.093 C 
BRANCH  19  20
ATOM     20  C   UNL     1      35.736 -25.671 -15.066  0.00  0.00    -0.001 C 
BRANCH  20  21
ATOM     21  C   UNL     1      37.202 -26.110 -15.016  0.00  0.00    -0.076 C 
BRANCH  21  22
ATOM     22  N   UNL     1      38.008 -25.225 -14.184  0.00  0.00    +0.384 N 
ATOM     23  C   UNL     1      39.319 -24.995 -14.794  0.00  0.00    -0.101 C 
ATOM     24  C   UNL     1      38.164 -25.783 -12.840  0.00  0.00    -0.101 C 
ATOM     25  H   UNL     1      37.524 -24.330 -14.110  0.00  0.00    -0.080 HD
ENDBRANCH  21  22
ENDBRANCH  20  21
ENDBRANCH  19  20
ENDBRANCH   2  19
TORSDOF 5
ENDMDL
MODEL 8
REMARK VINA RESULT:      -8.0      3.349      6.134
REMARK  Name = 5568
REMARK  5 active torsions:
REMARK  status: ('A' for Active; 'I' for Inactive)
REMARK    1  A    between atoms: N_2  and  C_19
REMARK    2  A    between atoms: C_9  and  C_18
REMARK    3  A    between atoms: C_19  and  C_20
REMARK    4  A    between atoms: C_20  and  C_21
REMARK    5  A    between atoms: C_21  and  N_22
REMARK                            x       y       z     vdW  Elec       q    Type
REMARK                         _______ _______ _______ _____ _____    ______ ____
ROOT
ATOM      1  S   UNL     1      31.297 -10.789 -21.979  0.00  0.00    -0.084 S 
ATOM      2  N   UNL     1      33.752 -11.063 -23.866  0.00  0.00    -0.286 N 
ATOM      3  C   UNL     1      33.389 -12.236 -23.156  0.00  0.00    +0.058 C 
ATOM      4  C   UNL     1      33.416  -9.741 -23.483  0.00  0.00    +0.058 C 
ATOM      5  C   UNL     1      32.307 -12.231 -22.252  0.00  0.00    +0.043 C 
ATOM      6  C   UNL     1      32.337  -9.489 -22.612  0.00  0.00    +0.043 C 
ATOM      7  C   UNL     1      34.107 -13.443 -23.289  0.00  0.00    +0.019 C 
ATOM      8  C   UNL     1      34.159  -8.623 -23.922  0.00  0.00    +0.015 C 
ATOM      9  C   UNL     1      33.757 -14.595 -22.580  0.00  0.00    +0.073 C 
ATOM     10  C   UNL     1      31.956 -13.394 -21.545  0.00  0.00    +0.008 C 
ATOM     11  C   UNL     1      32.012  -8.174 -22.229  0.00  0.00    +0.008 C 
ATOM     12  C   UNL     1      32.678 -14.572 -21.709  0.00  0.00    +0.004 C 
ATOM     13  C   UNL     1      33.834  -7.319 -23.535  0.00  0.00    +0.001 C 
ATOM     14  C   UNL     1      32.757  -7.095 -22.690  0.00  0.00    +0.001 C 
ENDROOT
BRANCH   9  18
ATOM     15  F   UNL     1      35.277 -16.203 -21.670  0.00  0.00    -0.166 F 
ATOM     16  F   UNL     1      33.765 -16.943 -23.037  0.00  0.00    -0.166 F 
ATOM     17  F   UNL     1      35.430 -15.769 -23.794  0.00  0.00    -0.166 F 
ATOM     18  C   UNL     1      34.540 -15.852 -22.764  0.00  0.00    +0.419 C 
ENDBRANCH   9  18
BRANCH   2  19
ATOM     19  C   UNL     1      34.601 -11.228 -25.054  0.00  0.00    +0.093 C 
BRANCH  19  20
ATOM     20  C   UNL     1      33.766 -11.654 -26.261  0.00  0.00    -0.001 C 
BRANCH  20  21
ATOM     21  C   UNL     1      34.318 -12.863 -27.022  0.00  0.00    -0.076 C 
BRANCH  21  22
ATOM     22  N   UNL     1      33.271 -13.821 -27.355  0.00  0.00    +0.384 N 
ATOM     23  C   UNL     1      31.969 -13.156 -27.436  0.00  0.00    -0.101 C 
ATOM     24  C   UNL     1      33.227 -14.901 -26.366  0.00  0.00    -0.101 C 
ATOM     25  H   UNL     1      33.486 -14.225 -28.266  0.00  0.00    -0.080 HD
ENDBRANCH  21  22
ENDBRANCH  20  21
ENDBRANCH  19  20
ENDBRANCH   2  19
TORSDOF 5
ENDMDL
MODEL 9
REMARK VINA RESULT:      -7.9      3.412      6.751
REMARK  Name = 5568
REMARK  5 active torsions:
REMARK  status: ('A' for Active; 'I' for Inactive)
REMARK    1  A    between atoms: N_2  and  C_19
REMARK    2  A    between atoms: C_9  and  C_18
REMARK    3  A    between atoms: C_19  and  C_20
REMARK    4  A    between atoms: C_20  and  C_21
REMARK    5  A    between atoms: C_21  and  N_22
REMARK                            x       y       z     vdW  Elec       q    Type
REMARK                         _______ _______ _______ _____ _____    ______ ____
ROOT
ATOM      1  S   UNL     1      33.343  -9.777 -23.026  0.00  0.00    -0.084 S 
ATOM      2  N   UNL     1      32.681 -12.639 -22.011  0.00  0.00    -0.286 N 
ATOM      3  C   UNL     1      32.995 -12.534 -23.390  0.00  0.00    +0.058 C 
ATOM      4  C   UNL     1      32.218 -11.576 -21.196  0.00  0.00    +0.058 C 
ATOM      5  C   UNL     1      33.290 -11.285 -23.974  0.00  0.00    +0.043 C 
ATOM      6  C   UNL     1      32.437 -10.233 -21.562  0.00  0.00    +0.043 C 
ATOM      7  C   UNL     1      32.991 -13.656 -24.246  0.00  0.00    +0.019 C 
ATOM      8  C   UNL     1      31.492 -11.805 -20.006  0.00  0.00    +0.015 C 
ATOM      9  C   UNL     1      33.289 -13.550 -25.607  0.00  0.00    +0.073 C 
ATOM     10  C   UNL     1      33.593 -11.185 -25.343  0.00  0.00    +0.008 C 
ATOM     11  C   UNL     1      31.970  -9.180 -20.753  0.00  0.00    +0.008 C 
ATOM     12  C   UNL     1      33.593 -12.314 -26.156  0.00  0.00    +0.004 C 
ATOM     13  C   UNL     1      31.027 -10.756 -19.209  0.00  0.00    +0.001 C 
ATOM     14  C   UNL     1      31.268  -9.442 -19.581  0.00  0.00    +0.001 C 
ENDROOT
BRANCH   9  18
ATOM     15  F   UNL     1      34.113 -15.758 -26.021  0.00  0.00    -0.166 F 
ATOM     16  F   UNL     1      32.056 -15.355 -26.579  0.00  0.00    -0.166 F 
ATOM     17  F   UNL     1      33.683 -14.508 -27.747  0.00  0.00    -0.166 F 
ATOM     18  C   UNL     1      33.285 -14.769 -26.469  0.00  0.00    +0.419 C 
ENDBRANCH   9  18
BRANCH   2  19
ATOM     19  C   UNL     1      32.776 -13.970 -21.396  0.00  0.00    +0.093 C 
BRANCH  19  20
ATOM     20  C   UNL     1      34.227 -14.306 -21.055  0.00  0.00    -0.001 C 
BRANCH  20  21
ATOM     21  C   UNL     1      34.472 -15.773 -20.688  0.00  0.00    -0.076 C 
BRANCH  21  22
ATOM     22  N   UNL     1      34.214 -16.666 -21.811  0.00  0.00    +0.384 N 
ATOM     23  C   UNL     1      34.295 -18.065 -21.386  0.00  0.00    -0.101 C 
ATOM     24  C   UNL     1      35.160 -16.411 -22.899  0.00  0.00    -0.101 C 
ATOM     25  H   UNL     1      33.271 -16.485 -22.152  0.00  0.00    -0.080 HD
ENDBRANCH  21  22
ENDBRANCH  20  21
ENDBRANCH  19  20
ENDBRANCH   2  19
TORSDOF 5
ENDMDL
