MODEL 1
REMARK VINA RESULT:      -8.1      0.000      0.000
REMARK  Name = 11658655
REMARK  1 active torsions:
REMARK  status: ('A' for Active; 'I' for Inactive)
REMARK    1  A    between atoms: C_2  and  C_11
REMARK                            x       y       z     vdW  Elec       q    Type
REMARK                         _______ _______ _______ _____ _____    ______ ____
ROOT
ATOM      1  N   UNL     1      34.394 -16.436 -23.540  0.00  0.00    +0.384 N 
ATOM      2  C   UNL     1      35.025 -18.285 -22.233  0.00  0.00    -0.002 C 
ATOM      3  C   UNL     1      35.235 -18.627 -23.659  0.00  0.00    -0.019 C 
ATOM      4  C   UNL     1      36.428 -18.372 -22.774  0.00  0.00    +0.000 C 
ATOM      5  C   UNL     1      34.268 -16.996 -22.186  0.00  0.00    -0.078 C 
ATOM      6  C   UNL     1      34.605 -17.548 -24.478  0.00  0.00    -0.081 C 
ATOM      7  H   UNL     1      35.188 -15.797 -23.576  0.00  0.00    -0.085 HD
ATOM      8  H   UNL     1      33.549 -15.920 -23.788  0.00  0.00    -0.085 HD
ENDROOT
BRANCH   2  11
ATOM      9 CL   UNL     1      36.405 -21.863 -18.760  0.00  0.00    -0.081 Cl
ATOM     10 CL   UNL     1      33.259 -22.477 -18.310  0.00  0.00    -0.081 Cl
ATOM     11  C   UNL     1      34.605 -19.324 -21.258  0.00  0.00    -0.024 C 
ATOM     12  C   UNL     1      35.564 -20.039 -20.535  0.00  0.00    +0.008 C 
ATOM     13  C   UNL     1      33.248 -19.593 -21.061  0.00  0.00    -0.003 C 
ATOM     14  C   UNL     1      35.168 -21.015 -19.622  0.00  0.00    +0.068 C 
ATOM     15  C   UNL     1      32.853 -20.569 -20.147  0.00  0.00    +0.012 C 
ATOM     16  C   UNL     1      33.813 -21.280 -19.426  0.00  0.00    +0.068 C 
ENDBRANCH   2  11
TORSDOF 1
ENDMDL
MODEL 2
REMARK VINA RESULT:      -7.6      4.634      6.230
REMARK  Name = 11658655
REMARK  1 active torsions:
REMARK  status: ('A' for Active; 'I' for Inactive)
REMARK    1  A    between atoms: C_2  and  C_11
REMARK                            x       y       z     vdW  Elec       q    Type
REMARK                         _______ _______ _______ _____ _____    ______ ____
ROOT
ATOM      1  N   UNL     1      35.017 -19.366 -20.636  0.00  0.00    +0.384 N 
ATOM      2  C   UNL     1      34.818 -17.877 -22.444  0.00  0.00    -0.002 C 
ATOM      3  C   UNL     1      36.227 -18.328 -22.364  0.00  0.00    -0.019 C 
ATOM      4  C   UNL     1      35.349 -18.835 -23.478  0.00  0.00    +0.000 C 
ATOM      5  C   UNL     1      34.124 -18.346 -21.206  0.00  0.00    -0.078 C 
ATOM      6  C   UNL     1      36.389 -19.071 -21.077  0.00  0.00    -0.081 C 
ATOM      7  H   UNL     1      34.739 -20.291 -20.965  0.00  0.00    -0.085 HD
ATOM      8  H   UNL     1      34.963 -19.353 -19.617  0.00  0.00    -0.085 HD
ENDROOT
BRANCH   2  11
ATOM      9 CL   UNL     1      33.238 -14.767 -26.265  0.00  0.00    -0.081 Cl
ATOM     10 CL   UNL     1      33.506 -12.286 -24.205  0.00  0.00    -0.081 Cl
ATOM     11  C   UNL     1      34.489 -16.500 -22.895  0.00  0.00    -0.024 C 
ATOM     12  C   UNL     1      34.065 -16.273 -24.207  0.00  0.00    +0.008 C 
ATOM     13  C   UNL     1      34.604 -15.426 -22.009  0.00  0.00    -0.003 C 
ATOM     14  C   UNL     1      33.757 -14.980 -24.629  0.00  0.00    +0.068 C 
ATOM     15  C   UNL     1      34.296 -14.134 -22.432  0.00  0.00    +0.012 C 
ATOM     16  C   UNL     1      33.872 -13.910 -23.742  0.00  0.00    +0.068 C 
ENDBRANCH   2  11
TORSDOF 1
ENDMDL
MODEL 3
REMARK VINA RESULT:      -7.4      1.610      3.137
REMARK  Name = 11658655
REMARK  1 active torsions:
REMARK  status: ('A' for Active; 'I' for Inactive)
REMARK    1  A    between atoms: C_2  and  C_11
REMARK                            x       y       z     vdW  Elec       q    Type
REMARK                         _______ _______ _______ _____ _____    ______ ____
ROOT
ATOM      1  N   UNL     1      34.016 -14.649 -23.390  0.00  0.00    +0.384 N 
ATOM      2  C   UNL     1      33.911 -16.435 -21.864  0.00  0.00    -0.002 C 
ATOM      3  C   UNL     1      34.165 -15.188 -21.107  0.00  0.00    -0.019 C 
ATOM      4  C   UNL     1      32.811 -15.842 -21.024  0.00  0.00    +0.000 C 
ATOM      5  C   UNL     1      34.062 -16.118 -23.318  0.00  0.00    -0.078 C 
ATOM      6  C   UNL     1      34.471 -14.113 -22.099  0.00  0.00    -0.081 C 
ATOM      7  H   UNL     1      33.060 -14.344 -23.574  0.00  0.00    -0.085 HD
ATOM      8  H   UNL     1      34.616 -14.314 -24.144  0.00  0.00    -0.085 HD
ENDROOT
BRANCH   2  11
ATOM      9 CL   UNL     1      33.118 -21.194 -19.996  0.00  0.00    -0.081 Cl
ATOM     10 CL   UNL     1      36.324 -21.630 -20.055  0.00  0.00    -0.081 Cl
ATOM     11  C   UNL     1      34.492 -17.726 -21.415  0.00  0.00    -0.024 C 
ATOM     12  C   UNL     1      33.658 -18.753 -20.964  0.00  0.00    +0.008 C 
ATOM     13  C   UNL     1      35.875 -17.918 -21.438  0.00  0.00    -0.003 C 
ATOM     14  C   UNL     1      34.205 -19.964 -20.541  0.00  0.00    +0.068 C 
ATOM     15  C   UNL     1      36.421 -19.130 -21.015  0.00  0.00    +0.012 C 
ATOM     16  C   UNL     1      35.586 -20.154 -20.567  0.00  0.00    +0.068 C 
ENDBRANCH   2  11
TORSDOF 1
ENDMDL
MODEL 4
REMARK VINA RESULT:      -7.4      4.802      6.193
REMARK  Name = 11658655
REMARK  1 active torsions:
REMARK  status: ('A' for Active; 'I' for Inactive)
REMARK    1  A    between atoms: C_2  and  C_11
REMARK                            x       y       z     vdW  Elec       q    Type
REMARK                         _______ _______ _______ _____ _____    ______ ____
ROOT
ATOM      1  N   UNL     1      35.076 -19.075 -23.380  0.00  0.00    +0.384 N 
ATOM      2  C   UNL     1      34.657 -17.076 -22.214  0.00  0.00    -0.002 C 
ATOM      3  C   UNL     1      34.214 -18.211 -21.371  0.00  0.00    -0.019 C 
ATOM      4  C   UNL     1      35.459 -17.451 -20.995  0.00  0.00    +0.000 C 
ATOM      5  C   UNL     1      34.971 -17.620 -23.571  0.00  0.00    -0.078 C 
ATOM      6  C   UNL     1      34.258 -19.443 -22.215  0.00  0.00    -0.081 C 
ATOM      7  H   UNL     1      36.049 -19.331 -23.214  0.00  0.00    -0.085 HD
ATOM      8  H   UNL     1      34.747 -19.565 -24.213  0.00  0.00    -0.085 HD
ENDROOT
BRANCH   2  11
ATOM      9 CL   UNL     1      33.835 -12.449 -24.377  0.00  0.00    -0.081 Cl
ATOM     10 CL   UNL     1      31.695 -11.855 -22.023  0.00  0.00    -0.081 Cl
ATOM     11  C   UNL     1      33.932 -15.781 -22.182  0.00  0.00    -0.024 C 
ATOM     12  C   UNL     1      34.173 -14.816 -23.164  0.00  0.00    +0.008 C 
ATOM     13  C   UNL     1      33.008 -15.520 -21.167  0.00  0.00    -0.003 C 
ATOM     14  C   UNL     1      33.492 -13.599 -23.132  0.00  0.00    +0.068 C 
ATOM     15  C   UNL     1      32.328 -14.303 -21.136  0.00  0.00    +0.012 C 
ATOM     16  C   UNL     1      32.569 -13.342 -22.118  0.00  0.00    +0.068 C 
ENDBRANCH   2  11
TORSDOF 1
ENDMDL
MODEL 5
REMARK VINA RESULT:      -7.4      3.490      5.060
REMARK  Name = 11658655
REMARK  1 active torsions:
REMARK  status: ('A' for Active; 'I' for Inactive)
REMARK    1  A    between atoms: C_2  and  C_11
REMARK                            x       y       z     vdW  Elec       q    Type
REMARK                         _______ _______ _______ _____ _____    ______ ____
ROOT
ATOM      1  N   UNL     1      33.178 -13.114 -25.957  0.00  0.00    +0.384 N 
ATOM      2  C   UNL     1      33.351 -14.288 -23.927  0.00  0.00    -0.002 C 
ATOM      3  C   UNL     1      33.802 -12.894 -23.701  0.00  0.00    -0.019 C 
ATOM      4  C   UNL     1      32.478 -13.345 -23.141  0.00  0.00    +0.000 C 
ATOM      5  C   UNL     1      33.193 -14.476 -25.402  0.00  0.00    -0.078 C 
ATOM      6  C   UNL     1      33.919 -12.236 -25.037  0.00  0.00    -0.081 C 
ATOM      7  H   UNL     1      32.215 -12.788 -26.044  0.00  0.00    -0.085 HD
ATOM      8  H   UNL     1      33.610 -13.104 -26.881  0.00  0.00    -0.085 HD
ENDROOT
BRANCH   2  11
ATOM      9 CL   UNL     1      35.220 -19.110 -24.036  0.00  0.00    -0.081 Cl
ATOM     10 CL   UNL     1      35.873 -18.809 -20.881  0.00  0.00    -0.081 Cl
ATOM     11  C   UNL     1      33.976 -15.415 -23.188  0.00  0.00    -0.024 C 
ATOM     12  C   UNL     1      34.281 -16.607 -23.852  0.00  0.00    +0.008 C 
ATOM     13  C   UNL     1      34.259 -15.289 -21.826  0.00  0.00    -0.003 C 
ATOM     14  C   UNL     1      34.867 -17.664 -23.157  0.00  0.00    +0.068 C 
ATOM     15  C   UNL     1      34.845 -16.347 -21.132  0.00  0.00    +0.012 C 
ATOM     16  C   UNL     1      35.149 -17.535 -21.797  0.00  0.00    +0.068 C 
ENDBRANCH   2  11
TORSDOF 1
ENDMDL
MODEL 6
REMARK VINA RESULT:      -7.4      4.720      6.370
REMARK  Name = 11658655
REMARK  1 active torsions:
REMARK  status: ('A' for Active; 'I' for Inactive)
REMARK    1  A    between atoms: C_2  and  C_11
REMARK                            x       y       z     vdW  Elec       q    Type
REMARK                         _______ _______ _______ _____ _____    ______ ____
ROOT
ATOM      1  N   UNL     1      35.754 -18.233 -20.637  0.00  0.00    +0.384 N 
ATOM      2  C   UNL     1      34.748 -17.687 -22.691  0.00  0.00    -0.002 C 
ATOM      3  C   UNL     1      35.955 -18.501 -22.964  0.00  0.00    -0.019 C 
ATOM      4  C   UNL     1      34.591 -19.111 -23.157  0.00  0.00    +0.000 C 
ATOM      5  C   UNL     1      34.770 -17.323 -21.241  0.00  0.00    -0.078 C 
ATOM      6  C   UNL     1      36.711 -18.630 -21.682  0.00  0.00    -0.081 C 
ATOM      7  H   UNL     1      35.281 -19.059 -20.271  0.00  0.00    -0.085 HD
ATOM      8  H   UNL     1      36.241 -17.769 -19.870  0.00  0.00    -0.085 HD
ENDROOT
BRANCH   2  11
ATOM      9 CL   UNL     1      33.424 -12.734 -23.383  0.00  0.00    -0.081 Cl
ATOM     10 CL   UNL     1      33.058 -13.389 -26.531  0.00  0.00    -0.081 Cl
ATOM     11  C   UNL     1      34.330 -16.613 -23.627  0.00  0.00    -0.024 C 
ATOM     12  C   UNL     1      34.093 -15.319 -23.153  0.00  0.00    +0.008 C 
ATOM     13  C   UNL     1      34.171 -16.891 -24.987  0.00  0.00    -0.003 C 
ATOM     14  C   UNL     1      33.701 -14.312 -24.033  0.00  0.00    +0.068 C 
ATOM     15  C   UNL     1      33.778 -15.883 -25.867  0.00  0.00    +0.012 C 
ATOM     16  C   UNL     1      33.543 -14.593 -25.391  0.00  0.00    +0.068 C 
ENDBRANCH   2  11
TORSDOF 1
ENDMDL
MODEL 7
REMARK VINA RESULT:      -7.3      4.346      5.907
REMARK  Name = 11658655
REMARK  1 active torsions:
REMARK  status: ('A' for Active; 'I' for Inactive)
REMARK    1  A    between atoms: C_2  and  C_11
REMARK                            x       y       z     vdW  Elec       q    Type
REMARK                         _______ _______ _______ _____ _____    ______ ____
ROOT
ATOM      1  N   UNL     1      35.042 -19.606 -20.610  0.00  0.00    +0.384 N 
ATOM      2  C   UNL     1      34.767 -17.903 -22.208  0.00  0.00    -0.002 C 
ATOM      3  C   UNL     1      36.203 -18.264 -22.151  0.00  0.00    -0.019 C 
ATOM      4  C   UNL     1      35.383 -18.674 -23.346  0.00  0.00    +0.000 C 
ATOM      5  C   UNL     1      34.087 -18.583 -21.063  0.00  0.00    -0.078 C 
ATOM      6  C   UNL     1      36.396 -19.161 -20.971  0.00  0.00    -0.081 C 
ATOM      7  H   UNL     1      34.837 -20.495 -21.068  0.00  0.00    -0.085 HD
ATOM      8  H   UNL     1      34.969 -19.735 -19.601  0.00  0.00    -0.085 HD
ENDROOT
BRANCH   2  11
ATOM      9 CL   UNL     1      32.469 -13.597 -20.494  0.00  0.00    -0.081 Cl
ATOM     10 CL   UNL     1      33.094 -12.253 -23.370  0.00  0.00    -0.081 Cl
ATOM     11  C   UNL     1      34.348 -16.505 -22.479  0.00  0.00    -0.024 C 
ATOM     12  C   UNL     1      33.682 -15.767 -21.496  0.00  0.00    +0.008 C 
ATOM     13  C   UNL     1      34.615 -15.920 -23.720  0.00  0.00    -0.003 C 
ATOM     14  C   UNL     1      33.288 -14.454 -21.752  0.00  0.00    +0.068 C 
ATOM     15  C   UNL     1      34.221 -14.608 -23.975  0.00  0.00    +0.012 C 
ATOM     16  C   UNL     1      33.558 -13.874 -22.992  0.00  0.00    +0.068 C 
ENDBRANCH   2  11
TORSDOF 1
ENDMDL
MODEL 8
REMARK VINA RESULT:      -7.3      5.952      8.283
REMARK  Name = 11658655
REMARK  1 active torsions:
REMARK  status: ('A' for Active; 'I' for Inactive)
REMARK    1  A    between atoms: C_2  and  C_11
REMARK                            x       y       z     vdW  Elec       q    Type
REMARK                         _______ _______ _______ _____ _____    ______ ____
ROOT
ATOM      1  N   UNL     1      30.918 -25.174 -13.560  0.00  0.00    +0.384 N 
ATOM      2  C   UNL     1      31.646 -23.621 -15.167  0.00  0.00    -0.002 C 
ATOM      3  C   UNL     1      30.399 -24.252 -15.659  0.00  0.00    -0.019 C 
ATOM      4  C   UNL     1      30.369 -22.822 -15.184  0.00  0.00    +0.000 C 
ATOM      5  C   UNL     1      32.091 -24.384 -13.961  0.00  0.00    -0.078 C 
ATOM      6  C   UNL     1      30.087 -25.398 -14.753  0.00  0.00    -0.081 C 
ATOM      7  H   UNL     1      30.383 -24.664 -12.857  0.00  0.00    -0.085 HD
ATOM      8  H   UNL     1      31.212 -26.066 -13.161  0.00  0.00    -0.085 HD
ENDROOT
BRANCH   2  11
ATOM      9 CL   UNL     1      36.685 -22.818 -16.023  0.00  0.00    -0.081 Cl
ATOM     10 CL   UNL     1      35.921 -21.974 -19.052  0.00  0.00    -0.081 Cl
ATOM     11  C   UNL     1      32.715 -23.217 -16.116  0.00  0.00    -0.024 C 
ATOM     12  C   UNL     1      34.051 -23.199 -15.704  0.00  0.00    +0.008 C 
ATOM     13  C   UNL     1      32.390 -22.852 -17.425  0.00  0.00    -0.003 C 
ATOM     14  C   UNL     1      35.053 -22.819 -16.595  0.00  0.00    +0.068 C 
ATOM     15  C   UNL     1      33.393 -22.472 -18.315  0.00  0.00    +0.012 C 
ATOM     16  C   UNL     1      34.725 -22.456 -17.902  0.00  0.00    +0.068 C 
ENDBRANCH   2  11
TORSDOF 1
ENDMDL
MODEL 9
REMARK VINA RESULT:      -7.2      3.963      5.662
REMARK  Name = 11658655
REMARK  1 active torsions:
REMARK  status: ('A' for Active; 'I' for Inactive)
REMARK    1  A    between atoms: C_2  and  C_11
REMARK                            x       y       z     vdW  Elec       q    Type
REMARK                         _______ _______ _______ _____ _____    ______ ____
ROOT
ATOM      1  N   UNL     1      33.470 -11.916 -25.892  0.00  0.00    +0.384 N 
ATOM      2  C   UNL     1      33.362 -13.828 -24.527  0.00  0.00    -0.002 C 
ATOM      3  C   UNL     1      33.847 -12.694 -23.706  0.00  0.00    -0.019 C 
ATOM      4  C   UNL     1      32.450 -13.217 -23.496  0.00  0.00    +0.000 C 
ATOM      5  C   UNL     1      33.362 -13.382 -25.954  0.00  0.00    -0.078 C 
ATOM      6  C   UNL     1      34.142 -11.560 -24.633  0.00  0.00    -0.081 C 
ATOM      7  H   UNL     1      32.538 -11.501 -25.915  0.00  0.00    -0.085 HD
ATOM      8  H   UNL     1      34.003 -11.567 -26.689  0.00  0.00    -0.085 HD
ENDROOT
BRANCH   2  11
ATOM      9 CL   UNL     1      35.175 -17.295 -21.143  0.00  0.00    -0.081 Cl
ATOM     10 CL   UNL     1      35.325 -19.424 -23.575  0.00  0.00    -0.081 Cl
ATOM     11  C   UNL     1      33.849 -15.208 -24.275  0.00  0.00    -0.024 C 
ATOM     12  C   UNL     1      34.244 -15.590 -22.990  0.00  0.00    +0.008 C 
ATOM     13  C   UNL     1      33.916 -16.130 -25.322  0.00  0.00    -0.003 C 
ATOM     14  C   UNL     1      34.702 -16.886 -22.755  0.00  0.00    +0.068 C 
ATOM     15  C   UNL     1      34.373 -17.426 -25.086  0.00  0.00    +0.012 C 
ATOM     16  C   UNL     1      34.766 -17.805 -23.802  0.00  0.00    +0.068 C 
ENDBRANCH   2  11
TORSDOF 1
ENDMDL
