MODEL 1
REMARK VINA RESULT:      -9.2      0.000      0.000
REMARK  Name = 5287799
REMARK  10 active torsions:
REMARK  status: ('A' for Active; 'I' for Inactive)
REMARK    1  A    between atoms: N_2  and  C_20
REMARK    2  A    between atoms: C_3  and  C_5
REMARK    3  A    between atoms: C_5  and  N_9
REMARK    4  A    between atoms: C_5  and  C_16
REMARK    5  A    between atoms: C_16  and  C_17
REMARK    6  A    between atoms: C_20  and  C_22
REMARK    7  A    between atoms: C_20  and  C_23
REMARK    8  A    between atoms: C_23  and  O_24
REMARK    9  A    between atoms: O_24  and  C_25
REMARK   10  A    between atoms: C_25  and  C_26
REMARK                            x       y       z     vdW  Elec       q    Type
REMARK                         _______ _______ _______ _____ _____    ______ ____
ROOT
ATOM      1  O   UNL     1      31.430 -22.792 -17.531  0.00  0.00    -0.273 OA
ATOM      2  N   UNL     1      33.738 -23.043 -17.515  0.00  0.00    -0.291 N 
ATOM      3  C   UNL     1      32.471 -23.092 -16.951  0.00  0.00    +0.241 C 
ATOM      4  H   UNL     1      34.508 -23.305 -16.960  0.00  0.00    +0.150 HD
ENDROOT
BRANCH   3   5
ATOM      5  C   UNL     1      32.513 -23.511 -15.485  0.00  0.00    +0.150 C 
BRANCH   5   9
ATOM      6  O   UNL     1      38.464 -24.419 -13.260  0.00  0.00    -0.350 OA
ATOM      7  O   UNL     1      33.522 -24.556 -13.074  0.00  0.00    -0.253 OA
ATOM      8  N   UNL     1      35.698 -23.959 -13.612  0.00  0.00    -0.259 N 
ATOM      9  N   UNL     1      33.901 -23.506 -15.080  0.00  0.00    -0.282 N 
ATOM     10  C   UNL     1      36.225 -24.496 -12.355  0.00  0.00    +0.127 C 
ATOM     11  C   UNL     1      36.688 -23.238 -14.424  0.00  0.00    +0.127 C 
ATOM     12  C   UNL     1      34.319 -24.046 -13.868  0.00  0.00    +0.304 C 
ATOM     13  C   UNL     1      37.521 -25.256 -12.587  0.00  0.00    +0.164 C 
ATOM     14  C   UNL     1      37.978 -24.042 -14.549  0.00  0.00    +0.164 C 
ATOM     15  H   UNL     1      34.571 -23.110 -15.681  0.00  0.00    +0.151 HD
ENDBRANCH   5   9
BRANCH   5  16
ATOM     16  C   UNL     1      31.657 -22.562 -14.637  0.00  0.00    +0.029 C 
BRANCH  16  17
ATOM     17  C   UNL     1      30.266 -23.110 -14.257  0.00  0.00    +0.002 C 
ATOM     18  C   UNL     1      29.151 -22.512 -15.115  0.00  0.00    +0.000 C 
ATOM     19  C   UNL     1      30.259 -24.635 -14.390  0.00  0.00    +0.000 C 
ENDBRANCH  16  17
ENDBRANCH   5  16
ENDBRANCH   3   5
BRANCH   2  20
ATOM     20  C   UNL     1      33.983 -22.625 -18.877  0.00  0.00    +0.194 C 
BRANCH  20  22
ATOM     21  N   UNL     1      34.163 -24.720 -20.458  0.00  0.00    -0.194 NA
ATOM     22  C   UNL     1      34.084 -23.795 -19.762  0.00  0.00    +0.095 C 
ENDBRANCH  20  22
BRANCH  20  23
ATOM     23  C   UNL     1      35.226 -21.741 -18.962  0.00  0.00    +0.178 C 
BRANCH  23  24
ATOM     24  O   UNL     1      35.303 -21.073 -20.217  0.00  0.00    -0.346 OA
BRANCH  24  25
ATOM     25  C   UNL     1      34.182 -20.225 -20.421  0.00  0.00    +0.169 C 
BRANCH  25  26
ATOM     26  C   UNL     1      34.548 -19.162 -21.415  0.00  0.00    +0.007 C 
ATOM     27  C   UNL     1      34.594 -17.825 -21.021  0.00  0.00    -0.002 C 
ATOM     28  C   UNL     1      34.842 -19.511 -22.733  0.00  0.00    -0.002 C 
ATOM     29  C   UNL     1      34.934 -16.837 -21.945  0.00  0.00    -0.000 C 
ATOM     30  C   UNL     1      35.181 -18.523 -23.657  0.00  0.00    -0.000 C 
ATOM     31  C   UNL     1      35.228 -17.186 -23.263  0.00  0.00    -0.000 C 
ENDBRANCH  25  26
ENDBRANCH  24  25
ENDBRANCH  23  24
ENDBRANCH  20  23
ENDBRANCH   2  20
TORSDOF 10
ENDMDL
MODEL 2
REMARK VINA RESULT:      -9.1      1.809      2.334
REMARK  Name = 5287799
REMARK  10 active torsions:
REMARK  status: ('A' for Active; 'I' for Inactive)
REMARK    1  A    between atoms: N_2  and  C_20
REMARK    2  A    between atoms: C_3  and  C_5
REMARK    3  A    between atoms: C_5  and  N_9
REMARK    4  A    between atoms: C_5  and  C_16
REMARK    5  A    between atoms: C_16  and  C_17
REMARK    6  A    between atoms: C_20  and  C_22
REMARK    7  A    between atoms: C_20  and  C_23
REMARK    8  A    between atoms: C_23  and  O_24
REMARK    9  A    between atoms: O_24  and  C_25
REMARK   10  A    between atoms: C_25  and  C_26
REMARK                            x       y       z     vdW  Elec       q    Type
REMARK                         _______ _______ _______ _____ _____    ______ ____
ROOT
ATOM      1  O   UNL     1      35.850 -22.416 -17.086  0.00  0.00    -0.273 OA
ATOM      2  N   UNL     1      33.905 -22.182 -18.333  0.00  0.00    -0.291 N 
ATOM      3  C   UNL     1      34.682 -22.722 -17.317  0.00  0.00    +0.241 C 
ATOM      4  H   UNL     1      32.978 -22.498 -18.432  0.00  0.00    +0.150 HD
ENDROOT
BRANCH   3   5
ATOM      5  C   UNL     1      33.936 -23.800 -16.538  0.00  0.00    +0.150 C 
BRANCH   5   9
ATOM      6  O   UNL     1      37.527 -24.464 -11.261  0.00  0.00    -0.350 OA
ATOM      7  O   UNL     1      35.860 -25.698 -15.752  0.00  0.00    -0.253 OA
ATOM      8  N   UNL     1      35.999 -24.815 -13.611  0.00  0.00    -0.259 N 
ATOM      9  N   UNL     1      34.551 -23.885 -15.233  0.00  0.00    -0.282 N 
ATOM     10  C   UNL     1      36.995 -25.807 -13.197  0.00  0.00    +0.127 C 
ATOM     11  C   UNL     1      35.515 -23.952 -12.525  0.00  0.00    +0.127 C 
ATOM     12  C   UNL     1      35.497 -24.856 -14.924  0.00  0.00    +0.304 C 
ATOM     13  C   UNL     1      38.096 -25.161 -12.371  0.00  0.00    +0.164 C 
ATOM     14  C   UNL     1      36.681 -23.404 -11.708  0.00  0.00    +0.164 C 
ATOM     15  H   UNL     1      34.293 -23.235 -14.541  0.00  0.00    +0.151 HD
ENDBRANCH   5   9
BRANCH   5  16
ATOM     16  C   UNL     1      32.443 -23.457 -16.455  0.00  0.00    +0.029 C 
BRANCH  16  17
ATOM     17  C   UNL     1      31.765 -23.834 -15.122  0.00  0.00    +0.002 C 
ATOM     18  C   UNL     1      31.411 -22.607 -14.281  0.00  0.00    +0.000 C 
ATOM     19  C   UNL     1      30.501 -24.651 -15.400  0.00  0.00    +0.000 C 
ENDBRANCH  16  17
ENDBRANCH   5  16
ENDBRANCH   3   5
BRANCH   2  20
ATOM     20  C   UNL     1      34.391 -21.178 -19.253  0.00  0.00    +0.194 C 
BRANCH  20  22
ATOM     21  N   UNL     1      32.448 -20.364 -20.830  0.00  0.00    -0.194 NA
ATOM     22  C   UNL     1      33.306 -20.723 -20.135  0.00  0.00    +0.095 C 
ENDBRANCH  20  22
BRANCH  20  23
ATOM     23  C   UNL     1      35.588 -21.698 -20.047  0.00  0.00    +0.178 C 
BRANCH  23  24
ATOM     24  O   UNL     1      35.914 -20.826 -21.124  0.00  0.00    -0.346 OA
BRANCH  24  25
ATOM     25  C   UNL     1      36.298 -19.542 -20.653  0.00  0.00    +0.169 C 
BRANCH  25  26
ATOM     26  C   UNL     1      35.712 -18.495 -21.553  0.00  0.00    +0.007 C 
ATOM     27  C   UNL     1      35.674 -18.703 -22.932  0.00  0.00    -0.002 C 
ATOM     28  C   UNL     1      35.205 -17.313 -21.013  0.00  0.00    -0.002 C 
ATOM     29  C   UNL     1      35.130 -17.730 -23.770  0.00  0.00    -0.000 C 
ATOM     30  C   UNL     1      34.661 -16.340 -21.851  0.00  0.00    -0.000 C 
ATOM     31  C   UNL     1      34.623 -16.548 -23.229  0.00  0.00    -0.000 C 
ENDBRANCH  25  26
ENDBRANCH  24  25
ENDBRANCH  23  24
ENDBRANCH  20  23
ENDBRANCH   2  20
TORSDOF 10
ENDMDL
MODEL 3
REMARK VINA RESULT:      -9.0      6.130      9.938
REMARK  Name = 5287799
REMARK  10 active torsions:
REMARK  status: ('A' for Active; 'I' for Inactive)
REMARK    1  A    between atoms: N_2  and  C_20
REMARK    2  A    between atoms: C_3  and  C_5
REMARK    3  A    between atoms: C_5  and  N_9
REMARK    4  A    between atoms: C_5  and  C_16
REMARK    5  A    between atoms: C_16  and  C_17
REMARK    6  A    between atoms: C_20  and  C_22
REMARK    7  A    between atoms: C_20  and  C_23
REMARK    8  A    between atoms: C_23  and  O_24
REMARK    9  A    between atoms: O_24  and  C_25
REMARK   10  A    between atoms: C_25  and  C_26
REMARK                            x       y       z     vdW  Elec       q    Type
REMARK                         _______ _______ _______ _____ _____    ______ ____
ROOT
ATOM      1  O   UNL     1      32.511 -16.067 -21.071  0.00  0.00    -0.273 OA
ATOM      2  N   UNL     1      33.691 -14.605 -22.437  0.00  0.00    -0.291 N 
ATOM      3  C   UNL     1      33.519 -15.776 -21.711  0.00  0.00    +0.241 C 
ATOM      4  H   UNL     1      34.541 -14.470 -22.914  0.00  0.00    +0.150 HD
ENDROOT
BRANCH   3   5
ATOM      5  C   UNL     1      34.763 -16.657 -21.746  0.00  0.00    +0.150 C 
BRANCH   5   9
ATOM      6  O   UNL     1      33.879 -22.403 -19.027  0.00  0.00    -0.350 OA
ATOM      7  O   UNL     1      36.522 -18.742 -21.050  0.00  0.00    -0.253 OA
ATOM      8  N   UNL     1      34.773 -20.165 -20.503  0.00  0.00    -0.259 N 
ATOM      9  N   UNL     1      34.373 -17.965 -21.270  0.00  0.00    -0.282 N 
ATOM     10  C   UNL     1      35.686 -21.255 -20.147  0.00  0.00    +0.127 C 
ATOM     11  C   UNL     1      33.352 -20.539 -20.495  0.00  0.00    +0.127 C 
ATOM     12  C   UNL     1      35.307 -18.943 -20.945  0.00  0.00    +0.304 C 
ATOM     13  C   UNL     1      35.229 -21.956 -18.878  0.00  0.00    +0.164 C 
ATOM     14  C   UNL     1      32.998 -21.296 -19.219  0.00  0.00    +0.164 C 
ATOM     15  H   UNL     1      33.415 -18.170 -21.170  0.00  0.00    +0.151 HD
ENDBRANCH   5   9
BRANCH   5  16
ATOM     16  C   UNL     1      35.341 -16.705 -23.166  0.00  0.00    +0.029 C 
BRANCH  16  17
ATOM     17  C   UNL     1      34.410 -17.335 -24.223  0.00  0.00    +0.002 C 
ATOM     18  C   UNL     1      34.270 -16.463 -25.470  0.00  0.00    +0.000 C 
ATOM     19  C   UNL     1      34.939 -18.717 -24.616  0.00  0.00    +0.000 C 
ENDBRANCH  16  17
ENDBRANCH   5  16
ENDBRANCH   3   5
BRANCH   2  20
ATOM     20  C   UNL     1      32.682 -13.573 -22.524  0.00  0.00    +0.194 C 
BRANCH  20  22
ATOM     21  N   UNL     1      33.499 -11.622 -24.089  0.00  0.00    -0.194 NA
ATOM     22  C   UNL     1      33.138 -12.483 -23.400  0.00  0.00    +0.095 C 
ENDBRANCH  20  22
BRANCH  20  23
ATOM     23  C   UNL     1      32.302 -13.062 -21.135  0.00  0.00    +0.178 C 
BRANCH  23  24
ATOM     24  O   UNL     1      31.356 -12.001 -21.214  0.00  0.00    -0.346 OA
BRANCH  24  25
ATOM     25  C   UNL     1      31.506 -11.092 -20.133  0.00  0.00    +0.169 C 
BRANCH  25  26
ATOM     26  C   UNL     1      31.783  -9.723 -20.681  0.00  0.00    +0.007 C 
ATOM     27  C   UNL     1      32.240  -8.712 -19.836  0.00  0.00    -0.002 C 
ATOM     28  C   UNL     1      31.581  -9.460 -22.037  0.00  0.00    -0.002 C 
ATOM     29  C   UNL     1      32.496  -7.440 -20.345  0.00  0.00    -0.000 C 
ATOM     30  C   UNL     1      31.838  -8.187 -22.546  0.00  0.00    -0.000 C 
ATOM     31  C   UNL     1      32.295  -7.177 -21.700  0.00  0.00    -0.000 C 
ENDBRANCH  25  26
ENDBRANCH  24  25
ENDBRANCH  23  24
ENDBRANCH  20  23
ENDBRANCH   2  20
TORSDOF 10
ENDMDL
MODEL 4
REMARK VINA RESULT:      -9.0      5.389      9.314
REMARK  Name = 5287799
REMARK  10 active torsions:
REMARK  status: ('A' for Active; 'I' for Inactive)
REMARK    1  A    between atoms: N_2  and  C_20
REMARK    2  A    between atoms: C_3  and  C_5
REMARK    3  A    between atoms: C_5  and  N_9
REMARK    4  A    between atoms: C_5  and  C_16
REMARK    5  A    between atoms: C_16  and  C_17
REMARK    6  A    between atoms: C_20  and  C_22
REMARK    7  A    between atoms: C_20  and  C_23
REMARK    8  A    between atoms: C_23  and  O_24
REMARK    9  A    between atoms: O_24  and  C_25
REMARK   10  A    between atoms: C_25  and  C_26
REMARK                            x       y       z     vdW  Elec       q    Type
REMARK                         _______ _______ _______ _____ _____    ______ ____
ROOT
ATOM      1  O   UNL     1      34.883 -16.078 -20.237  0.00  0.00    -0.273 OA
ATOM      2  N   UNL     1      34.761 -15.622 -22.511  0.00  0.00    -0.291 N 
ATOM      3  C   UNL     1      35.074 -16.403 -21.407  0.00  0.00    +0.241 C 
ATOM      4  H   UNL     1      34.957 -15.978 -23.408  0.00  0.00    +0.150 HD
ENDROOT
BRANCH   3   5
ATOM      5  C   UNL     1      35.746 -17.713 -21.806  0.00  0.00    +0.150 C 
BRANCH   5   9
ATOM      6  O   UNL     1      32.971 -22.526 -18.594  0.00  0.00    -0.350 OA
ATOM      7  O   UNL     1      36.761 -20.017 -20.547  0.00  0.00    -0.253 OA
ATOM      8  N   UNL     1      34.635 -20.856 -20.153  0.00  0.00    -0.259 N 
ATOM      9  N   UNL     1      34.955 -18.786 -21.248  0.00  0.00    -0.282 N 
ATOM     10  C   UNL     1      35.160 -22.060 -19.504  0.00  0.00    +0.127 C 
ATOM     11  C   UNL     1      33.179 -20.864 -20.355  0.00  0.00    +0.127 C 
ATOM     12  C   UNL     1      35.535 -19.893 -20.640  0.00  0.00    +0.304 C 
ATOM     13  C   UNL     1      34.355 -22.405 -18.261  0.00  0.00    +0.164 C 
ATOM     14  C   UNL     1      32.456 -21.285 -19.080  0.00  0.00    +0.164 C 
ATOM     15  H   UNL     1      33.974 -18.730 -21.299  0.00  0.00    +0.151 HD
ENDBRANCH   5   9
BRANCH   5  16
ATOM     16  C   UNL     1      35.860 -17.808 -23.333  0.00  0.00    +0.029 C 
BRANCH  16  17
ATOM     17  C   UNL     1      34.630 -18.418 -24.037  0.00  0.00    +0.002 C 
ATOM     18  C   UNL     1      34.164 -17.578 -25.226  0.00  0.00    +0.000 C 
ATOM     19  C   UNL     1      34.957 -19.838 -24.504  0.00  0.00    +0.000 C 
ENDBRANCH  16  17
ENDBRANCH   5  16
ENDBRANCH   3   5
BRANCH   2  20
ATOM     20  C   UNL     1      34.163 -14.309 -22.408  0.00  0.00    +0.194 C 
BRANCH  20  22
ATOM     21  N   UNL     1      31.863 -14.447 -21.140  0.00  0.00    -0.194 NA
ATOM     22  C   UNL     1      32.878 -14.386 -21.698  0.00  0.00    +0.095 C 
ENDBRANCH  20  22
BRANCH  20  23
ATOM     23  C   UNL     1      34.012 -13.669 -23.787  0.00  0.00    +0.178 C 
BRANCH  23  24
ATOM     24  O   UNL     1      33.356 -12.408 -23.704  0.00  0.00    -0.346 OA
BRANCH  24  25
ATOM     25  C   UNL     1      33.943 -11.460 -24.584  0.00  0.00    +0.169 C 
BRANCH  25  26
ATOM     26  C   UNL     1      33.881 -10.102 -23.950  0.00  0.00    +0.007 C 
ATOM     27  C   UNL     1      32.830  -9.780 -23.091  0.00  0.00    -0.002 C 
ATOM     28  C   UNL     1      34.873  -9.159 -24.220  0.00  0.00    -0.002 C 
ATOM     29  C   UNL     1      32.772  -8.518 -22.502  0.00  0.00    -0.000 C 
ATOM     30  C   UNL     1      34.815  -7.896 -23.631  0.00  0.00    -0.000 C 
ATOM     31  C   UNL     1      33.764  -7.575 -22.772  0.00  0.00    -0.000 C 
ENDBRANCH  25  26
ENDBRANCH  24  25
ENDBRANCH  23  24
ENDBRANCH  20  23
ENDBRANCH   2  20
TORSDOF 10
ENDMDL
MODEL 5
REMARK VINA RESULT:      -8.9      2.326      5.425
REMARK  Name = 5287799
REMARK  10 active torsions:
REMARK  status: ('A' for Active; 'I' for Inactive)
REMARK    1  A    between atoms: N_2  and  C_20
REMARK    2  A    between atoms: C_3  and  C_5
REMARK    3  A    between atoms: C_5  and  N_9
REMARK    4  A    between atoms: C_5  and  C_16
REMARK    5  A    between atoms: C_16  and  C_17
REMARK    6  A    between atoms: C_20  and  C_22
REMARK    7  A    between atoms: C_20  and  C_23
REMARK    8  A    between atoms: C_23  and  O_24
REMARK    9  A    between atoms: O_24  and  C_25
REMARK   10  A    between atoms: C_25  and  C_26
REMARK                            x       y       z     vdW  Elec       q    Type
REMARK                         _______ _______ _______ _____ _____    ______ ____
ROOT
ATOM      1  O   UNL     1      35.651 -25.328 -14.868  0.00  0.00    -0.273 OA
ATOM      2  N   UNL     1      36.218 -23.076 -14.853  0.00  0.00    -0.291 N 
ATOM      3  C   UNL     1      35.605 -24.215 -14.349  0.00  0.00    +0.241 C 
ATOM      4  H   UNL     1      36.117 -22.232 -14.357  0.00  0.00    +0.150 HD
ENDROOT
BRANCH   3   5
ATOM      5  C   UNL     1      34.804 -23.921 -13.084  0.00  0.00    +0.150 C 
BRANCH   5   9
ATOM      6  O   UNL     1      28.891 -24.757 -15.434  0.00  0.00    -0.350 OA
ATOM      7  O   UNL     1      33.256 -22.482 -14.942  0.00  0.00    -0.253 OA
ATOM      8  N   UNL     1      31.372 -23.765 -14.514  0.00  0.00    -0.259 N 
ATOM      9  N   UNL     1      33.414 -24.168 -13.393  0.00  0.00    -0.282 N 
ATOM     10  C   UNL     1      30.561 -23.013 -15.475  0.00  0.00    +0.127 C 
ATOM     11  C   UNL     1      30.616 -24.746 -13.722  0.00  0.00    +0.127 C 
ATOM     12  C   UNL     1      32.719 -23.409 -14.328  0.00  0.00    +0.304 C 
ATOM     13  C   UNL     1      29.687 -23.945 -16.299  0.00  0.00    +0.164 C 
ATOM     14  C   UNL     1      29.717 -25.590 -14.619  0.00  0.00    +0.164 C 
ATOM     15  H   UNL     1      32.945 -24.897 -12.928  0.00  0.00    +0.151 HD
ENDBRANCH   5   9
BRANCH   5  16
ATOM     16  C   UNL     1      35.304 -24.792 -11.925  0.00  0.00    +0.029 C 
BRANCH  16  17
ATOM     17  C   UNL     1      36.709 -24.428 -11.400  0.00  0.00    +0.002 C 
ATOM     18  C   UNL     1      37.820 -25.158 -12.155  0.00  0.00    +0.000 C 
ATOM     19  C   UNL     1      36.921 -22.916 -11.504  0.00  0.00    +0.000 C 
ENDBRANCH  16  17
ENDBRANCH   5  16
ENDBRANCH   3   5
BRANCH   2  20
ATOM     20  C   UNL     1      36.995 -23.069 -16.072  0.00  0.00    +0.194 C 
BRANCH  20  22
ATOM     21  N   UNL     1      39.443 -23.913 -15.604  0.00  0.00    -0.194 NA
ATOM     22  C   UNL     1      38.364 -23.540 -15.810  0.00  0.00    +0.095 C 
ENDBRANCH  20  22
BRANCH  20  23
ATOM     23  C   UNL     1      36.985 -21.684 -16.717  0.00  0.00    +0.178 C 
BRANCH  23  24
ATOM     24  O   UNL     1      36.784 -21.770 -18.124  0.00  0.00    -0.346 OA
BRANCH  24  25
ATOM     25  C   UNL     1      35.453 -22.159 -18.434  0.00  0.00    +0.169 C 
BRANCH  25  26
ATOM     26  C   UNL     1      34.906 -21.236 -19.483  0.00  0.00    +0.007 C 
ATOM     27  C   UNL     1      35.776 -20.492 -20.280  0.00  0.00    -0.002 C 
ATOM     28  C   UNL     1      33.527 -21.121 -19.660  0.00  0.00    -0.002 C 
ATOM     29  C   UNL     1      35.268 -19.634 -21.254  0.00  0.00    -0.000 C 
ATOM     30  C   UNL     1      33.019 -20.262 -20.635  0.00  0.00    -0.000 C 
ATOM     31  C   UNL     1      33.889 -19.519 -21.432  0.00  0.00    -0.000 C 
ENDBRANCH  25  26
ENDBRANCH  24  25
ENDBRANCH  23  24
ENDBRANCH  20  23
ENDBRANCH   2  20
TORSDOF 10
ENDMDL
MODEL 6
REMARK VINA RESULT:      -8.8      6.352     11.813
REMARK  Name = 5287799
REMARK  10 active torsions:
REMARK  status: ('A' for Active; 'I' for Inactive)
REMARK    1  A    between atoms: N_2  and  C_20
REMARK    2  A    between atoms: C_3  and  C_5
REMARK    3  A    between atoms: C_5  and  N_9
REMARK    4  A    between atoms: C_5  and  C_16
REMARK    5  A    between atoms: C_16  and  C_17
REMARK    6  A    between atoms: C_20  and  C_22
REMARK    7  A    between atoms: C_20  and  C_23
REMARK    8  A    between atoms: C_23  and  O_24
REMARK    9  A    between atoms: O_24  and  C_25
REMARK   10  A    between atoms: C_25  and  C_26
REMARK                            x       y       z     vdW  Elec       q    Type
REMARK                         _______ _______ _______ _____ _____    ______ ____
ROOT
ATOM      1  O   UNL     1      34.925 -13.858 -22.598  0.00  0.00    -0.273 OA
ATOM      2  N   UNL     1      33.369 -15.568 -22.812  0.00  0.00    -0.291 N 
ATOM      3  C   UNL     1      33.859 -14.288 -23.033  0.00  0.00    +0.241 C 
ATOM      4  H   UNL     1      32.500 -15.811 -23.207  0.00  0.00    +0.150 HD
ENDROOT
BRANCH   3   5
ATOM      5  C   UNL     1      32.888 -13.435 -23.842  0.00  0.00    +0.150 C 
BRANCH   5   9
ATOM      6  O   UNL     1      31.725  -8.915 -19.436  0.00  0.00    -0.350 OA
ATOM      7  O   UNL     1      31.822 -13.522 -21.238  0.00  0.00    -0.253 OA
ATOM      8  N   UNL     1      31.744 -11.208 -21.088  0.00  0.00    -0.259 N 
ATOM      9  N   UNL     1      32.551 -12.287 -23.030  0.00  0.00    -0.282 N 
ATOM     10  C   UNL     1      31.182 -11.250 -19.735  0.00  0.00    +0.127 C 
ATOM     11  C   UNL     1      31.812  -9.862 -21.673  0.00  0.00    +0.127 C 
ATOM     12  C   UNL     1      32.027 -12.416 -21.749  0.00  0.00    +0.304 C 
ATOM     13  C   UNL     1      31.836 -10.209 -18.841  0.00  0.00    +0.164 C 
ATOM     14  C   UNL     1      32.418  -8.871 -20.685  0.00  0.00    +0.164 C 
ATOM     15  H   UNL     1      32.698 -11.386 -23.396  0.00  0.00    +0.151 HD
ENDBRANCH   5   9
BRANCH   5  16
ATOM     16  C   UNL     1      33.521 -13.034 -25.180  0.00  0.00    +0.029 C 
BRANCH  16  17
ATOM     17  C   UNL     1      32.915 -13.728 -26.417  0.00  0.00    +0.002 C 
ATOM     18  C   UNL     1      33.640 -13.353 -27.709  0.00  0.00    +0.000 C 
ATOM     19  C   UNL     1      32.953 -15.247 -26.226  0.00  0.00    +0.000 C 
ENDBRANCH  16  17
ENDBRANCH   5  16
ENDBRANCH   3   5
BRANCH   2  20
ATOM     20  C   UNL     1      34.070 -16.561 -22.029  0.00  0.00    +0.194 C 
BRANCH  20  22
ATOM     21  N   UNL     1      34.866 -15.535 -19.741  0.00  0.00    -0.194 NA
ATOM     22  C   UNL     1      34.515 -15.986 -20.751  0.00  0.00    +0.095 C 
ENDBRANCH  20  22
BRANCH  20  23
ATOM     23  C   UNL     1      35.235 -17.155 -22.820  0.00  0.00    +0.178 C 
BRANCH  23  24
ATOM     24  O   UNL     1      35.308 -18.567 -22.650  0.00  0.00    -0.346 OA
BRANCH  24  25
ATOM     25  C   UNL     1      36.089 -18.912 -21.514  0.00  0.00    +0.169 C 
BRANCH  25  26
ATOM     26  C   UNL     1      35.358 -19.952 -20.717  0.00  0.00    +0.007 C 
ATOM     27  C   UNL     1      33.963 -19.963 -20.697  0.00  0.00    -0.002 C 
ATOM     28  C   UNL     1      36.072 -20.907 -19.994  0.00  0.00    -0.002 C 
ATOM     29  C   UNL     1      33.283 -20.928 -19.956  0.00  0.00    -0.000 C 
ATOM     30  C   UNL     1      35.392 -21.873 -19.252  0.00  0.00    -0.000 C 
ATOM     31  C   UNL     1      33.998 -21.883 -19.233  0.00  0.00    -0.000 C 
ENDBRANCH  25  26
ENDBRANCH  24  25
ENDBRANCH  23  24
ENDBRANCH  20  23
ENDBRANCH   2  20
TORSDOF 10
ENDMDL
MODEL 7
REMARK VINA RESULT:      -8.8      9.568     14.628
REMARK  Name = 5287799
REMARK  10 active torsions:
REMARK  status: ('A' for Active; 'I' for Inactive)
REMARK    1  A    between atoms: N_2  and  C_20
REMARK    2  A    between atoms: C_3  and  C_5
REMARK    3  A    between atoms: C_5  and  N_9
REMARK    4  A    between atoms: C_5  and  C_16
REMARK    5  A    between atoms: C_16  and  C_17
REMARK    6  A    between atoms: C_20  and  C_22
REMARK    7  A    between atoms: C_20  and  C_23
REMARK    8  A    between atoms: C_23  and  O_24
REMARK    9  A    between atoms: O_24  and  C_25
REMARK   10  A    between atoms: C_25  and  C_26
REMARK                            x       y       z     vdW  Elec       q    Type
REMARK                         _______ _______ _______ _____ _____    ______ ____
ROOT
ATOM      1  O   UNL     1      34.249 -10.028 -23.848  0.00  0.00    -0.273 OA
ATOM      2  N   UNL     1      33.027 -11.982 -23.569  0.00  0.00    -0.291 N 
ATOM      3  C   UNL     1      33.305 -10.640 -23.355  0.00  0.00    +0.241 C 
ATOM      4  H   UNL     1      32.243 -12.376 -23.123  0.00  0.00    +0.150 HD
ENDROOT
BRANCH   3   5
ATOM      5  C   UNL     1      32.325 -10.003 -22.374  0.00  0.00    +0.150 C 
BRANCH   5   9
ATOM      6  O   UNL     1      30.830  -4.075 -24.326  0.00  0.00    -0.350 OA
ATOM      7  O   UNL     1      31.740  -7.619 -20.997  0.00  0.00    -0.253 OA
ATOM      8  N   UNL     1      31.134  -6.524 -22.950  0.00  0.00    -0.259 N 
ATOM      9  N   UNL     1      31.856  -8.775 -22.976  0.00  0.00    -0.282 N 
ATOM     10  C   UNL     1      30.822  -5.284 -22.235  0.00  0.00    +0.127 C 
ATOM     11  C   UNL     1      30.784  -6.504 -24.377  0.00  0.00    +0.127 C 
ATOM     12  C   UNL     1      31.590  -7.637 -22.223  0.00  0.00    +0.304 C 
ATOM     13  C   UNL     1      31.341  -4.072 -22.991  0.00  0.00    +0.164 C 
ATOM     14  C   UNL     1      31.284  -5.225 -25.040  0.00  0.00    +0.164 C 
ATOM     15  H   UNL     1      31.723  -8.743 -23.951  0.00  0.00    +0.151 HD
ENDBRANCH   5   9
BRANCH   5  16
ATOM     16  C   UNL     1      31.177 -10.973 -22.066  0.00  0.00    +0.029 C 
BRANCH  16  17
ATOM     17  C   UNL     1      31.173 -11.535 -20.629  0.00  0.00    +0.002 C 
ATOM     18  C   UNL     1      32.036 -12.789 -20.492  0.00  0.00    +0.000 C 
ATOM     19  C   UNL     1      31.663 -10.461 -19.654  0.00  0.00    +0.000 C 
ENDBRANCH  16  17
ENDBRANCH   5  16
ENDBRANCH   3   5
BRANCH   2  20
ATOM     20  C   UNL     1      33.834 -12.832 -24.416  0.00  0.00    +0.194 C 
BRANCH  20  22
ATOM     21  N   UNL     1      33.155 -12.530 -26.939  0.00  0.00    -0.194 NA
ATOM     22  C   UNL     1      33.453 -12.662 -25.826  0.00  0.00    +0.095 C 
ENDBRANCH  20  22
BRANCH  20  23
ATOM     23  C   UNL     1      33.738 -14.292 -23.974  0.00  0.00    +0.178 C 
BRANCH  23  24
ATOM     24  O   UNL     1      34.883 -14.683 -23.224  0.00  0.00    -0.346 OA
BRANCH  24  25
ATOM     25  C   UNL     1      34.514 -15.271 -21.984  0.00  0.00    +0.169 C 
BRANCH  25  26
ATOM     26  C   UNL     1      34.611 -16.764 -22.104  0.00  0.00    +0.007 C 
ATOM     27  C   UNL     1      35.259 -17.335 -23.199  0.00  0.00    -0.002 C 
ATOM     28  C   UNL     1      34.054 -17.580 -21.119  0.00  0.00    -0.002 C 
ATOM     29  C   UNL     1      35.349 -18.722 -23.311  0.00  0.00    -0.000 C 
ATOM     30  C   UNL     1      34.144 -18.968 -21.231  0.00  0.00    -0.000 C 
ATOM     31  C   UNL     1      34.792 -19.539 -22.326  0.00  0.00    -0.000 C 
ENDBRANCH  25  26
ENDBRANCH  24  25
ENDBRANCH  23  24
ENDBRANCH  20  23
ENDBRANCH   2  20
TORSDOF 10
ENDMDL
MODEL 8
REMARK VINA RESULT:      -8.8      7.880     13.459
REMARK  Name = 5287799
REMARK  10 active torsions:
REMARK  status: ('A' for Active; 'I' for Inactive)
REMARK    1  A    between atoms: N_2  and  C_20
REMARK    2  A    between atoms: C_3  and  C_5
REMARK    3  A    between atoms: C_5  and  N_9
REMARK    4  A    between atoms: C_5  and  C_16
REMARK    5  A    between atoms: C_16  and  C_17
REMARK    6  A    between atoms: C_20  and  C_22
REMARK    7  A    between atoms: C_20  and  C_23
REMARK    8  A    between atoms: C_23  and  O_24
REMARK    9  A    between atoms: O_24  and  C_25
REMARK   10  A    between atoms: C_25  and  C_26
REMARK                            x       y       z     vdW  Elec       q    Type
REMARK                         _______ _______ _______ _____ _____    ______ ____
ROOT
ATOM      1  O   UNL     1      31.939 -13.131 -21.876  0.00  0.00    -0.273 OA
ATOM      2  N   UNL     1      33.725 -13.967 -23.101  0.00  0.00    -0.291 N 
ATOM      3  C   UNL     1      32.791 -13.003 -22.752  0.00  0.00    +0.241 C 
ATOM      4  H   UNL     1      34.365 -13.762 -23.821  0.00  0.00    +0.150 HD
ENDROOT
BRANCH   3   5
ATOM      5  C   UNL     1      32.897 -11.760 -23.631  0.00  0.00    +0.150 C 
BRANCH   5   9
ATOM      6  O   UNL     1      31.845  -6.331 -20.374  0.00  0.00    -0.350 OA
ATOM      7  O   UNL     1      32.363  -9.115 -24.431  0.00  0.00    -0.253 OA
ATOM      8  N   UNL     1      32.538  -8.319 -22.259  0.00  0.00    -0.259 N 
ATOM      9  N   UNL     1      32.832 -10.612 -22.755  0.00  0.00    -0.282 N 
ATOM     10  C   UNL     1      32.268  -6.940 -22.674  0.00  0.00    +0.127 C 
ATOM     11  C   UNL     1      32.910  -8.464 -20.845  0.00  0.00    +0.127 C 
ATOM     12  C   UNL     1      32.561  -9.334 -23.231  0.00  0.00    +0.304 C 
ATOM     13  C   UNL     1      31.321  -6.254 -21.702  0.00  0.00    +0.164 C 
ATOM     14  C   UNL     1      31.949  -7.691 -19.949  0.00  0.00    +0.164 C 
ATOM     15  H   UNL     1      32.982 -10.739 -21.791  0.00  0.00    +0.151 HD
ENDBRANCH   5   9
BRANCH   5  16
ATOM     16  C   UNL     1      34.195 -11.796 -24.446  0.00  0.00    +0.029 C 
BRANCH  16  17
ATOM     17  C   UNL     1      34.026 -11.488 -25.948  0.00  0.00    +0.002 C 
ATOM     18  C   UNL     1      35.299 -10.916 -26.573  0.00  0.00    +0.000 C 
ATOM     19  C   UNL     1      33.614 -12.761 -26.692  0.00  0.00    +0.000 C 
ENDBRANCH  16  17
ENDBRANCH   5  16
ENDBRANCH   3   5
BRANCH   2  20
ATOM     20  C   UNL     1      33.806 -15.260 -22.459  0.00  0.00    +0.194 C 
BRANCH  20  22
ATOM     21  N   UNL     1      34.854 -15.029 -20.057  0.00  0.00    -0.194 NA
ATOM     22  C   UNL     1      34.393 -15.131 -21.117  0.00  0.00    +0.095 C 
ENDBRANCH  20  22
BRANCH  20  23
ATOM     23  C   UNL     1      34.583 -16.252 -23.324  0.00  0.00    +0.178 C 
BRANCH  23  24
ATOM     24  O   UNL     1      34.316 -17.596 -22.939  0.00  0.00    -0.346 OA
BRANCH  24  25
ATOM     25  C   UNL     1      35.414 -18.162 -22.238  0.00  0.00    +0.169 C 
BRANCH  25  26
ATOM     26  C   UNL     1      34.909 -19.243 -21.329  0.00  0.00    +0.007 C 
ATOM     27  C   UNL     1      35.808 -20.103 -20.699  0.00  0.00    -0.002 C 
ATOM     28  C   UNL     1      33.538 -19.390 -21.115  0.00  0.00    -0.002 C 
ATOM     29  C   UNL     1      35.339 -21.108 -19.855  0.00  0.00    -0.000 C 
ATOM     30  C   UNL     1      33.068 -20.397 -20.271  0.00  0.00    -0.000 C 
ATOM     31  C   UNL     1      33.968 -21.256 -19.641  0.00  0.00    -0.000 C 
ENDBRANCH  25  26
ENDBRANCH  24  25
ENDBRANCH  23  24
ENDBRANCH  20  23
ENDBRANCH   2  20
TORSDOF 10
ENDMDL
MODEL 9
REMARK VINA RESULT:      -8.7      6.998     12.222
REMARK  Name = 5287799
REMARK  10 active torsions:
REMARK  status: ('A' for Active; 'I' for Inactive)
REMARK    1  A    between atoms: N_2  and  C_20
REMARK    2  A    between atoms: C_3  and  C_5
REMARK    3  A    between atoms: C_5  and  N_9
REMARK    4  A    between atoms: C_5  and  C_16
REMARK    5  A    between atoms: C_16  and  C_17
REMARK    6  A    between atoms: C_20  and  C_22
REMARK    7  A    between atoms: C_20  and  C_23
REMARK    8  A    between atoms: C_23  and  O_24
REMARK    9  A    between atoms: O_24  and  C_25
REMARK   10  A    between atoms: C_25  and  C_26
REMARK                            x       y       z     vdW  Elec       q    Type
REMARK                         _______ _______ _______ _____ _____    ______ ____
ROOT
ATOM      1  O   UNL     1      33.655 -13.660 -25.128  0.00  0.00    -0.273 OA
ATOM      2  N   UNL     1      34.334 -15.490 -23.870  0.00  0.00    -0.291 N 
ATOM      3  C   UNL     1      33.900 -14.183 -24.043  0.00  0.00    +0.241 C 
ATOM      4  H   UNL     1      34.503 -15.810 -22.955  0.00  0.00    +0.150 HD
ENDROOT
BRANCH   3   5
ATOM      5  C   UNL     1      33.811 -13.430 -22.719  0.00  0.00    +0.150 C 
BRANCH   5   9
ATOM      6  O   UNL     1      33.001  -7.089 -23.284  0.00  0.00    -0.350 OA
ATOM      7  O   UNL     1      31.572 -11.749 -22.435  0.00  0.00    -0.253 OA
ATOM      8  N   UNL     1      32.737  -9.902 -23.217  0.00  0.00    -0.259 N 
ATOM      9  N   UNL     1      33.772 -12.020 -23.033  0.00  0.00    -0.282 N 
ATOM     10  C   UNL     1      31.571  -9.026 -23.077  0.00  0.00    +0.127 C 
ATOM     11  C   UNL     1      33.892  -9.272 -23.872  0.00  0.00    +0.127 C 
ATOM     12  C   UNL     1      32.622 -11.257 -22.862  0.00  0.00    +0.304 C 
ATOM     13  C   UNL     1      31.968  -7.680 -22.492  0.00  0.00    +0.164 C 
ATOM     14  C   UNL     1      34.176  -7.900 -23.270  0.00  0.00    +0.164 C 
ATOM     15  H   UNL     1      34.585 -11.585 -23.376  0.00  0.00    +0.151 HD
ENDBRANCH   5   9
BRANCH   5  16
ATOM     16  C   UNL     1      32.576 -13.885 -21.932  0.00  0.00    +0.029 C 
BRANCH  16  17
ATOM     17  C   UNL     1      32.884 -14.697 -20.657  0.00  0.00    +0.002 C 
ATOM     18  C   UNL     1      32.191 -16.060 -20.653  0.00  0.00    +0.000 C 
ATOM     19  C   UNL     1      34.397 -14.886 -20.519  0.00  0.00    +0.000 C 
ENDBRANCH  16  17
ENDBRANCH   5  16
ENDBRANCH   3   5
BRANCH   2  20
ATOM     20  C   UNL     1      34.553 -16.403 -24.969  0.00  0.00    +0.194 C 
BRANCH  20  22
ATOM     21  N   UNL     1      32.486 -16.391 -26.598  0.00  0.00    -0.194 NA
ATOM     22  C   UNL     1      33.398 -16.395 -25.880  0.00  0.00    +0.095 C 
ENDBRANCH  20  22
BRANCH  20  23
ATOM     23  C   UNL     1      34.861 -17.809 -24.457  0.00  0.00    +0.178 C 
BRANCH  23  24
ATOM     24  O   UNL     1      34.459 -17.967 -23.100  0.00  0.00    -0.346 OA
BRANCH  24  25
ATOM     25  C   UNL     1      35.488 -18.560 -22.321  0.00  0.00    +0.169 C 
BRANCH  25  26
ATOM     26  C   UNL     1      34.871 -19.517 -21.344  0.00  0.00    +0.007 C 
ATOM     27  C   UNL     1      33.490 -19.523 -21.151  0.00  0.00    -0.002 C 
ATOM     28  C   UNL     1      35.679 -20.400 -20.628  0.00  0.00    -0.002 C 
ATOM     29  C   UNL     1      32.916 -20.411 -20.243  0.00  0.00    -0.000 C 
ATOM     30  C   UNL     1      35.105 -21.290 -19.719  0.00  0.00    -0.000 C 
ATOM     31  C   UNL     1      33.724 -21.295 -19.527  0.00  0.00    -0.000 C 
ENDBRANCH  25  26
ENDBRANCH  24  25
ENDBRANCH  23  24
ENDBRANCH  20  23
ENDBRANCH   2  20
TORSDOF 10
ENDMDL
