MODEL 1
REMARK VINA RESULT:     -11.3      0.000      0.000
REMARK  Name = 447492
REMARK  5 active torsions:
REMARK  status: ('A' for Active; 'I' for Inactive)
REMARK    1  A    between atoms: C_2  and  C_17
REMARK    2  A    between atoms: C_8  and  C_13
REMARK    3  A    between atoms: C_18  and  O_29
REMARK    4  A    between atoms: C_19  and  C_23
REMARK    5  A    between atoms: C_21  and  O_31
REMARK                            x       y       z     vdW  Elec       q    Type
REMARK                         _______ _______ _______ _____ _____    ______ ____
ROOT
ATOM      1  N   UNL     1      35.536 -17.486 -22.075  0.00  0.00    -0.312 N 
ATOM      2  C   UNL     1      34.228 -17.168 -22.325  0.00  0.00    +0.051 C 
ATOM      3  C   UNL     1      34.300 -19.054 -21.081  0.00  0.00    +0.015 C 
ATOM      4  C   UNL     1      35.610 -18.634 -21.318  0.00  0.00    +0.048 C 
ATOM      5  C   UNL     1      33.439 -18.121 -21.723  0.00  0.00    +0.016 C 
ATOM      6  C   UNL     1      34.089 -20.221 -20.319  0.00  0.00    +0.004 C 
ATOM      7  C   UNL     1      36.725 -19.324 -20.829  0.00  0.00    +0.015 C 
ATOM      8  C   UNL     1      35.196 -20.922 -19.824  0.00  0.00    +0.031 C 
ATOM      9  C   UNL     1      36.493 -20.478 -20.076  0.00  0.00    +0.004 C 
ATOM     10  H   UNL     1      36.312 -16.969 -22.393  0.00  0.00    +0.152 HD
ENDROOT
BRANCH   8  13
ATOM     11  N   UNL     1      33.992 -23.045 -19.367  0.00  0.00    -0.343 N 
ATOM     12  N   UNL     1      35.747 -22.364 -17.982  0.00  0.00    -0.285 NA
ATOM     13  C   UNL     1      34.987 -22.127 -19.037  0.00  0.00    +0.117 C 
ATOM     14  H   UNL     1      33.868 -23.854 -18.820  0.00  0.00    +0.144 HD
ATOM     15  H   UNL     1      33.414 -22.885 -20.147  0.00  0.00    +0.144 HD
ATOM     16  H   UNL     1      35.609 -23.178 -17.447  0.00  0.00    +0.188 HD
ENDBRANCH   8  13
BRANCH   2  17
ATOM     17  C   UNL     1      33.857 -16.009 -23.101  0.00  0.00    +0.050 C 
ATOM     18  C   UNL     1      33.395 -14.847 -22.481  0.00  0.00    +0.135 C 
ATOM     19  C   UNL     1      33.043 -13.738 -23.250  0.00  0.00    +0.037 C 
ATOM     20  C   UNL     1      33.967 -16.059 -24.491  0.00  0.00    +0.041 C 
ATOM     21  C   UNL     1      33.615 -14.950 -25.260  0.00  0.00    +0.139 C 
ATOM     22  C   UNL     1      33.153 -13.790 -24.640  0.00  0.00    +0.040 C 
BRANCH  19  23
ATOM     23  C   UNL     1      32.560 -12.522 -22.628  0.00  0.00    +0.003 C 
ATOM     24  C   UNL     1      32.853 -11.285 -23.199  0.00  0.00    +0.000 C 
ATOM     25  C   UNL     1      31.802 -12.591 -21.461  0.00  0.00    +0.000 C 
ATOM     26  C   UNL     1      32.388 -10.113 -22.601  0.00  0.00    +0.000 C 
ATOM     27  C   UNL     1      31.336 -11.421 -20.862  0.00  0.00    +0.000 C 
ATOM     28  C   UNL     1      31.629 -10.181 -21.432  0.00  0.00    +0.000 C 
ENDBRANCH  19  23
BRANCH  18  29
ATOM     29  O   UNL     1      33.287 -14.795 -21.120  0.00  0.00    -0.505 OA
ATOM     30  H   UNL     1      33.027 -13.998 -20.700  0.00  0.00    +0.292 HD
ENDBRANCH  18  29
BRANCH  21  31
ATOM     31  O   UNL     1      33.722 -15.001 -26.616  0.00  0.00    -0.471 OA
ATOM     32  C   UNL     1      33.399 -13.813 -27.338  0.00  0.00    +0.252 C 
ENDBRANCH  21  31
ENDBRANCH   2  17
TORSDOF 5
ENDMDL
MODEL 2
REMARK VINA RESULT:     -11.2      5.178     10.678
REMARK  Name = 447492
REMARK  5 active torsions:
REMARK  status: ('A' for Active; 'I' for Inactive)
REMARK    1  A    between atoms: C_2  and  C_17
REMARK    2  A    between atoms: C_8  and  C_13
REMARK    3  A    between atoms: C_18  and  O_29
REMARK    4  A    between atoms: C_19  and  C_23
REMARK    5  A    between atoms: C_21  and  O_31
REMARK                            x       y       z     vdW  Elec       q    Type
REMARK                         _______ _______ _______ _____ _____    ______ ____
ROOT
ATOM      1  N   UNL     1      35.770 -20.980 -19.164  0.00  0.00    -0.312 N 
ATOM      2  C   UNL     1      34.511 -21.481 -18.962  0.00  0.00    +0.051 C 
ATOM      3  C   UNL     1      34.502 -20.199 -20.824  0.00  0.00    +0.015 C 
ATOM      4  C   UNL     1      35.793 -20.194 -20.293  0.00  0.00    +0.048 C 
ATOM      5  C   UNL     1      33.704 -21.015 -19.974  0.00  0.00    +0.016 C 
ATOM      6  C   UNL     1      34.249 -19.462 -21.999  0.00  0.00    +0.004 C 
ATOM      7  C   UNL     1      36.849 -19.485 -20.879  0.00  0.00    +0.015 C 
ATOM      8  C   UNL     1      35.295 -18.748 -22.595  0.00  0.00    +0.031 C 
ATOM      9  C   UNL     1      36.575 -18.761 -22.042  0.00  0.00    +0.004 C 
ATOM     10  H   UNL     1      36.545 -21.157 -18.583  0.00  0.00    +0.152 HD
ENDROOT
BRANCH   8  13
ATOM     11  N   UNL     1      35.443 -16.655 -23.923  0.00  0.00    -0.343 N 
ATOM     12  N   UNL     1      34.415 -18.551 -24.823  0.00  0.00    -0.285 NA
ATOM     13  C   UNL     1      35.042 -17.984 -23.807  0.00  0.00    +0.117 C 
ATOM     14  H   UNL     1      35.261 -16.156 -24.753  0.00  0.00    +0.144 HD
ATOM     15  H   UNL     1      35.909 -16.215 -23.176  0.00  0.00    +0.144 HD
ATOM     16  H   UNL     1      34.242 -18.037 -25.644  0.00  0.00    +0.188 HD
ENDBRANCH   8  13
BRANCH   2  17
ATOM     17  C   UNL     1      34.198 -22.341 -17.846  0.00  0.00    +0.050 C 
ATOM     18  C   UNL     1      35.199 -22.794 -16.985  0.00  0.00    +0.135 C 
ATOM     19  C   UNL     1      34.873 -23.623 -15.911  0.00  0.00    +0.037 C 
ATOM     20  C   UNL     1      32.872 -22.718 -17.631  0.00  0.00    +0.041 C 
ATOM     21  C   UNL     1      32.547 -23.546 -16.557  0.00  0.00    +0.139 C 
ATOM     22  C   UNL     1      33.547 -23.999 -15.698  0.00  0.00    +0.040 C 
BRANCH  19  23
ATOM     23  C   UNL     1      35.896 -24.106 -15.005  0.00  0.00    +0.003 C 
ATOM     24  C   UNL     1      36.351 -23.289 -13.972  0.00  0.00    +0.000 C 
ATOM     25  C   UNL     1      36.421 -25.386 -15.168  0.00  0.00    +0.000 C 
ATOM     26  C   UNL     1      37.336 -23.754 -13.099  0.00  0.00    +0.000 C 
ATOM     27  C   UNL     1      37.405 -25.852 -14.296  0.00  0.00    +0.000 C 
ATOM     28  C   UNL     1      37.862 -25.035 -13.261  0.00  0.00    +0.000 C 
ENDBRANCH  19  23
BRANCH  18  29
ATOM     29  O   UNL     1      36.498 -22.424 -17.193  0.00  0.00    -0.505 OA
ATOM     30  H   UNL     1      36.830 -22.351 -18.067  0.00  0.00    +0.292 HD
ENDBRANCH  18  29
BRANCH  21  31
ATOM     31  O   UNL     1      31.253 -23.915 -16.350  0.00  0.00    -0.471 OA
ATOM     32  C   UNL     1      30.292 -22.868 -16.227  0.00  0.00    +0.252 C 
ENDBRANCH  21  31
ENDBRANCH   2  17
TORSDOF 5
ENDMDL
MODEL 3
REMARK VINA RESULT:     -11.1      3.229      5.779
REMARK  Name = 447492
REMARK  5 active torsions:
REMARK  status: ('A' for Active; 'I' for Inactive)
REMARK    1  A    between atoms: C_2  and  C_17
REMARK    2  A    between atoms: C_8  and  C_13
REMARK    3  A    between atoms: C_18  and  O_29
REMARK    4  A    between atoms: C_19  and  C_23
REMARK    5  A    between atoms: C_21  and  O_31
REMARK                            x       y       z     vdW  Elec       q    Type
REMARK                         _______ _______ _______ _____ _____    ______ ____
ROOT
ATOM      1  N   UNL     1      32.954 -13.534 -24.237  0.00  0.00    -0.312 N 
ATOM      2  C   UNL     1      33.085 -13.106 -22.943  0.00  0.00    +0.051 C 
ATOM      3  C   UNL     1      33.981 -15.173 -23.127  0.00  0.00    +0.015 C 
ATOM      4  C   UNL     1      33.492 -14.793 -24.378  0.00  0.00    +0.048 C 
ATOM      5  C   UNL     1      33.717 -14.099 -22.231  0.00  0.00    +0.016 C 
ATOM      6  C   UNL     1      34.591 -16.437 -22.992  0.00  0.00    +0.004 C 
ATOM      7  C   UNL     1      33.582 -15.616 -25.506  0.00  0.00    +0.015 C 
ATOM      8  C   UNL     1      34.687 -17.271 -24.112  0.00  0.00    +0.031 C 
ATOM      9  C   UNL     1      34.190 -16.865 -25.350  0.00  0.00    +0.004 C 
ATOM     10  H   UNL     1      32.534 -13.015 -24.962  0.00  0.00    +0.152 HD
ENDROOT
BRANCH   8  13
ATOM     11  N   UNL     1      34.852 -19.678 -24.698  0.00  0.00    -0.343 N 
ATOM     12  N   UNL     1      36.342 -18.734 -23.165  0.00  0.00    -0.285 NA
ATOM     13  C   UNL     1      35.315 -18.577 -23.982  0.00  0.00    +0.117 C 
ATOM     14  H   UNL     1      35.292 -20.553 -24.594  0.00  0.00    +0.144 HD
ATOM     15  H   UNL     1      34.087 -19.581 -25.309  0.00  0.00    +0.144 HD
ATOM     16  H   UNL     1      36.769 -19.616 -23.074  0.00  0.00    +0.188 HD
ENDBRANCH   8  13
BRANCH   2  17
ATOM     17  C   UNL     1      32.605 -11.815 -22.511  0.00  0.00    +0.050 C 
ATOM     18  C   UNL     1      32.882 -10.662 -23.247  0.00  0.00    +0.135 C 
ATOM     19  C   UNL     1      32.407  -9.425 -22.812  0.00  0.00    +0.037 C 
ATOM     20  C   UNL     1      31.851 -11.728 -21.340  0.00  0.00    +0.041 C 
ATOM     21  C   UNL     1      31.376 -10.492 -20.905  0.00  0.00    +0.139 C 
ATOM     22  C   UNL     1      31.654  -9.340 -21.640  0.00  0.00    +0.040 C 
BRANCH  19  23
ATOM     23  C   UNL     1      32.683  -8.214 -23.559  0.00  0.00    +0.003 C 
ATOM     24  C   UNL     1      31.632  -7.404 -23.984  0.00  0.00    +0.000 C 
ATOM     25  C   UNL     1      34.000  -7.863 -23.851  0.00  0.00    +0.000 C 
ATOM     26  C   UNL     1      31.897  -6.238 -24.703  0.00  0.00    +0.000 C 
ATOM     27  C   UNL     1      34.266  -6.698 -24.570  0.00  0.00    +0.000 C 
ATOM     28  C   UNL     1      33.215  -5.885 -24.996  0.00  0.00    +0.000 C 
ENDBRANCH  19  23
BRANCH  18  29
ATOM     29  O   UNL     1      33.618 -10.744 -24.395  0.00  0.00    -0.505 OA
ATOM     30  H   UNL     1      33.478 -10.128 -25.087  0.00  0.00    +0.292 HD
ENDBRANCH  18  29
BRANCH  21  31
ATOM     31  O   UNL     1      30.643 -10.409 -19.762  0.00  0.00    -0.471 OA
ATOM     32  C   UNL     1      31.300 -10.753 -18.542  0.00  0.00    +0.252 C 
ENDBRANCH  21  31
ENDBRANCH   2  17
TORSDOF 5
ENDMDL
MODEL 4
REMARK VINA RESULT:     -10.9      5.756     11.517
REMARK  Name = 447492
REMARK  5 active torsions:
REMARK  status: ('A' for Active; 'I' for Inactive)
REMARK    1  A    between atoms: C_2  and  C_17
REMARK    2  A    between atoms: C_8  and  C_13
REMARK    3  A    between atoms: C_18  and  O_29
REMARK    4  A    between atoms: C_19  and  C_23
REMARK    5  A    between atoms: C_21  and  O_31
REMARK                            x       y       z     vdW  Elec       q    Type
REMARK                         _______ _______ _______ _____ _____    ______ ____
ROOT
ATOM      1  N   UNL     1      33.048 -21.649 -18.764  0.00  0.00    -0.312 N 
ATOM      2  C   UNL     1      34.126 -22.169 -18.098  0.00  0.00    +0.051 C 
ATOM      3  C   UNL     1      34.865 -20.946 -19.850  0.00  0.00    +0.015 C 
ATOM      4  C   UNL     1      33.470 -20.898 -19.838  0.00  0.00    +0.048 C 
ATOM      5  C   UNL     1      35.265 -21.752 -18.747  0.00  0.00    +0.016 C 
ATOM      6  C   UNL     1      35.559 -20.252 -20.861  0.00  0.00    +0.004 C 
ATOM      7  C   UNL     1      32.730 -20.188 -20.790  0.00  0.00    +0.015 C 
ATOM      8  C   UNL     1      34.832 -19.537 -21.821  0.00  0.00    +0.031 C 
ATOM      9  C   UNL     1      33.439 -19.507 -21.784  0.00  0.00    +0.004 C 
ATOM     10  H   UNL     1      32.107 -21.792 -18.510  0.00  0.00    +0.152 HD
ENDROOT
BRANCH   8  13
ATOM     11  N   UNL     1      34.999 -18.678 -24.144  0.00  0.00    -0.343 N 
ATOM     12  N   UNL     1      36.724 -18.288 -22.616  0.00  0.00    -0.285 NA
ATOM     13  C   UNL     1      35.540 -18.818 -22.868  0.00  0.00    +0.117 C 
ATOM     14  H   UNL     1      35.496 -18.187 -24.838  0.00  0.00    +0.144 HD
ATOM     15  H   UNL     1      34.120 -19.068 -24.352  0.00  0.00    +0.144 HD
ATOM     16  H   UNL     1      37.206 -17.801 -23.323  0.00  0.00    +0.188 HD
ENDBRANCH   8  13
BRANCH   2  17
ATOM     17  C   UNL     1      33.975 -23.000 -16.928  0.00  0.00    +0.050 C 
ATOM     18  C   UNL     1      35.090 -23.477 -16.236  0.00  0.00    +0.135 C 
ATOM     19  C   UNL     1      34.920 -24.277 -15.106  0.00  0.00    +0.037 C 
ATOM     20  C   UNL     1      32.691 -23.325 -16.487  0.00  0.00    +0.041 C 
ATOM     21  C   UNL     1      32.522 -24.125 -15.358  0.00  0.00    +0.139 C 
ATOM     22  C   UNL     1      33.635 -24.602 -14.667  0.00  0.00    +0.040 C 
BRANCH  19  23
ATOM     23  C   UNL     1      36.062 -24.785 -14.373  0.00  0.00    +0.003 C 
ATOM     24  C   UNL     1      36.677 -25.969 -14.776  0.00  0.00    +0.000 C 
ATOM     25  C   UNL     1      36.545 -24.087 -13.267  0.00  0.00    +0.000 C 
ATOM     26  C   UNL     1      37.778 -26.457 -14.071  0.00  0.00    +0.000 C 
ATOM     27  C   UNL     1      37.644 -24.575 -12.562  0.00  0.00    +0.000 C 
ATOM     28  C   UNL     1      38.261 -25.760 -12.964  0.00  0.00    +0.000 C 
ENDBRANCH  19  23
BRANCH  18  29
ATOM     29  O   UNL     1      36.347 -23.159 -16.665  0.00  0.00    -0.505 OA
ATOM     30  H   UNL     1      36.534 -22.291 -16.966  0.00  0.00    +0.292 HD
ENDBRANCH  18  29
BRANCH  21  31
ATOM     31  O   UNL     1      31.269 -24.442 -14.930  0.00  0.00    -0.471 OA
ATOM     32  C   UNL     1      31.153 -25.014 -13.628  0.00  0.00    +0.252 C 
ENDBRANCH  21  31
ENDBRANCH   2  17
TORSDOF 5
ENDMDL
MODEL 5
REMARK VINA RESULT:     -10.8      1.414      3.558
REMARK  Name = 447492
REMARK  5 active torsions:
REMARK  status: ('A' for Active; 'I' for Inactive)
REMARK    1  A    between atoms: C_2  and  C_17
REMARK    2  A    between atoms: C_8  and  C_13
REMARK    3  A    between atoms: C_18  and  O_29
REMARK    4  A    between atoms: C_19  and  C_23
REMARK    5  A    between atoms: C_21  and  O_31
REMARK                            x       y       z     vdW  Elec       q    Type
REMARK                         _______ _______ _______ _____ _____    ______ ____
ROOT
ATOM      1  N   UNL     1      34.883 -17.653 -21.237  0.00  0.00    -0.312 N 
ATOM      2  C   UNL     1      33.605 -17.162 -21.199  0.00  0.00    +0.051 C 
ATOM      3  C   UNL     1      33.591 -19.300 -20.466  0.00  0.00    +0.015 C 
ATOM      4  C   UNL     1      34.904 -18.957 -20.795  0.00  0.00    +0.048 C 
ATOM      5  C   UNL     1      32.783 -18.158 -20.726  0.00  0.00    +0.016 C 
ATOM      6  C   UNL     1      33.331 -20.597 -19.981  0.00  0.00    +0.004 C 
ATOM      7  C   UNL     1      35.974 -19.849 -20.664  0.00  0.00    +0.015 C 
ATOM      8  C   UNL     1      34.392 -21.501 -19.844  0.00  0.00    +0.031 C 
ATOM      9  C   UNL     1      35.692 -21.130 -20.181  0.00  0.00    +0.004 C 
ATOM     10  H   UNL     1      35.672 -17.147 -21.538  0.00  0.00    +0.152 HD
ENDROOT
BRANCH   8  13
ATOM     11  N   UNL     1      33.751 -23.062 -18.022  0.00  0.00    -0.343 N 
ATOM     12  N   UNL     1      34.260 -23.881 -20.151  0.00  0.00    -0.285 NA
ATOM     13  C   UNL     1      34.131 -22.842 -19.345  0.00  0.00    +0.117 C 
ATOM     14  H   UNL     1      33.581 -23.978 -17.705  0.00  0.00    +0.144 HD
ATOM     15  H   UNL     1      33.653 -22.301 -17.406  0.00  0.00    +0.144 HD
ATOM     16  H   UNL     1      34.085 -24.790 -19.816  0.00  0.00    +0.188 HD
ENDBRANCH   8  13
BRANCH   2  17
ATOM     17  C   UNL     1      33.291 -15.814 -21.609  0.00  0.00    +0.050 C 
ATOM     18  C   UNL     1      33.461 -15.407 -22.934  0.00  0.00    +0.135 C 
ATOM     19  C   UNL     1      33.149 -14.100 -23.308  0.00  0.00    +0.037 C 
ATOM     20  C   UNL     1      32.808 -14.911 -20.661  0.00  0.00    +0.041 C 
ATOM     21  C   UNL     1      32.497 -13.605 -21.035  0.00  0.00    +0.139 C 
ATOM     22  C   UNL     1      32.667 -13.199 -22.358  0.00  0.00    +0.040 C 
BRANCH  19  23
ATOM     23  C   UNL     1      33.318 -13.656 -24.677  0.00  0.00    +0.003 C 
ATOM     24  C   UNL     1      32.940 -14.487 -25.729  0.00  0.00    +0.000 C 
ATOM     25  C   UNL     1      33.857 -12.398 -24.938  0.00  0.00    +0.000 C 
ATOM     26  C   UNL     1      33.103 -14.060 -27.048  0.00  0.00    +0.000 C 
ATOM     27  C   UNL     1      34.020 -11.970 -26.255  0.00  0.00    +0.000 C 
ATOM     28  C   UNL     1      33.643 -12.801 -27.310  0.00  0.00    +0.000 C 
ENDBRANCH  19  23
BRANCH  18  29
ATOM     29  O   UNL     1      33.932 -16.290 -23.864  0.00  0.00    -0.505 OA
ATOM     30  H   UNL     1      33.978 -16.039 -24.767  0.00  0.00    +0.292 HD
ENDBRANCH  18  29
BRANCH  21  31
ATOM     31  O   UNL     1      32.028 -12.725 -20.109  0.00  0.00    -0.471 OA
ATOM     32  C   UNL     1      31.358 -11.563 -20.596  0.00  0.00    +0.252 C 
ENDBRANCH  21  31
ENDBRANCH   2  17
TORSDOF 5
ENDMDL
MODEL 6
REMARK VINA RESULT:     -10.3      5.072     10.304
REMARK  Name = 447492
REMARK  5 active torsions:
REMARK  status: ('A' for Active; 'I' for Inactive)
REMARK    1  A    between atoms: C_2  and  C_17
REMARK    2  A    between atoms: C_8  and  C_13
REMARK    3  A    between atoms: C_18  and  O_29
REMARK    4  A    between atoms: C_19  and  C_23
REMARK    5  A    between atoms: C_21  and  O_31
REMARK                            x       y       z     vdW  Elec       q    Type
REMARK                         _______ _______ _______ _____ _____    ______ ____
ROOT
ATOM      1  N   UNL     1      35.944 -20.922 -19.123  0.00  0.00    -0.312 N 
ATOM      2  C   UNL     1      34.710 -21.472 -18.899  0.00  0.00    +0.051 C 
ATOM      3  C   UNL     1      34.632 -20.240 -20.793  0.00  0.00    +0.015 C 
ATOM      4  C   UNL     1      35.925 -20.164 -20.273  0.00  0.00    +0.048 C 
ATOM      5  C   UNL     1      33.876 -21.067 -19.916  0.00  0.00    +0.016 C 
ATOM      6  C   UNL     1      34.339 -19.545 -21.984  0.00  0.00    +0.004 C 
ATOM      7  C   UNL     1      36.945 -19.426 -20.884  0.00  0.00    +0.015 C 
ATOM      8  C   UNL     1      35.348 -18.801 -22.606  0.00  0.00    +0.031 C 
ATOM      9  C   UNL     1      36.631 -18.745 -22.064  0.00  0.00    +0.004 C 
ATOM     10  H   UNL     1      36.731 -21.050 -18.545  0.00  0.00    +0.152 HD
ENDROOT
BRANCH   8  13
ATOM     11  N   UNL     1      35.461 -16.761 -24.017  0.00  0.00    -0.343 N 
ATOM     12  N   UNL     1      34.381 -18.679 -24.803  0.00  0.00    -0.285 NA
ATOM     13  C   UNL     1      35.054 -18.081 -23.835  0.00  0.00    +0.117 C 
ATOM     14  H   UNL     1      35.250 -16.292 -24.857  0.00  0.00    +0.144 HD
ATOM     15  H   UNL     1      35.960 -16.298 -23.307  0.00  0.00    +0.144 HD
ATOM     16  H   UNL     1      34.180 -18.194 -25.636  0.00  0.00    +0.188 HD
ENDBRANCH   8  13
BRANCH   2  17
ATOM     17  C   UNL     1      34.443 -22.315 -17.759  0.00  0.00    +0.050 C 
ATOM     18  C   UNL     1      33.136 -22.649 -17.402  0.00  0.00    +0.135 C 
ATOM     19  C   UNL     1      32.901 -23.467 -16.297  0.00  0.00    +0.037 C 
ATOM     20  C   UNL     1      35.515 -22.802 -17.009  0.00  0.00    +0.041 C 
ATOM     21  C   UNL     1      35.280 -23.620 -15.905  0.00  0.00    +0.139 C 
ATOM     22  C   UNL     1      33.974 -23.953 -15.548  0.00  0.00    +0.040 C 
BRANCH  19  23
ATOM     23  C   UNL     1      31.552 -23.826 -15.907  0.00  0.00    +0.003 C 
ATOM     24  C   UNL     1      30.478 -23.035 -16.312  0.00  0.00    +0.000 C 
ATOM     25  C   UNL     1      31.332 -24.961 -15.130  0.00  0.00    +0.000 C 
ATOM     26  C   UNL     1      29.179 -23.380 -15.937  0.00  0.00    +0.000 C 
ATOM     27  C   UNL     1      30.033 -25.306 -14.754  0.00  0.00    +0.000 C 
ATOM     28  C   UNL     1      28.957 -24.516 -15.158  0.00  0.00    +0.000 C 
ENDBRANCH  19  23
BRANCH  18  29
ATOM     29  O   UNL     1      32.085 -22.175 -18.135  0.00  0.00    -0.505 OA
ATOM     30  H   UNL     1      32.225 -21.503 -18.775  0.00  0.00    +0.292 HD
ENDBRANCH  18  29
BRANCH  21  31
ATOM     31  O   UNL     1      36.326 -24.092 -15.174  0.00  0.00    -0.471 OA
ATOM     32  C   UNL     1      36.388 -25.503 -14.964  0.00  0.00    +0.252 C 
ENDBRANCH  21  31
ENDBRANCH   2  17
TORSDOF 5
ENDMDL
MODEL 7
REMARK VINA RESULT:     -10.0      3.343      8.402
REMARK  Name = 447492
REMARK  5 active torsions:
REMARK  status: ('A' for Active; 'I' for Inactive)
REMARK    1  A    between atoms: C_2  and  C_17
REMARK    2  A    between atoms: C_8  and  C_13
REMARK    3  A    between atoms: C_18  and  O_29
REMARK    4  A    between atoms: C_19  and  C_23
REMARK    5  A    between atoms: C_21  and  O_31
REMARK                            x       y       z     vdW  Elec       q    Type
REMARK                         _______ _______ _______ _____ _____    ______ ____
ROOT
ATOM      1  N   UNL     1      32.487 -13.424 -21.219  0.00  0.00    -0.312 N 
ATOM      2  C   UNL     1      33.115 -13.524 -22.431  0.00  0.00    +0.051 C 
ATOM      3  C   UNL     1      32.705 -11.344 -21.994  0.00  0.00    +0.015 C 
ATOM      4  C   UNL     1      32.224 -12.105 -20.927  0.00  0.00    +0.048 C 
ATOM      5  C   UNL     1      33.264 -12.253 -22.936  0.00  0.00    +0.016 C 
ATOM      6  C   UNL     1      32.562  -9.943 -21.947  0.00  0.00    +0.004 C 
ATOM      7  C   UNL     1      31.604 -11.533 -19.810  0.00  0.00    +0.015 C 
ATOM      8  C   UNL     1      31.943  -9.357 -20.837  0.00  0.00    +0.031 C 
ATOM      9  C   UNL     1      31.472 -10.141 -19.785  0.00  0.00    +0.004 C 
ATOM     10  H   UNL     1      32.255 -14.187 -20.640  0.00  0.00    +0.152 HD
ENDROOT
BRANCH   8  13
ATOM     11  N   UNL     1      31.386  -7.181 -21.897  0.00  0.00    -0.343 N 
ATOM     12  N   UNL     1      32.043  -7.266 -19.656  0.00  0.00    -0.285 NA
ATOM     13  C   UNL     1      31.790  -7.911 -20.781  0.00  0.00    +0.117 C 
ATOM     14  H   UNL     1      31.290  -6.203 -21.837  0.00  0.00    +0.144 HD
ATOM     15  H   UNL     1      31.196  -7.644 -22.745  0.00  0.00    +0.144 HD
ATOM     16  H   UNL     1      31.941  -6.288 -19.615  0.00  0.00    +0.188 HD
ENDBRANCH   8  13
BRANCH   2  17
ATOM     17  C   UNL     1      33.508 -14.796 -22.988  0.00  0.00    +0.050 C 
ATOM     18  C   UNL     1      33.966 -15.829 -22.168  0.00  0.00    +0.135 C 
ATOM     19  C   UNL     1      34.339 -17.051 -22.728  0.00  0.00    +0.037 C 
ATOM     20  C   UNL     1      33.422 -14.989 -24.367  0.00  0.00    +0.041 C 
ATOM     21  C   UNL     1      33.795 -16.211 -24.926  0.00  0.00    +0.139 C 
ATOM     22  C   UNL     1      34.254 -17.242 -24.107  0.00  0.00    +0.040 C 
BRANCH  19  23
ATOM     23  C   UNL     1      34.819 -18.137 -21.896  0.00  0.00    +0.003 C 
ATOM     24  C   UNL     1      33.912 -19.031 -21.329  0.00  0.00    +0.000 C 
ATOM     25  C   UNL     1      36.185 -18.285 -21.666  0.00  0.00    +0.000 C 
ATOM     26  C   UNL     1      34.374 -20.077 -20.529  0.00  0.00    +0.000 C 
ATOM     27  C   UNL     1      36.647 -19.330 -20.866  0.00  0.00    +0.000 C 
ATOM     28  C   UNL     1      35.741 -20.226 -20.297  0.00  0.00    +0.000 C 
ENDBRANCH  19  23
BRANCH  18  29
ATOM     29  O   UNL     1      34.049 -15.643 -20.817  0.00  0.00    -0.505 OA
ATOM     30  H   UNL     1      34.858 -15.803 -20.371  0.00  0.00    +0.292 HD
ENDBRANCH  18  29
BRANCH  21  31
ATOM     31  O   UNL     1      33.713 -16.397 -26.272  0.00  0.00    -0.471 OA
ATOM     32  C   UNL     1      32.691 -15.683 -26.965  0.00  0.00    +0.252 C 
ENDBRANCH  21  31
ENDBRANCH   2  17
TORSDOF 5
ENDMDL
MODEL 8
REMARK VINA RESULT:     -10.0      5.588     11.180
REMARK  Name = 447492
REMARK  5 active torsions:
REMARK  status: ('A' for Active; 'I' for Inactive)
REMARK    1  A    between atoms: C_2  and  C_17
REMARK    2  A    between atoms: C_8  and  C_13
REMARK    3  A    between atoms: C_18  and  O_29
REMARK    4  A    between atoms: C_19  and  C_23
REMARK    5  A    between atoms: C_21  and  O_31
REMARK                            x       y       z     vdW  Elec       q    Type
REMARK                         _______ _______ _______ _____ _____    ______ ____
ROOT
ATOM      1  N   UNL     1      33.360  -8.474 -23.954  0.00  0.00    -0.312 N 
ATOM      2  C   UNL     1      32.260  -9.017 -23.345  0.00  0.00    +0.051 C 
ATOM      3  C   UNL     1      31.727  -6.965 -24.132  0.00  0.00    +0.015 C 
ATOM      4  C   UNL     1      33.064  -7.222 -24.443  0.00  0.00    +0.048 C 
ATOM      5  C   UNL     1      31.233  -8.106 -23.439  0.00  0.00    +0.016 C 
ATOM      6  C   UNL     1      31.163  -5.735 -24.525  0.00  0.00    +0.004 C 
ATOM      7  C   UNL     1      33.869  -6.307 -25.130  0.00  0.00    +0.015 C 
ATOM      8  C   UNL     1      31.957  -4.809 -25.213  0.00  0.00    +0.031 C 
ATOM      9  C   UNL     1      33.289  -5.093 -25.510  0.00  0.00    +0.004 C 
ATOM     10  H   UNL     1      34.236  -8.917 -24.030  0.00  0.00    +0.152 HD
ENDROOT
BRANCH   8  13
ATOM     11  N   UNL     1      30.327  -2.959 -24.920  0.00  0.00    -0.343 N 
ATOM     12  N   UNL     1      31.862  -2.910 -26.682  0.00  0.00    -0.285 NA
ATOM     13  C   UNL     1      31.383  -3.537 -25.622  0.00  0.00    +0.117 C 
ATOM     14  H   UNL     1      29.953  -2.097 -25.215  0.00  0.00    +0.144 HD
ATOM     15  H   UNL     1      29.955  -3.412 -24.130  0.00  0.00    +0.144 HD
ATOM     16  H   UNL     1      31.475  -2.049 -26.962  0.00  0.00    +0.188 HD
ENDBRANCH   8  13
BRANCH   2  17
ATOM     17  C   UNL     1      32.287 -10.327 -22.741  0.00  0.00    +0.050 C 
ATOM     18  C   UNL     1      32.802 -11.426 -23.430  0.00  0.00    +0.135 C 
ATOM     19  C   UNL     1      32.820 -12.683 -22.826  0.00  0.00    +0.037 C 
ATOM     20  C   UNL     1      31.791 -10.488 -21.446  0.00  0.00    +0.041 C 
ATOM     21  C   UNL     1      31.809 -11.745 -20.843  0.00  0.00    +0.139 C 
ATOM     22  C   UNL     1      32.322 -12.842 -21.532  0.00  0.00    +0.040 C 
BRANCH  19  23
ATOM     23  C   UNL     1      33.349 -13.838 -23.523  0.00  0.00    +0.003 C 
ATOM     24  C   UNL     1      32.873 -14.162 -24.792  0.00  0.00    +0.000 C 
ATOM     25  C   UNL     1      34.332 -14.622 -22.923  0.00  0.00    +0.000 C 
ATOM     26  C   UNL     1      33.382 -15.274 -25.465  0.00  0.00    +0.000 C 
ATOM     27  C   UNL     1      34.841 -15.734 -23.594  0.00  0.00    +0.000 C 
ATOM     28  C   UNL     1      34.366 -16.060 -24.865  0.00  0.00    +0.000 C 
ENDBRANCH  19  23
BRANCH  18  29
ATOM     29  O   UNL     1      33.290 -11.271 -24.697  0.00  0.00    -0.505 OA
ATOM     30  H   UNL     1      32.700 -11.132 -25.412  0.00  0.00    +0.292 HD
ENDBRANCH  18  29
BRANCH  21  31
ATOM     31  O   UNL     1      31.323 -11.900 -19.581  0.00  0.00    -0.471 OA
ATOM     32  C   UNL     1      31.276 -10.738 -18.755  0.00  0.00    +0.252 C 
ENDBRANCH  21  31
ENDBRANCH   2  17
TORSDOF 5
ENDMDL
MODEL 9
REMARK VINA RESULT:      -9.8      1.303      2.154
REMARK  Name = 447492
REMARK  5 active torsions:
REMARK  status: ('A' for Active; 'I' for Inactive)
REMARK    1  A    between atoms: C_2  and  C_17
REMARK    2  A    between atoms: C_8  and  C_13
REMARK    3  A    between atoms: C_18  and  O_29
REMARK    4  A    between atoms: C_19  and  C_23
REMARK    5  A    between atoms: C_21  and  O_31
REMARK                            x       y       z     vdW  Elec       q    Type
REMARK                         _______ _______ _______ _____ _____    ______ ____
ROOT
ATOM      1  N   UNL     1      32.625 -17.274 -21.403  0.00  0.00    -0.312 N 
ATOM      2  C   UNL     1      33.615 -16.444 -21.856  0.00  0.00    +0.051 C 
ATOM      3  C   UNL     1      34.549 -18.365 -21.119  0.00  0.00    +0.015 C 
ATOM      4  C   UNL     1      33.167 -18.454 -20.946  0.00  0.00    +0.048 C 
ATOM      5  C   UNL     1      34.818 -17.091 -21.693  0.00  0.00    +0.016 C 
ATOM      6  C   UNL     1      35.353 -19.455 -20.727  0.00  0.00    +0.004 C 
ATOM      7  C   UNL     1      32.544 -19.582 -20.399  0.00  0.00    +0.015 C 
ATOM      8  C   UNL     1      34.745 -20.589 -20.178  0.00  0.00    +0.031 C 
ATOM      9  C   UNL     1      33.361 -20.651 -20.018  0.00  0.00    +0.004 C 
ATOM     10  H   UNL     1      31.664 -17.057 -21.402  0.00  0.00    +0.152 HD
ENDROOT
BRANCH   8  13
ATOM     11  N   UNL     1      36.958 -21.667 -19.849  0.00  0.00    -0.343 N 
ATOM     12  N   UNL     1      34.995 -22.821 -19.323  0.00  0.00    -0.285 NA
ATOM     13  C   UNL     1      35.567 -21.718 -19.771  0.00  0.00    +0.117 C 
ATOM     14  H   UNL     1      37.495 -22.443 -19.568  0.00  0.00    +0.144 HD
ATOM     15  H   UNL     1      37.402 -20.855 -20.183  0.00  0.00    +0.144 HD
ATOM     16  H   UNL     1      35.549 -23.587 -19.047  0.00  0.00    +0.188 HD
ENDBRANCH   8  13
BRANCH   2  17
ATOM     17  C   UNL     1      33.330 -15.134 -22.392  0.00  0.00    +0.050 C 
ATOM     18  C   UNL     1      32.904 -14.094 -21.563  0.00  0.00    +0.135 C 
ATOM     19  C   UNL     1      32.636 -12.837 -22.103  0.00  0.00    +0.037 C 
ATOM     20  C   UNL     1      33.487 -14.912 -23.761  0.00  0.00    +0.041 C 
ATOM     21  C   UNL     1      33.219 -13.655 -24.300  0.00  0.00    +0.139 C 
ATOM     22  C   UNL     1      32.793 -12.617 -23.472  0.00  0.00    +0.040 C 
BRANCH  19  23
ATOM     23  C   UNL     1      32.192 -11.743 -21.262  0.00  0.00    +0.003 C 
ATOM     24  C   UNL     1      31.781 -11.995 -19.954  0.00  0.00    +0.000 C 
ATOM     25  C   UNL     1      32.178 -10.443 -21.762  0.00  0.00    +0.000 C 
ATOM     26  C   UNL     1      31.354 -10.943 -19.143  0.00  0.00    +0.000 C 
ATOM     27  C   UNL     1      31.751  -9.390 -20.952  0.00  0.00    +0.000 C 
ATOM     28  C   UNL     1      31.339  -9.640 -19.642  0.00  0.00    +0.000 C 
ENDBRANCH  19  23
BRANCH  18  29
ATOM     29  O   UNL     1      32.751 -14.309 -20.223  0.00  0.00    -0.505 OA
ATOM     30  H   UNL     1      32.899 -13.609 -19.616  0.00  0.00    +0.292 HD
ENDBRANCH  18  29
BRANCH  21  31
ATOM     31  O   UNL     1      33.371 -13.441 -25.635  0.00  0.00    -0.471 OA
ATOM     32  C   UNL     1      32.975 -14.495 -26.511  0.00  0.00    +0.252 C 
ENDBRANCH  21  31
ENDBRANCH   2  17
TORSDOF 5
ENDMDL
