MODEL 1
REMARK VINA RESULT:     -11.2      0.000      0.000
REMARK  Name = 3559
REMARK  7 active torsions:
REMARK  status: ('A' for Active; 'I' for Inactive)
REMARK    1  A    between atoms: N_1  and  C_17
REMARK    2  A    between atoms: C_2  and  C_9
REMARK    3  A    between atoms: C_2  and  O_15
REMARK    4  A    between atoms: C_17  and  C_18
REMARK    5  A    between atoms: C_18  and  C_19
REMARK    6  A    between atoms: C_19  and  C_21
REMARK    7  A    between atoms: C_21  and  C_23
REMARK                            x       y       z     vdW  Elec       q    Type
REMARK                         _______ _______ _______ _____ _____    ______ ____
ROOT
ATOM      1  N   UNL     1      34.272 -16.621 -23.576  0.00  0.00    +0.387 N 
ATOM      2  C   UNL     1      35.107 -18.777 -21.711  0.00  0.00    +0.103 C 
ATOM      3  C   UNL     1      34.730 -19.017 -23.190  0.00  0.00    +0.008 C 
ATOM      4  C   UNL     1      34.458 -17.454 -21.245  0.00  0.00    +0.008 C 
ATOM      5  C   UNL     1      34.988 -17.796 -24.081  0.00  0.00    -0.075 C 
ATOM      6  C   UNL     1      34.700 -16.288 -22.213  0.00  0.00    -0.075 C 
ATOM      7  H   UNL     1      33.278 -16.846 -23.547  0.00  0.00    -0.080 HD
ENDROOT
BRANCH   2   9
ATOM      8 CL   UNL     1      33.663 -23.282 -17.957  0.00  0.00    -0.082 Cl
ATOM      9  C   UNL     1      34.741 -19.917 -20.759  0.00  0.00    +0.002 C 
ATOM     10  C   UNL     1      35.746 -20.701 -20.194  0.00  0.00    -0.001 C 
ATOM     11  C   UNL     1      33.404 -20.172 -20.459  0.00  0.00    -0.001 C 
ATOM     12  C   UNL     1      35.412 -21.742 -19.326  0.00  0.00    +0.011 C 
ATOM     13  C   UNL     1      33.071 -21.212 -19.592  0.00  0.00    +0.011 C 
ATOM     14  C   UNL     1      34.075 -21.996 -19.026  0.00  0.00    +0.058 C 
ENDBRANCH   2   9
BRANCH   2  15
ATOM     15  O   UNL     1      36.536 -18.662 -21.637  0.00  0.00    -0.383 OA
ATOM     16  H   UNL     1      36.879 -18.344 -22.487  0.00  0.00    +0.211 HD
ENDBRANCH   2  15
BRANCH   1  17
ATOM     17  C   UNL     1      34.466 -15.478 -24.468  0.00  0.00    -0.077 C 
BRANCH  17  18
ATOM     18  C   UNL     1      33.497 -15.559 -25.649  0.00  0.00    -0.015 C 
BRANCH  18  19
ATOM     19  C   UNL     1      32.756 -14.240 -25.884  0.00  0.00    +0.067 C 
BRANCH  19  21
ATOM     20  O   UNL     1      33.884 -13.311 -27.806  0.00  0.00    -0.291 OA
ATOM     21  C   UNL     1      33.593 -13.201 -26.618  0.00  0.00    +0.173 C 
BRANCH  21  23
ATOM     22  F   UNL     1      35.318  -8.694 -23.810  0.00  0.00    -0.204 F 
ATOM     23  C   UNL     1      34.052 -11.996 -25.868  0.00  0.00    +0.035 C 
ATOM     24  C   UNL     1      33.482 -11.722 -24.646  0.00  0.00    +0.005 C 
ATOM     25  C   UNL     1      35.031 -11.204 -26.427  0.00  0.00    +0.005 C 
ATOM     26  C   UNL     1      33.914 -10.596 -23.944  0.00  0.00    +0.030 C 
ATOM     27  C   UNL     1      35.463 -10.078 -25.725  0.00  0.00    +0.030 C 
ATOM     28  C   UNL     1      34.904  -9.774 -24.483  0.00  0.00    +0.140 C 
ENDBRANCH  21  23
ENDBRANCH  19  21
ENDBRANCH  18  19
ENDBRANCH  17  18
ENDBRANCH   1  17
TORSDOF 7
ENDMDL
MODEL 2
REMARK VINA RESULT:     -11.2      1.255      1.914
REMARK  Name = 3559
REMARK  7 active torsions:
REMARK  status: ('A' for Active; 'I' for Inactive)
REMARK    1  A    between atoms: N_1  and  C_17
REMARK    2  A    between atoms: C_2  and  C_9
REMARK    3  A    between atoms: C_2  and  O_15
REMARK    4  A    between atoms: C_17  and  C_18
REMARK    5  A    between atoms: C_18  and  C_19
REMARK    6  A    between atoms: C_19  and  C_21
REMARK    7  A    between atoms: C_21  and  C_23
REMARK                            x       y       z     vdW  Elec       q    Type
REMARK                         _______ _______ _______ _____ _____    ______ ____
ROOT
ATOM      1  N   UNL     1      34.153 -16.484 -23.674  0.00  0.00    +0.387 N 
ATOM      2  C   UNL     1      35.054 -18.643 -21.844  0.00  0.00    +0.103 C 
ATOM      3  C   UNL     1      34.634 -18.878 -23.313  0.00  0.00    +0.008 C 
ATOM      4  C   UNL     1      34.414 -17.325 -21.354  0.00  0.00    +0.008 C 
ATOM      5  C   UNL     1      34.860 -17.653 -24.206  0.00  0.00    -0.075 C 
ATOM      6  C   UNL     1      34.620 -16.154 -22.323  0.00  0.00    -0.075 C 
ATOM      7  H   UNL     1      33.162 -16.713 -23.617  0.00  0.00    -0.080 HD
ENDROOT
BRANCH   2   9
ATOM      8 CL   UNL     1      33.746 -23.170 -18.069  0.00  0.00    -0.082 Cl
ATOM      9  C   UNL     1      34.723 -19.789 -20.887  0.00  0.00    +0.002 C 
ATOM     10  C   UNL     1      35.750 -20.550 -20.331  0.00  0.00    -0.001 C 
ATOM     11  C   UNL     1      33.395 -20.071 -20.573  0.00  0.00    -0.001 C 
ATOM     12  C   UNL     1      35.447 -21.596 -19.458  0.00  0.00    +0.011 C 
ATOM     13  C   UNL     1      33.092 -21.116 -19.700  0.00  0.00    +0.011 C 
ATOM     14  C   UNL     1      34.119 -21.878 -19.144  0.00  0.00    +0.058 C 
ENDBRANCH   2   9
BRANCH   2  15
ATOM     15  O   UNL     1      36.484 -18.521 -21.813  0.00  0.00    -0.383 OA
ATOM     16  H   UNL     1      36.863 -18.953 -22.595  0.00  0.00    +0.211 HD
ENDBRANCH   2  15
BRANCH   1  17
ATOM     17  C   UNL     1      34.316 -15.336 -24.568  0.00  0.00    -0.077 C 
BRANCH  17  18
ATOM     18  C   UNL     1      33.245 -14.283 -24.274  0.00  0.00    -0.015 C 
BRANCH  18  19
ATOM     19  C   UNL     1      33.833 -13.018 -23.641  0.00  0.00    +0.067 C 
BRANCH  19  21
ATOM     20  O   UNL     1      33.946 -11.956 -25.806  0.00  0.00    -0.291 OA
ATOM     21  C   UNL     1      33.859 -11.826 -24.587  0.00  0.00    +0.173 C 
BRANCH  21  23
ATOM     22  F   UNL     1      33.452  -6.689 -22.438  0.00  0.00    -0.204 F 
ATOM     23  C   UNL     1      33.752 -10.455 -24.012  0.00  0.00    +0.035 C 
ATOM     24  C   UNL     1      34.742  -9.541 -24.293  0.00  0.00    +0.005 C 
ATOM     25  C   UNL     1      32.664 -10.153 -23.222  0.00  0.00    +0.005 C 
ATOM     26  C   UNL     1      34.640  -8.257 -23.757  0.00  0.00    +0.030 C 
ATOM     27  C   UNL     1      32.562  -8.870 -22.685  0.00  0.00    +0.030 C 
ATOM     28  C   UNL     1      33.550  -7.921 -22.953  0.00  0.00    +0.140 C 
ENDBRANCH  21  23
ENDBRANCH  19  21
ENDBRANCH  18  19
ENDBRANCH  17  18
ENDBRANCH   1  17
TORSDOF 7
ENDMDL
MODEL 3
REMARK VINA RESULT:     -11.2      1.234      1.912
REMARK  Name = 3559
REMARK  7 active torsions:
REMARK  status: ('A' for Active; 'I' for Inactive)
REMARK    1  A    between atoms: N_1  and  C_17
REMARK    2  A    between atoms: C_2  and  C_9
REMARK    3  A    between atoms: C_2  and  O_15
REMARK    4  A    between atoms: C_17  and  C_18
REMARK    5  A    between atoms: C_18  and  C_19
REMARK    6  A    between atoms: C_19  and  C_21
REMARK    7  A    between atoms: C_21  and  C_23
REMARK                            x       y       z     vdW  Elec       q    Type
REMARK                         _______ _______ _______ _____ _____    ______ ____
ROOT
ATOM      1  N   UNL     1      34.256 -16.481 -23.590  0.00  0.00    +0.387 N 
ATOM      2  C   UNL     1      35.130 -18.695 -21.812  0.00  0.00    +0.103 C 
ATOM      3  C   UNL     1      34.651 -18.897 -23.268  0.00  0.00    +0.008 C 
ATOM      4  C   UNL     1      34.560 -17.357 -21.287  0.00  0.00    +0.008 C 
ATOM      5  C   UNL     1      34.896 -17.672 -24.156  0.00  0.00    -0.075 C 
ATOM      6  C   UNL     1      34.781 -16.185 -22.252  0.00  0.00    -0.075 C 
ATOM      7  H   UNL     1      33.258 -16.672 -23.501  0.00  0.00    -0.080 HD
ENDROOT
BRANCH   2   9
ATOM      8 CL   UNL     1      33.768 -23.198 -18.027  0.00  0.00    -0.082 Cl
ATOM      9  C   UNL     1      34.785 -19.836 -20.855  0.00  0.00    +0.002 C 
ATOM     10  C   UNL     1      33.453 -20.102 -20.540  0.00  0.00    -0.001 C 
ATOM     11  C   UNL     1      35.803 -20.609 -20.297  0.00  0.00    -0.001 C 
ATOM     12  C   UNL     1      33.139 -21.143 -19.665  0.00  0.00    +0.011 C 
ATOM     13  C   UNL     1      35.488 -21.649 -19.424  0.00  0.00    +0.011 C 
ATOM     14  C   UNL     1      34.156 -21.916 -19.108  0.00  0.00    +0.058 C 
ENDBRANCH   2   9
BRANCH   2  15
ATOM     15  O   UNL     1      36.564 -18.630 -21.828  0.00  0.00    -0.383 OA
ATOM     16  H   UNL     1      36.894 -18.987 -22.668  0.00  0.00    +0.211 HD
ENDBRANCH   2  15
BRANCH   1  17
ATOM     17  C   UNL     1      34.434 -15.331 -24.477  0.00  0.00    -0.077 C 
BRANCH  17  18
ATOM     18  C   UNL     1      33.313 -14.314 -24.255  0.00  0.00    -0.015 C 
BRANCH  18  19
ATOM     19  C   UNL     1      33.824 -13.017 -23.620  0.00  0.00    +0.067 C 
BRANCH  19  21
ATOM     20  O   UNL     1      33.926 -11.995 -25.805  0.00  0.00    -0.291 OA
ATOM     21  C   UNL     1      33.851 -11.842 -24.588  0.00  0.00    +0.173 C 
BRANCH  21  23
ATOM     22  F   UNL     1      33.516  -6.668 -22.515  0.00  0.00    -0.204 F 
ATOM     23  C   UNL     1      33.761 -10.460 -24.036  0.00  0.00    +0.035 C 
ATOM     24  C   UNL     1      32.673 -10.129 -23.260  0.00  0.00    +0.005 C 
ATOM     25  C   UNL     1      34.771  -9.567 -24.320  0.00  0.00    +0.005 C 
ATOM     26  C   UNL     1      32.589  -8.836 -22.742  0.00  0.00    +0.030 C 
ATOM     27  C   UNL     1      34.687  -8.275 -23.802  0.00  0.00    +0.030 C 
ATOM     28  C   UNL     1      33.596  -7.909 -23.013  0.00  0.00    +0.140 C 
ENDBRANCH  21  23
ENDBRANCH  19  21
ENDBRANCH  18  19
ENDBRANCH  17  18
ENDBRANCH   1  17
TORSDOF 7
ENDMDL
MODEL 4
REMARK VINA RESULT:     -11.2      2.636      3.130
REMARK  Name = 3559
REMARK  7 active torsions:
REMARK  status: ('A' for Active; 'I' for Inactive)
REMARK    1  A    between atoms: N_1  and  C_17
REMARK    2  A    between atoms: C_2  and  C_9
REMARK    3  A    between atoms: C_2  and  O_15
REMARK    4  A    between atoms: C_17  and  C_18
REMARK    5  A    between atoms: C_18  and  C_19
REMARK    6  A    between atoms: C_19  and  C_21
REMARK    7  A    between atoms: C_21  and  C_23
REMARK                            x       y       z     vdW  Elec       q    Type
REMARK                         _______ _______ _______ _____ _____    ______ ____
ROOT
ATOM      1  N   UNL     1      34.391 -16.525 -23.323  0.00  0.00    +0.387 N 
ATOM      2  C   UNL     1      35.165 -18.811 -21.592  0.00  0.00    +0.103 C 
ATOM      3  C   UNL     1      34.708 -18.959 -23.061  0.00  0.00    +0.008 C 
ATOM      4  C   UNL     1      34.625 -17.472 -21.041  0.00  0.00    +0.008 C 
ATOM      5  C   UNL     1      35.006 -17.719 -23.911  0.00  0.00    -0.075 C 
ATOM      6  C   UNL     1      34.899 -16.281 -21.969  0.00  0.00    -0.075 C 
ATOM      7  H   UNL     1      33.387 -16.687 -23.257  0.00  0.00    -0.080 HD
ENDROOT
BRANCH   2   9
ATOM      8 CL   UNL     1      33.597 -23.380 -17.968  0.00  0.00    -0.082 Cl
ATOM      9  C   UNL     1      34.768 -19.967 -20.673  0.00  0.00    +0.002 C 
ATOM     10  C   UNL     1      35.752 -20.779 -20.111  0.00  0.00    -0.001 C 
ATOM     11  C   UNL     1      33.422 -20.209 -20.400  0.00  0.00    -0.001 C 
ATOM     12  C   UNL     1      35.390 -21.834 -19.273  0.00  0.00    +0.011 C 
ATOM     13  C   UNL     1      33.060 -21.264 -19.563  0.00  0.00    +0.011 C 
ATOM     14  C   UNL     1      34.044 -22.076 -19.000  0.00  0.00    +0.058 C 
ENDBRANCH   2   9
BRANCH   2  15
ATOM     15  O   UNL     1      36.600 -18.790 -21.580  0.00  0.00    -0.383 OA
ATOM     16  H   UNL     1      36.937 -19.343 -22.303  0.00  0.00    +0.211 HD
ENDBRANCH   2  15
BRANCH   1  17
ATOM     17  C   UNL     1      34.620 -15.357 -24.175  0.00  0.00    -0.077 C 
BRANCH  17  18
ATOM     18  C   UNL     1      33.287 -14.706 -24.549  0.00  0.00    -0.015 C 
BRANCH  18  19
ATOM     19  C   UNL     1      33.066 -13.377 -23.821  0.00  0.00    +0.067 C 
BRANCH  19  21
ATOM     20  O   UNL     1      32.049 -14.632 -22.026  0.00  0.00    -0.291 OA
ATOM     21  C   UNL     1      32.369 -13.534 -22.477  0.00  0.00    +0.173 C 
BRANCH  21  23
ATOM     22  F   UNL     1      31.320  -8.954 -19.460  0.00  0.00    -0.204 F 
ATOM     23  C   UNL     1      32.087 -12.311 -21.671  0.00  0.00    +0.035 C 
ATOM     24  C   UNL     1      31.902 -12.443 -20.314  0.00  0.00    +0.005 C 
ATOM     25  C   UNL     1      32.024 -11.095 -22.316  0.00  0.00    +0.005 C 
ATOM     26  C   UNL     1      31.640 -11.298 -19.560  0.00  0.00    +0.030 C 
ATOM     27  C   UNL     1      31.763  -9.951 -21.562  0.00  0.00    +0.030 C 
ATOM     28  C   UNL     1      31.571 -10.052 -20.184  0.00  0.00    +0.140 C 
ENDBRANCH  21  23
ENDBRANCH  19  21
ENDBRANCH  18  19
ENDBRANCH  17  18
ENDBRANCH   1  17
TORSDOF 7
ENDMDL
MODEL 5
REMARK VINA RESULT:     -11.1      4.708      9.793
REMARK  Name = 3559
REMARK  7 active torsions:
REMARK  status: ('A' for Active; 'I' for Inactive)
REMARK    1  A    between atoms: N_1  and  C_17
REMARK    2  A    between atoms: C_2  and  C_9
REMARK    3  A    between atoms: C_2  and  O_15
REMARK    4  A    between atoms: C_17  and  C_18
REMARK    5  A    between atoms: C_18  and  C_19
REMARK    6  A    between atoms: C_19  and  C_21
REMARK    7  A    between atoms: C_21  and  C_23
REMARK                            x       y       z     vdW  Elec       q    Type
REMARK                         _______ _______ _______ _____ _____    ______ ____
ROOT
ATOM      1  N   UNL     1      34.282 -15.896 -24.753  0.00  0.00    +0.387 N 
ATOM      2  C   UNL     1      33.289 -13.187 -24.048  0.00  0.00    +0.103 C 
ATOM      3  C   UNL     1      33.336 -13.738 -25.491  0.00  0.00    +0.008 C 
ATOM      4  C   UNL     1      34.307 -13.970 -23.188  0.00  0.00    +0.008 C 
ATOM      5  C   UNL     1      33.228 -15.266 -25.554  0.00  0.00    -0.075 C 
ATOM      6  C   UNL     1      34.189 -15.492 -23.346  0.00  0.00    -0.075 C 
ATOM      7  H   UNL     1      35.182 -15.581 -25.112  0.00  0.00    -0.080 HD
ENDROOT
BRANCH   2   9
ATOM      8 CL   UNL     1      34.241  -7.245 -23.553  0.00  0.00    -0.082 Cl
ATOM      9  C   UNL     1      33.529 -11.682 -23.924  0.00  0.00    +0.002 C 
ATOM     10  C   UNL     1      34.559 -11.080 -24.645  0.00  0.00    -0.001 C 
ATOM     11  C   UNL     1      32.719 -10.914 -23.089  0.00  0.00    -0.001 C 
ATOM     12  C   UNL     1      34.779  -9.706 -24.531  0.00  0.00    +0.011 C 
ATOM     13  C   UNL     1      32.939  -9.542 -22.975  0.00  0.00    +0.011 C 
ATOM     14  C   UNL     1      33.968  -8.938 -23.696  0.00  0.00    +0.058 C 
ENDBRANCH   2   9
BRANCH   2  15
ATOM     15  O   UNL     1      31.965 -13.405 -23.539  0.00  0.00    -0.383 OA
ATOM     16  H   UNL     1      31.916 -14.284 -23.130  0.00  0.00    +0.211 HD
ENDBRANCH   2  15
BRANCH   1  17
ATOM     17  C   UNL     1      34.216 -17.353 -24.874  0.00  0.00    -0.077 C 
BRANCH  17  18
ATOM     18  C   UNL     1      35.294 -18.004 -24.005  0.00  0.00    -0.015 C 
BRANCH  18  19
ATOM     19  C   UNL     1      34.733 -19.123 -23.123  0.00  0.00    +0.067 C 
BRANCH  19  21
ATOM     20  O   UNL     1      35.549 -17.914 -21.200  0.00  0.00    -0.291 OA
ATOM     21  C   UNL     1      35.055 -18.947 -21.646  0.00  0.00    +0.173 C 
BRANCH  21  23
ATOM     22  F   UNL     1      33.863 -23.115 -18.128  0.00  0.00    -0.204 F 
ATOM     23  C   UNL     1      34.737 -20.061 -20.708  0.00  0.00    +0.035 C 
ATOM     24  C   UNL     1      35.771 -20.816 -20.204  0.00  0.00    +0.005 C 
ATOM     25  C   UNL     1      33.419 -20.293 -20.379  0.00  0.00    +0.005 C 
ATOM     26  C   UNL     1      35.474 -21.858 -19.324  0.00  0.00    +0.030 C 
ATOM     27  C   UNL     1      33.121 -21.333 -19.499  0.00  0.00    +0.030 C 
ATOM     28  C   UNL     1      34.149 -22.116 -18.972  0.00  0.00    +0.140 C 
ENDBRANCH  21  23
ENDBRANCH  19  21
ENDBRANCH  18  19
ENDBRANCH  17  18
ENDBRANCH   1  17
TORSDOF 7
ENDMDL
MODEL 6
REMARK VINA RESULT:     -10.9      3.255      5.260
REMARK  Name = 3559
REMARK  7 active torsions:
REMARK  status: ('A' for Active; 'I' for Inactive)
REMARK    1  A    between atoms: N_1  and  C_17
REMARK    2  A    between atoms: C_2  and  C_9
REMARK    3  A    between atoms: C_2  and  O_15
REMARK    4  A    between atoms: C_17  and  C_18
REMARK    5  A    between atoms: C_18  and  C_19
REMARK    6  A    between atoms: C_19  and  C_21
REMARK    7  A    between atoms: C_21  and  C_23
REMARK                            x       y       z     vdW  Elec       q    Type
REMARK                         _______ _______ _______ _____ _____    ______ ____
ROOT
ATOM      1  N   UNL     1      35.127 -20.170 -20.253  0.00  0.00    +0.387 N 
ATOM      2  C   UNL     1      33.977 -22.410 -18.678  0.00  0.00    +0.103 C 
ATOM      3  C   UNL     1      33.134 -21.282 -19.314  0.00  0.00    +0.008 C 
ATOM      4  C   UNL     1      35.426 -21.902 -18.501  0.00  0.00    +0.008 C 
ATOM      5  C   UNL     1      33.785 -20.674 -20.561  0.00  0.00    -0.075 C 
ATOM      6  C   UNL     1      35.997 -21.246 -19.765  0.00  0.00    -0.075 C 
ATOM      7  H   UNL     1      35.041 -19.475 -19.513  0.00  0.00    -0.080 HD
ENDROOT
BRANCH   2   9
ATOM      8 CL   UNL     1      31.836 -24.558 -13.457  0.00  0.00    -0.082 Cl
ATOM      9  C   UNL     1      33.435 -22.956 -17.357  0.00  0.00    +0.002 C 
ATOM     10  C   UNL     1      32.059 -23.006 -17.137  0.00  0.00    -0.001 C 
ATOM     11  C   UNL     1      34.317 -23.400 -16.373  0.00  0.00    -0.001 C 
ATOM     12  C   UNL     1      31.565 -23.503 -15.930  0.00  0.00    +0.011 C 
ATOM     13  C   UNL     1      33.822 -23.896 -15.167  0.00  0.00    +0.011 C 
ATOM     14  C   UNL     1      32.446 -23.947 -14.946  0.00  0.00    +0.058 C 
ENDBRANCH   2   9
BRANCH   2  15
ATOM     15  O   UNL     1      33.969 -23.525 -19.583  0.00  0.00    -0.383 OA
ATOM     16  H   UNL     1      33.065 -23.869 -19.664  0.00  0.00    +0.211 HD
ENDBRANCH   2  15
BRANCH   1  17
ATOM     17  C   UNL     1      35.717 -19.528 -21.429  0.00  0.00    -0.077 C 
BRANCH  17  18
ATOM     18  C   UNL     1      34.657 -18.712 -22.173  0.00  0.00    -0.015 C 
BRANCH  18  19
ATOM     19  C   UNL     1      35.122 -17.282 -22.461  0.00  0.00    +0.067 C 
BRANCH  19  21
ATOM     20  O   UNL     1      35.161 -16.437 -20.200  0.00  0.00    -0.291 OA
ATOM     21  C   UNL     1      34.766 -16.298 -21.355  0.00  0.00    +0.173 C 
BRANCH  21  23
ATOM     22  F   UNL     1      31.640 -11.852 -22.633  0.00  0.00    -0.204 F 
ATOM     23  C   UNL     1      33.930 -15.112 -21.697  0.00  0.00    +0.035 C 
ATOM     24  C   UNL     1      33.093 -14.595 -20.734  0.00  0.00    +0.005 C 
ATOM     25  C   UNL     1      34.028 -14.576 -22.963  0.00  0.00    +0.005 C 
ATOM     26  C   UNL     1      32.312 -13.484 -21.053  0.00  0.00    +0.030 C 
ATOM     27  C   UNL     1      33.247 -13.465 -23.281  0.00  0.00    +0.030 C 
ATOM     28  C   UNL     1      32.389 -12.919 -22.327  0.00  0.00    +0.140 C 
ENDBRANCH  21  23
ENDBRANCH  19  21
ENDBRANCH  18  19
ENDBRANCH  17  18
ENDBRANCH   1  17
TORSDOF 7
ENDMDL
MODEL 7
REMARK VINA RESULT:     -10.7      2.846      4.834
REMARK  Name = 3559
REMARK  7 active torsions:
REMARK  status: ('A' for Active; 'I' for Inactive)
REMARK    1  A    between atoms: N_1  and  C_17
REMARK    2  A    between atoms: C_2  and  C_9
REMARK    3  A    between atoms: C_2  and  O_15
REMARK    4  A    between atoms: C_17  and  C_18
REMARK    5  A    between atoms: C_18  and  C_19
REMARK    6  A    between atoms: C_19  and  C_21
REMARK    7  A    between atoms: C_21  and  C_23
REMARK                            x       y       z     vdW  Elec       q    Type
REMARK                         _______ _______ _______ _____ _____    ______ ____
ROOT
ATOM      1  N   UNL     1      35.327 -20.066 -20.228  0.00  0.00    +0.387 N 
ATOM      2  C   UNL     1      34.081 -22.303 -18.723  0.00  0.00    +0.103 C 
ATOM      3  C   UNL     1      33.280 -21.167 -19.398  0.00  0.00    +0.008 C 
ATOM      4  C   UNL     1      35.522 -21.804 -18.468  0.00  0.00    +0.008 C 
ATOM      5  C   UNL     1      34.000 -20.560 -20.608  0.00  0.00    -0.075 C 
ATOM      6  C   UNL     1      36.163 -21.149 -19.698  0.00  0.00    -0.075 C 
ATOM      7  H   UNL     1      35.207 -19.372 -19.491  0.00  0.00    -0.080 HD
ENDROOT
BRANCH   2   9
ATOM      8 CL   UNL     1      31.655 -24.461 -13.633  0.00  0.00    -0.082 Cl
ATOM      9  C   UNL     1      33.467 -22.848 -17.433  0.00  0.00    +0.002 C 
ATOM     10  C   UNL     1      34.291 -23.359 -16.431  0.00  0.00    -0.001 C 
ATOM     11  C   UNL     1      32.084 -22.835 -17.261  0.00  0.00    -0.001 C 
ATOM     12  C   UNL     1      33.730 -23.857 -15.255  0.00  0.00    +0.011 C 
ATOM     13  C   UNL     1      31.523 -23.333 -16.086  0.00  0.00    +0.011 C 
ATOM     14  C   UNL     1      32.347 -23.844 -15.083  0.00  0.00    +0.058 C 
ENDBRANCH   2   9
BRANCH   2  15
ATOM     15  O   UNL     1      34.114 -23.415 -19.630  0.00  0.00    -0.383 OA
ATOM     16  H   UNL     1      34.991 -23.829 -19.602  0.00  0.00    +0.211 HD
ENDBRANCH   2  15
BRANCH   1  17
ATOM     17  C   UNL     1      35.982 -19.425 -21.370  0.00  0.00    -0.077 C 
BRANCH  17  18
ATOM     18  C   UNL     1      34.944 -19.045 -22.428  0.00  0.00    -0.015 C 
BRANCH  18  19
ATOM     19  C   UNL     1      35.562 -18.267 -23.594  0.00  0.00    +0.067 C 
BRANCH  19  21
ATOM     20  O   UNL     1      33.934 -18.253 -25.376  0.00  0.00    -0.291 OA
ATOM     21  C   UNL     1      34.527 -17.622 -24.505  0.00  0.00    +0.173 C 
BRANCH  21  23
ATOM     22  F   UNL     1      33.329 -12.217 -23.783  0.00  0.00    -0.204 F 
ATOM     23  C   UNL     1      34.209 -16.178 -24.313  0.00  0.00    +0.035 C 
ATOM     24  C   UNL     1      33.509 -15.520 -25.299  0.00  0.00    +0.005 C 
ATOM     25  C   UNL     1      34.625 -15.557 -23.156  0.00  0.00    +0.005 C 
ATOM     26  C   UNL     1      33.209 -14.169 -25.118  0.00  0.00    +0.030 C 
ATOM     27  C   UNL     1      34.325 -14.207 -22.975  0.00  0.00    +0.030 C 
ATOM     28  C   UNL     1      33.616 -13.513 -23.957  0.00  0.00    +0.140 C 
ENDBRANCH  21  23
ENDBRANCH  19  21
ENDBRANCH  18  19
ENDBRANCH  17  18
ENDBRANCH   1  17
TORSDOF 7
ENDMDL
MODEL 8
REMARK VINA RESULT:     -10.4      5.628     11.145
REMARK  Name = 3559
REMARK  7 active torsions:
REMARK  status: ('A' for Active; 'I' for Inactive)
REMARK    1  A    between atoms: N_1  and  C_17
REMARK    2  A    between atoms: C_2  and  C_9
REMARK    3  A    between atoms: C_2  and  O_15
REMARK    4  A    between atoms: C_17  and  C_18
REMARK    5  A    between atoms: C_18  and  C_19
REMARK    6  A    between atoms: C_19  and  C_21
REMARK    7  A    between atoms: C_21  and  C_23
REMARK                            x       y       z     vdW  Elec       q    Type
REMARK                         _______ _______ _______ _____ _____    ______ ____
ROOT
ATOM      1  N   UNL     1      35.388 -20.534 -19.672  0.00  0.00    +0.387 N 
ATOM      2  C   UNL     1      34.981 -18.567 -21.861  0.00  0.00    +0.103 C 
ATOM      3  C   UNL     1      36.321 -18.763 -21.117  0.00  0.00    +0.008 C 
ATOM      4  C   UNL     1      33.837 -19.085 -20.959  0.00  0.00    +0.008 C 
ATOM      5  C   UNL     1      36.499 -20.181 -20.561  0.00  0.00    -0.075 C 
ATOM      6  C   UNL     1      34.105 -20.482 -20.382  0.00  0.00    -0.075 C 
ATOM      7  H   UNL     1      35.357 -19.849 -18.918  0.00  0.00    -0.080 HD
ENDROOT
BRANCH   2   9
ATOM      8 CL   UNL     1      33.858 -12.913 -23.656  0.00  0.00    -0.082 Cl
ATOM      9  C   UNL     1      34.698 -17.135 -22.316  0.00  0.00    +0.002 C 
ATOM     10  C   UNL     1      34.549 -16.121 -21.370  0.00  0.00    -0.001 C 
ATOM     11  C   UNL     1      34.588 -16.845 -23.674  0.00  0.00    -0.001 C 
ATOM     12  C   UNL     1      34.290 -14.815 -21.785  0.00  0.00    +0.011 C 
ATOM     13  C   UNL     1      34.329 -15.539 -24.089  0.00  0.00    +0.011 C 
ATOM     14  C   UNL     1      34.180 -14.524 -23.144  0.00  0.00    +0.058 C 
ENDBRANCH   2   9
BRANCH   2  15
ATOM     15  O   UNL     1      35.030 -19.347 -23.065  0.00  0.00    -0.383 OA
ATOM     16  H   UNL     1      34.146 -19.695 -23.262  0.00  0.00    +0.211 HD
ENDBRANCH   2  15
BRANCH   1  17
ATOM     17  C   UNL     1      35.598 -21.860 -19.090  0.00  0.00    -0.077 C 
BRANCH  17  18
ATOM     18  C   UNL     1      34.296 -22.664 -19.125  0.00  0.00    -0.015 C 
BRANCH  18  19
ATOM     19  C   UNL     1      33.869 -23.138 -17.733  0.00  0.00    +0.067 C 
BRANCH  19  21
ATOM     20  O   UNL     1      31.734 -22.081 -18.126  0.00  0.00    -0.291 OA
ATOM     21  C   UNL     1      32.441 -22.750 -17.375  0.00  0.00    +0.173 C 
BRANCH  21  23
ATOM     22  F   UNL     1      30.328 -24.503 -12.514  0.00  0.00    -0.204 F 
ATOM     23  C   UNL     1      31.877 -23.220 -16.078  0.00  0.00    +0.035 C 
ATOM     24  C   UNL     1      32.745 -23.612 -15.084  0.00  0.00    +0.005 C 
ATOM     25  C   UNL     1      30.508 -23.242 -15.921  0.00  0.00    +0.005 C 
ATOM     26  C   UNL     1      32.217 -24.050 -13.869  0.00  0.00    +0.030 C 
ATOM     27  C   UNL     1      29.981 -23.679 -14.706  0.00  0.00    +0.030 C 
ATOM     28  C   UNL     1      30.835 -24.083 -13.680  0.00  0.00    +0.140 C 
ENDBRANCH  21  23
ENDBRANCH  19  21
ENDBRANCH  18  19
ENDBRANCH  17  18
ENDBRANCH   1  17
TORSDOF 7
ENDMDL
MODEL 9
REMARK VINA RESULT:     -10.4      7.219     12.090
REMARK  Name = 3559
REMARK  7 active torsions:
REMARK  status: ('A' for Active; 'I' for Inactive)
REMARK    1  A    between atoms: N_1  and  C_17
REMARK    2  A    between atoms: C_2  and  C_9
REMARK    3  A    between atoms: C_2  and  O_15
REMARK    4  A    between atoms: C_17  and  C_18
REMARK    5  A    between atoms: C_18  and  C_19
REMARK    6  A    between atoms: C_19  and  C_21
REMARK    7  A    between atoms: C_21  and  C_23
REMARK                            x       y       z     vdW  Elec       q    Type
REMARK                         _______ _______ _______ _____ _____    ______ ____
ROOT
ATOM      1  N   UNL     1      33.679 -23.342 -15.913  0.00  0.00    +0.387 N 
ATOM      2  C   UNL     1      34.147 -22.362 -18.678  0.00  0.00    +0.103 C 
ATOM      3  C   UNL     1      35.234 -22.393 -17.580  0.00  0.00    +0.008 C 
ATOM      4  C   UNL     1      32.759 -22.357 -17.997  0.00  0.00    +0.008 C 
ATOM      5  C   UNL     1      34.999 -23.489 -16.533  0.00  0.00    -0.075 C 
ATOM      6  C   UNL     1      32.611 -23.435 -16.915  0.00  0.00    -0.075 C 
ATOM      7  H   UNL     1      33.631 -22.416 -15.487  0.00  0.00    -0.080 HD
ENDROOT
BRANCH   2   9
ATOM      8 CL   UNL     1      34.602 -17.786 -22.591  0.00  0.00    -0.082 Cl
ATOM      9  C   UNL     1      34.262 -21.202 -19.667  0.00  0.00    +0.002 C 
ATOM     10  C   UNL     1      33.112 -20.568 -20.134  0.00  0.00    -0.001 C 
ATOM     11  C   UNL     1      35.518 -20.781 -20.103  0.00  0.00    -0.001 C 
ATOM     12  C   UNL     1      33.217 -19.511 -21.038  0.00  0.00    +0.011 C 
ATOM     13  C   UNL     1      35.623 -19.724 -21.007  0.00  0.00    +0.011 C 
ATOM     14  C   UNL     1      34.472 -19.089 -21.474  0.00  0.00    +0.058 C 
ENDBRANCH   2   9
BRANCH   2  15
ATOM     15  O   UNL     1      34.288 -23.553 -19.467  0.00  0.00    -0.383 OA
ATOM     16  H   UNL     1      34.430 -24.314 -18.882  0.00  0.00    +0.211 HD
ENDBRANCH   2  15
BRANCH   1  17
ATOM     17  C   UNL     1      33.489 -24.347 -14.866  0.00  0.00    -0.077 C 
BRANCH  17  18
ATOM     18  C   UNL     1      33.329 -23.668 -13.504  0.00  0.00    -0.015 C 
BRANCH  18  19
ATOM     19  C   UNL     1      31.962 -22.997 -13.347  0.00  0.00    +0.067 C 
BRANCH  19  21
ATOM     20  O   UNL     1      30.554 -24.876 -12.785  0.00  0.00    -0.291 OA
ATOM     21  C   UNL     1      30.794 -23.951 -13.558  0.00  0.00    +0.173 C 
BRANCH  21  23
ATOM     22  F   UNL     1      27.451 -23.146 -17.956  0.00  0.00    -0.204 F 
ATOM     23  C   UNL     1      29.900 -23.736 -14.731  0.00  0.00    +0.035 C 
ATOM     24  C   UNL     1      29.553 -22.448 -15.069  0.00  0.00    +0.005 C 
ATOM     25  C   UNL     1      29.457 -24.834 -15.435  0.00  0.00    +0.005 C 
ATOM     26  C   UNL     1      28.717 -22.246 -16.169  0.00  0.00    +0.030 C 
ATOM     27  C   UNL     1      28.622 -24.633 -16.534  0.00  0.00    +0.030 C 
ATOM     28  C   UNL     1      28.252 -23.339 -16.901  0.00  0.00    +0.140 C 
ENDBRANCH  21  23
ENDBRANCH  19  21
ENDBRANCH  18  19
ENDBRANCH  17  18
ENDBRANCH   1  17
TORSDOF 7
ENDMDL
