MODEL 1
REMARK VINA RESULT:     -10.0      0.000      0.000
REMARK  Name = 1881
REMARK  3 active torsions:
REMARK  status: ('A' for Active; 'I' for Inactive)
REMARK    1  A    between atoms: N_1  and  C_20
REMARK    2  A    between atoms: C_20  and  C_21
REMARK    3  A    between atoms: C_20  and  C_23
REMARK                            x       y       z     vdW  Elec       q    Type
REMARK                         _______ _______ _______ _____ _____    ______ ____
ROOT
ATOM      1  N   UNL     1      34.994 -18.084 -21.686  0.00  0.00    -0.288 N 
ATOM      2  N   UNL     1      33.612 -15.533 -26.362  0.00  0.00    -0.332 NA
ATOM      3  N   UNL     1      33.408 -13.486 -25.100  0.00  0.00    -0.317 NA
ATOM      4  N   UNL     1      33.809 -13.426 -22.806  0.00  0.00    -0.335 N 
ATOM      5  N   UNL     1      33.001 -13.522 -27.406  0.00  0.00    -0.283 N 
ATOM      6  C   UNL     1      34.669 -17.622 -22.942  0.00  0.00    +0.048 C 
ATOM      7  C   UNL     1      34.402 -16.257 -22.826  0.00  0.00    +0.007 C 
ATOM      8  C   UNL     1      34.942 -17.061 -20.779  0.00  0.00    +0.065 C 
ATOM      9  C   UNL     1      34.578 -15.918 -21.452  0.00  0.00    +0.014 C 
ATOM     10  C   UNL     1      34.040 -15.545 -24.005  0.00  0.00    +0.144 C 
ATOM     11  C   UNL     1      34.593 -18.299 -24.160  0.00  0.00    +0.017 C 
ATOM     12  C   UNL     1      33.954 -16.200 -25.247  0.00  0.00    +0.134 C 
ATOM     13  C   UNL     1      34.233 -17.562 -25.295  0.00  0.00    +0.031 C 
ATOM     14  C   UNL     1      33.753 -14.179 -23.998  0.00  0.00    +0.178 C 
ATOM     15  C   UNL     1      33.358 -14.213 -26.228  0.00  0.00    +0.197 C 
ATOM     16  H   UNL     1      33.603 -12.464 -22.822  0.00  0.00    +0.144 HD
ATOM     17  H   UNL     1      34.054 -13.863 -21.960  0.00  0.00    +0.144 HD
ATOM     18  H   UNL     1      32.948 -14.004 -28.263  0.00  0.00    +0.156 HD
ATOM     19  H   UNL     1      32.804 -12.558 -27.370  0.00  0.00    +0.156 HD
ENDROOT
BRANCH   1  20
ATOM     20  C   UNL     1      35.342 -19.449 -21.358  0.00  0.00    +0.077 C 
BRANCH  20  21
ATOM     21  C   UNL     1      36.747 -19.564 -20.725  0.00  0.00    +0.020 C 
ATOM     22  C   UNL     1      36.879 -20.736 -19.761  0.00  0.00    +0.002 C 
ENDBRANCH  20  21
BRANCH  20  23
ATOM     23  C   UNL     1      34.286 -20.126 -20.455  0.00  0.00    +0.020 C 
ATOM     24  C   UNL     1      32.860 -19.945 -20.961  0.00  0.00    +0.002 C 
ENDBRANCH  20  23
ENDBRANCH   1  20
TORSDOF 3
ENDMDL
MODEL 2
REMARK VINA RESULT:      -9.9      2.996      7.267
REMARK  Name = 1881
REMARK  3 active torsions:
REMARK  status: ('A' for Active; 'I' for Inactive)
REMARK    1  A    between atoms: N_1  and  C_20
REMARK    2  A    between atoms: C_20  and  C_21
REMARK    3  A    between atoms: C_20  and  C_23
REMARK                            x       y       z     vdW  Elec       q    Type
REMARK                         _______ _______ _______ _____ _____    ______ ____
ROOT
ATOM      1  N   UNL     1      35.060 -18.169 -22.090  0.00  0.00    -0.288 N 
ATOM      2  N   UNL     1      32.837 -22.020 -18.848  0.00  0.00    -0.332 NA
ATOM      3  N   UNL     1      35.071 -22.650 -18.187  0.00  0.00    -0.317 NA
ATOM      4  N   UNL     1      36.945 -21.561 -19.041  0.00  0.00    -0.335 N 
ATOM      5  N   UNL     1      33.202 -23.758 -17.315  0.00  0.00    -0.283 N 
ATOM      6  C   UNL     1      34.330 -19.067 -21.345  0.00  0.00    +0.048 C 
ATOM      7  C   UNL     1      35.237 -19.844 -20.624  0.00  0.00    +0.007 C 
ATOM      8  C   UNL     1      36.397 -18.348 -21.867  0.00  0.00    +0.065 C 
ATOM      9  C   UNL     1      36.541 -19.377 -20.965  0.00  0.00    +0.014 C 
ATOM     10  C   UNL     1      34.718 -20.856 -19.767  0.00  0.00    +0.144 C 
ATOM     11  C   UNL     1      32.949 -19.251 -21.254  0.00  0.00    +0.017 C 
ATOM     12  C   UNL     1      33.332 -21.066 -19.654  0.00  0.00    +0.134 C 
ATOM     13  C   UNL     1      32.480 -20.258 -20.400  0.00  0.00    +0.031 C 
ATOM     14  C   UNL     1      35.540 -21.686 -19.003  0.00  0.00    +0.178 C 
ATOM     15  C   UNL     1      33.733 -22.759 -18.159  0.00  0.00    +0.197 C 
ATOM     16  H   UNL     1      37.507 -22.156 -18.494  0.00  0.00    +0.144 HD
ATOM     17  H   UNL     1      37.362 -20.879 -19.614  0.00  0.00    +0.144 HD
ATOM     18  H   UNL     1      32.227 -23.885 -17.254  0.00  0.00    +0.156 HD
ATOM     19  H   UNL     1      33.806 -24.329 -16.787  0.00  0.00    +0.156 HD
ENDROOT
BRANCH   1  20
ATOM     20  C   UNL     1      34.507 -17.174 -22.984  0.00  0.00    +0.077 C 
BRANCH  20  21
ATOM     21  C   UNL     1      34.897 -15.735 -22.577  0.00  0.00    +0.020 C 
ATOM     22  C   UNL     1      34.437 -15.363 -21.173  0.00  0.00    +0.002 C 
ENDBRANCH  20  21
BRANCH  20  23
ATOM     23  C   UNL     1      34.878 -17.438 -24.460  0.00  0.00    +0.020 C 
ATOM     24  C   UNL     1      34.328 -18.756 -24.990  0.00  0.00    +0.002 C 
ENDBRANCH  20  23
ENDBRANCH   1  20
TORSDOF 3
ENDMDL
MODEL 3
REMARK VINA RESULT:      -9.1      2.021      6.518
REMARK  Name = 1881
REMARK  3 active torsions:
REMARK  status: ('A' for Active; 'I' for Inactive)
REMARK    1  A    between atoms: N_1  and  C_20
REMARK    2  A    between atoms: C_20  and  C_21
REMARK    3  A    between atoms: C_20  and  C_23
REMARK                            x       y       z     vdW  Elec       q    Type
REMARK                         _______ _______ _______ _____ _____    ______ ____
ROOT
ATOM      1  N   UNL     1      33.652 -13.785 -23.628  0.00  0.00    -0.288 N 
ATOM      2  N   UNL     1      35.281 -18.140 -20.686  0.00  0.00    -0.332 NA
ATOM      3  N   UNL     1      35.133 -19.464 -22.699  0.00  0.00    -0.317 NA
ATOM      4  N   UNL     1      34.473 -18.526 -24.726  0.00  0.00    -0.335 N 
ATOM      5  N   UNL     1      35.799 -20.429 -20.671  0.00  0.00    -0.283 N 
ATOM      6  C   UNL     1      34.064 -14.751 -22.739  0.00  0.00    +0.048 C 
ATOM      7  C   UNL     1      34.176 -15.948 -23.447  0.00  0.00    +0.007 C 
ATOM      8  C   UNL     1      33.497 -14.327 -24.875  0.00  0.00    +0.065 C 
ATOM      9  C   UNL     1      33.814 -15.663 -24.797  0.00  0.00    +0.014 C 
ATOM     10  C   UNL     1      34.595 -17.109 -22.736  0.00  0.00    +0.144 C 
ATOM     11  C   UNL     1      34.346 -14.659 -21.375  0.00  0.00    +0.017 C 
ATOM     12  C   UNL     1      34.886 -17.048 -21.361  0.00  0.00    +0.134 C 
ATOM     13  C   UNL     1      34.754 -15.824 -20.713  0.00  0.00    +0.031 C 
ATOM     14  C   UNL     1      34.739 -18.354 -23.351  0.00  0.00    +0.178 C 
ATOM     15  C   UNL     1      35.382 -19.288 -21.390  0.00  0.00    +0.197 C 
ATOM     16  H   UNL     1      34.581 -19.412 -25.140  0.00  0.00    +0.144 HD
ATOM     17  H   UNL     1      34.181 -17.759 -25.269  0.00  0.00    +0.144 HD
ATOM     18  H   UNL     1      35.996 -20.360 -19.709  0.00  0.00    +0.156 HD
ATOM     19  H   UNL     1      35.891 -21.294 -21.131  0.00  0.00    +0.156 HD
ENDROOT
BRANCH   1  20
ATOM     20  C   UNL     1      33.410 -12.395 -23.306  0.00  0.00    +0.077 C 
BRANCH  20  21
ATOM     21  C   UNL     1      33.793 -11.447 -24.466  0.00  0.00    +0.020 C 
ATOM     22  C   UNL     1      34.217 -10.062 -23.994  0.00  0.00    +0.002 C 
ENDBRANCH  20  21
BRANCH  20  23
ATOM     23  C   UNL     1      31.955 -12.138 -22.855  0.00  0.00    +0.020 C 
ATOM     24  C   UNL     1      31.793 -12.111 -21.340  0.00  0.00    +0.002 C 
ENDBRANCH  20  23
ENDBRANCH   1  20
TORSDOF 3
ENDMDL
MODEL 4
REMARK VINA RESULT:      -9.1      1.947      3.693
REMARK  Name = 1881
REMARK  3 active torsions:
REMARK  status: ('A' for Active; 'I' for Inactive)
REMARK    1  A    between atoms: N_1  and  C_20
REMARK    2  A    between atoms: C_20  and  C_21
REMARK    3  A    between atoms: C_20  and  C_23
REMARK                            x       y       z     vdW  Elec       q    Type
REMARK                         _______ _______ _______ _____ _____    ______ ____
ROOT
ATOM      1  N   UNL     1      34.706 -17.173 -21.918  0.00  0.00    -0.288 N 
ATOM      2  N   UNL     1      31.853 -12.533 -21.142  0.00  0.00    -0.332 NA
ATOM      3  N   UNL     1      32.694 -11.747 -23.263  0.00  0.00    -0.317 NA
ATOM      4  N   UNL     1      34.128 -13.046 -24.560  0.00  0.00    -0.335 N 
ATOM      5  N   UNL     1      31.253 -10.424 -21.976  0.00  0.00    -0.283 N 
ATOM      6  C   UNL     1      33.935 -16.094 -21.554  0.00  0.00    +0.048 C 
ATOM      7  C   UNL     1      34.043 -15.144 -22.570  0.00  0.00    +0.007 C 
ATOM      8  C   UNL     1      35.299 -16.943 -23.129  0.00  0.00    +0.065 C 
ATOM      9  C   UNL     1      34.909 -15.696 -23.559  0.00  0.00    +0.014 C 
ATOM     10  C   UNL     1      33.324 -13.923 -22.423  0.00  0.00    +0.144 C 
ATOM     11  C   UNL     1      33.156 -15.885 -20.414  0.00  0.00    +0.017 C 
ATOM     12  C   UNL     1      32.531 -13.683 -21.286  0.00  0.00    +0.134 C 
ATOM     13  C   UNL     1      32.466 -14.671 -20.308  0.00  0.00    +0.031 C 
ATOM     14  C   UNL     1      33.364 -12.908 -23.382  0.00  0.00    +0.178 C 
ATOM     15  C   UNL     1      31.971 -11.628 -22.137  0.00  0.00    +0.197 C 
ATOM     16  H   UNL     1      34.143 -12.319 -25.224  0.00  0.00    +0.144 HD
ATOM     17  H   UNL     1      34.645 -13.867 -24.718  0.00  0.00    +0.144 HD
ATOM     18  H   UNL     1      30.705 -10.280 -21.170  0.00  0.00    +0.156 HD
ATOM     19  H   UNL     1      31.300  -9.726 -22.669  0.00  0.00    +0.156 HD
ENDROOT
BRANCH   1  20
ATOM     20  C   UNL     1      34.876 -18.384 -21.144  0.00  0.00    +0.077 C 
BRANCH  20  21
ATOM     21  C   UNL     1      33.940 -19.520 -21.614  0.00  0.00    +0.020 C 
ATOM     22  C   UNL     1      32.849 -19.856 -20.605  0.00  0.00    +0.002 C 
ENDBRANCH  20  21
BRANCH  20  23
ATOM     23  C   UNL     1      36.343 -18.868 -21.119  0.00  0.00    +0.020 C 
ATOM     24  C   UNL     1      36.544 -20.131 -20.291  0.00  0.00    +0.002 C 
ENDBRANCH  20  23
ENDBRANCH   1  20
TORSDOF 3
ENDMDL
MODEL 5
REMARK VINA RESULT:      -9.1      1.009      3.011
REMARK  Name = 1881
REMARK  3 active torsions:
REMARK  status: ('A' for Active; 'I' for Inactive)
REMARK    1  A    between atoms: N_1  and  C_20
REMARK    2  A    between atoms: C_20  and  C_21
REMARK    3  A    between atoms: C_20  and  C_23
REMARK                            x       y       z     vdW  Elec       q    Type
REMARK                         _______ _______ _______ _____ _____    ______ ____
ROOT
ATOM      1  N   UNL     1      34.905 -18.589 -21.796  0.00  0.00    -0.288 N 
ATOM      2  N   UNL     1      33.889 -13.243 -22.609  0.00  0.00    -0.332 NA
ATOM      3  N   UNL     1      33.625 -13.725 -24.959  0.00  0.00    -0.317 NA
ATOM      4  N   UNL     1      33.865 -15.886 -25.792  0.00  0.00    -0.335 N 
ATOM      5  N   UNL     1      33.378 -11.543 -24.144  0.00  0.00    -0.283 N 
ATOM      6  C   UNL     1      34.677 -17.232 -21.805  0.00  0.00    +0.048 C 
ATOM      7  C   UNL     1      34.421 -16.862 -23.126  0.00  0.00    +0.007 C 
ATOM      8  C   UNL     1      34.804 -19.093 -23.064  0.00  0.00    +0.065 C 
ATOM      9  C   UNL     1      34.505 -18.050 -23.910  0.00  0.00    +0.014 C 
ATOM     10  C   UNL     1      34.151 -15.490 -23.396  0.00  0.00    +0.144 C 
ATOM     11  C   UNL     1      34.676 -16.311 -20.756  0.00  0.00    +0.017 C 
ATOM     12  C   UNL     1      34.143 -14.538 -22.359  0.00  0.00    +0.134 C 
ATOM     13  C   UNL     1      34.406 -14.971 -21.064  0.00  0.00    +0.031 C 
ATOM     14  C   UNL     1      33.882 -15.016 -24.681  0.00  0.00    +0.178 C 
ATOM     15  C   UNL     1      33.644 -12.907 -23.894  0.00  0.00    +0.197 C 
ATOM     16  H   UNL     1      33.674 -15.533 -26.690  0.00  0.00    +0.144 HD
ATOM     17  H   UNL     1      34.044 -16.846 -25.668  0.00  0.00    +0.144 HD
ATOM     18  H   UNL     1      33.378 -10.896 -23.401  0.00  0.00    +0.156 HD
ATOM     19  H   UNL     1      33.192 -11.238 -25.061  0.00  0.00    +0.156 HD
ENDROOT
BRANCH   1  20
ATOM     20  C   UNL     1      35.210 -19.382 -20.624  0.00  0.00    +0.077 C 
BRANCH  20  21
ATOM     21  C   UNL     1      34.231 -20.563 -20.441  0.00  0.00    +0.020 C 
ATOM     22  C   UNL     1      32.780 -20.121 -20.287  0.00  0.00    +0.002 C 
ENDBRANCH  20  21
BRANCH  20  23
ATOM     23  C   UNL     1      36.671 -19.885 -20.617  0.00  0.00    +0.020 C 
ATOM     24  C   UNL     1      36.852 -21.189 -19.848  0.00  0.00    +0.002 C 
ENDBRANCH  20  23
ENDBRANCH   1  20
TORSDOF 3
ENDMDL
MODEL 6
REMARK VINA RESULT:      -8.9      3.813      8.437
REMARK  Name = 1881
REMARK  3 active torsions:
REMARK  status: ('A' for Active; 'I' for Inactive)
REMARK    1  A    between atoms: N_1  and  C_20
REMARK    2  A    between atoms: C_20  and  C_21
REMARK    3  A    between atoms: C_20  and  C_23
REMARK                            x       y       z     vdW  Elec       q    Type
REMARK                         _______ _______ _______ _____ _____    ______ ____
ROOT
ATOM      1  N   UNL     1      34.496 -19.771 -21.229  0.00  0.00    -0.288 N 
ATOM      2  N   UNL     1      36.210 -22.863 -17.013  0.00  0.00    -0.332 NA
ATOM      3  N   UNL     1      33.913 -23.504 -16.643  0.00  0.00    -0.317 NA
ATOM      4  N   UNL     1      32.193 -22.694 -17.988  0.00  0.00    -0.335 N 
ATOM      5  N   UNL     1      35.627 -24.332 -15.278  0.00  0.00    -0.283 N 
ATOM      6  C   UNL     1      35.105 -20.480 -20.220  0.00  0.00    +0.048 C 
ATOM      7  C   UNL     1      34.106 -21.174 -19.537  0.00  0.00    +0.007 C 
ATOM      8  C   UNL     1      33.145 -19.990 -21.211  0.00  0.00    +0.065 C 
ATOM      9  C   UNL     1      32.872 -20.853 -20.175  0.00  0.00    +0.014 C 
ATOM     10  C   UNL     1      34.492 -21.992 -18.436  0.00  0.00    +0.144 C 
ATOM     11  C   UNL     1      36.452 -20.563 -19.862  0.00  0.00    +0.017 C 
ATOM     12  C   UNL     1      35.841 -22.094 -18.051  0.00  0.00    +0.134 C 
ATOM     13  C   UNL     1      36.789 -21.377 -18.773  0.00  0.00    +0.031 C 
ATOM     14  C   UNL     1      33.571 -22.726 -17.687  0.00  0.00    +0.178 C 
ATOM     15  C   UNL     1      35.227 -23.526 -16.366  0.00  0.00    +0.197 C 
ATOM     16  H   UNL     1      31.559 -23.219 -17.448  0.00  0.00    +0.144 HD
ATOM     17  H   UNL     1      31.866 -22.148 -18.738  0.00  0.00    +0.144 HD
ATOM     18  H   UNL     1      36.578 -24.386 -15.029  0.00  0.00    +0.156 HD
ATOM     19  H   UNL     1      34.955 -24.838 -14.768  0.00  0.00    +0.156 HD
ENDROOT
BRANCH   1  20
ATOM     20  C   UNL     1      35.171 -18.914 -22.180  0.00  0.00    +0.077 C 
BRANCH  20  21
ATOM     21  C   UNL     1      34.395 -18.783 -23.510  0.00  0.00    +0.020 C 
ATOM     22  C   UNL     1      34.941 -19.678 -24.615  0.00  0.00    +0.002 C 
ENDBRANCH  20  21
BRANCH  20  23
ATOM     23  C   UNL     1      35.483 -17.518 -21.597  0.00  0.00    +0.020 C 
ATOM     24  C   UNL     1      34.943 -16.377 -22.451  0.00  0.00    +0.002 C 
ENDBRANCH  20  23
ENDBRANCH   1  20
TORSDOF 3
ENDMDL
MODEL 7
REMARK VINA RESULT:      -8.8      9.211     10.928
REMARK  Name = 1881
REMARK  3 active torsions:
REMARK  status: ('A' for Active; 'I' for Inactive)
REMARK    1  A    between atoms: N_1  and  C_20
REMARK    2  A    between atoms: C_20  and  C_21
REMARK    3  A    between atoms: C_20  and  C_23
REMARK                            x       y       z     vdW  Elec       q    Type
REMARK                         _______ _______ _______ _____ _____    ______ ____
ROOT
ATOM      1  N   UNL     1      35.166 -23.968 -14.915  0.00  0.00    -0.288 N 
ATOM      2  N   UNL     1      30.299 -22.613 -17.096  0.00  0.00    -0.332 NA
ATOM      3  N   UNL     1      29.301 -23.013 -14.935  0.00  0.00    -0.317 NA
ATOM      4  N   UNL     1      30.580 -23.694 -13.112  0.00  0.00    -0.335 N 
ATOM      5  N   UNL     1      27.995 -22.328 -16.754  0.00  0.00    -0.283 N 
ATOM      6  C   UNL     1      34.048 -23.602 -15.629  0.00  0.00    +0.048 C 
ATOM      7  C   UNL     1      32.961 -23.653 -14.754  0.00  0.00    +0.007 C 
ATOM      8  C   UNL     1      34.828 -24.249 -13.619  0.00  0.00    +0.065 C 
ATOM      9  C   UNL     1      33.471 -24.065 -13.488  0.00  0.00    +0.014 C 
ATOM     10  C   UNL     1      31.676 -23.312 -15.264  0.00  0.00    +0.144 C 
ATOM     11  C   UNL     1      33.914 -23.231 -16.968  0.00  0.00    +0.017 C 
ATOM     12  C   UNL     1      31.510 -22.935 -16.610  0.00  0.00    +0.134 C 
ATOM     13  C   UNL     1      32.633 -22.904 -17.429  0.00  0.00    +0.031 C 
ATOM     14  C   UNL     1      30.526 -23.331 -14.474  0.00  0.00    +0.178 C 
ATOM     15  C   UNL     1      29.262 -22.669 -16.233  0.00  0.00    +0.197 C 
ATOM     16  H   UNL     1      29.758 -23.701 -12.571  0.00  0.00    +0.144 HD
ATOM     17  H   UNL     1      31.441 -23.939 -12.702  0.00  0.00    +0.144 HD
ATOM     18  H   UNL     1      27.905 -22.067 -17.700  0.00  0.00    +0.156 HD
ATOM     19  H   UNL     1      27.201 -22.350 -16.173  0.00  0.00    +0.156 HD
ENDROOT
BRANCH   1  20
ATOM     20  C   UNL     1      36.511 -24.048 -15.443  0.00  0.00    +0.077 C 
BRANCH  20  21
ATOM     21  C   UNL     1      37.269 -22.706 -15.330  0.00  0.00    +0.020 C 
ATOM     22  C   UNL     1      37.303 -21.924 -16.637  0.00  0.00    +0.002 C 
ENDBRANCH  20  21
BRANCH  20  23
ATOM     23  C   UNL     1      37.330 -25.189 -14.799  0.00  0.00    +0.020 C 
ATOM     24  C   UNL     1      36.910 -26.573 -15.278  0.00  0.00    +0.002 C 
ENDBRANCH  20  23
ENDBRANCH   1  20
TORSDOF 3
ENDMDL
MODEL 8
REMARK VINA RESULT:      -8.8      2.003      6.662
REMARK  Name = 1881
REMARK  3 active torsions:
REMARK  status: ('A' for Active; 'I' for Inactive)
REMARK    1  A    between atoms: N_1  and  C_20
REMARK    2  A    between atoms: C_20  and  C_21
REMARK    3  A    between atoms: C_20  and  C_23
REMARK                            x       y       z     vdW  Elec       q    Type
REMARK                         _______ _______ _______ _____ _____    ______ ____
ROOT
ATOM      1  N   UNL     1      33.283 -13.763 -23.994  0.00  0.00    -0.288 N 
ATOM      2  N   UNL     1      35.402 -17.573 -20.638  0.00  0.00    -0.332 NA
ATOM      3  N   UNL     1      35.472 -19.085 -22.517  0.00  0.00    -0.317 NA
ATOM      4  N   UNL     1      34.740 -18.434 -24.630  0.00  0.00    -0.335 N 
ATOM      5  N   UNL     1      36.215 -19.761 -20.401  0.00  0.00    -0.283 N 
ATOM      6  C   UNL     1      33.798 -14.579 -23.014  0.00  0.00    +0.048 C 
ATOM      7  C   UNL     1      34.081 -15.811 -23.604  0.00  0.00    +0.007 C 
ATOM      8  C   UNL     1      33.228 -14.433 -25.185  0.00  0.00    +0.065 C 
ATOM      9  C   UNL     1      33.714 -15.703 -24.978  0.00  0.00    +0.014 C 
ATOM     10  C   UNL     1      34.633 -16.835 -22.783  0.00  0.00    +0.144 C 
ATOM     11  C   UNL     1      34.036 -14.325 -21.662  0.00  0.00    +0.017 C 
ATOM     12  C   UNL     1      34.883 -16.609 -21.416  0.00  0.00    +0.134 C 
ATOM     13  C   UNL     1      34.579 -15.359 -20.889  0.00  0.00    +0.031 C 
ATOM     14  C   UNL     1      34.951 -18.102 -23.275  0.00  0.00    +0.178 C 
ATOM     15  C   UNL     1      35.668 -18.757 -21.229  0.00  0.00    +0.197 C 
ATOM     16  H   UNL     1      34.972 -19.333 -24.958  0.00  0.00    +0.144 HD
ATOM     17  H   UNL     1      34.362 -17.767 -25.247  0.00  0.00    +0.144 HD
ATOM     18  H   UNL     1      36.380 -19.578 -19.448  0.00  0.00    +0.156 HD
ATOM     19  H   UNL     1      36.429 -20.646 -20.776  0.00  0.00    +0.156 HD
ENDROOT
BRANCH   1  20
ATOM     20  C   UNL     1      32.855 -12.393 -23.808  0.00  0.00    +0.077 C 
BRANCH  20  21
ATOM     21  C   UNL     1      32.035 -12.203 -22.513  0.00  0.00    +0.020 C 
ATOM     22  C   UNL     1      31.705 -10.744 -22.219  0.00  0.00    +0.002 C 
ENDBRANCH  20  21
BRANCH  20  23
ATOM     23  C   UNL     1      34.034 -11.396 -23.853  0.00  0.00    +0.020 C 
ATOM     24  C   UNL     1      34.434 -11.002 -25.270  0.00  0.00    +0.002 C 
ENDBRANCH  20  23
ENDBRANCH   1  20
TORSDOF 3
ENDMDL
MODEL 9
REMARK VINA RESULT:      -8.7      6.879     10.126
REMARK  Name = 1881
REMARK  3 active torsions:
REMARK  status: ('A' for Active; 'I' for Inactive)
REMARK    1  A    between atoms: N_1  and  C_20
REMARK    2  A    between atoms: C_20  and  C_21
REMARK    3  A    between atoms: C_20  and  C_23
REMARK                            x       y       z     vdW  Elec       q    Type
REMARK                         _______ _______ _______ _____ _____    ______ ____
ROOT
ATOM      1  N   UNL     1      36.644 -24.135 -14.341  0.00  0.00    -0.288 N 
ATOM      2  N   UNL     1      34.850 -21.586 -18.876  0.00  0.00    -0.332 NA
ATOM      3  N   UNL     1      32.641 -22.428 -18.387  0.00  0.00    -0.317 NA
ATOM      4  N   UNL     1      32.230 -23.751 -16.515  0.00  0.00    -0.335 N 
ATOM      5  N   UNL     1      33.031 -21.097 -20.275  0.00  0.00    -0.283 N 
ATOM      6  C   UNL     1      36.382 -23.439 -15.499  0.00  0.00    +0.048 C 
ATOM      7  C   UNL     1      35.021 -23.581 -15.771  0.00  0.00    +0.007 C 
ATOM      8  C   UNL     1      35.498 -24.714 -13.869  0.00  0.00    +0.065 C 
ATOM      9  C   UNL     1      34.476 -24.391 -14.731  0.00  0.00    +0.014 C 
ATOM     10  C   UNL     1      34.500 -22.942 -16.932  0.00  0.00    +0.144 C 
ATOM     11  C   UNL     1      37.235 -22.699 -16.319  0.00  0.00    +0.017 C 
ATOM     12  C   UNL     1      35.336 -22.191 -17.779  0.00  0.00    +0.134 C 
ATOM     13  C   UNL     1      36.684 -22.087 -17.452  0.00  0.00    +0.031 C 
ATOM     14  C   UNL     1      33.154 -23.022 -17.294  0.00  0.00    +0.178 C 
ATOM     15  C   UNL     1      33.530 -21.737 -19.120  0.00  0.00    +0.197 C 
ATOM     16  H   UNL     1      31.285 -23.795 -16.787  0.00  0.00    +0.144 HD
ATOM     17  H   UNL     1      32.531 -24.213 -15.700  0.00  0.00    +0.144 HD
ATOM     18  H   UNL     1      33.636 -20.577 -20.851  0.00  0.00    +0.156 HD
ATOM     19  H   UNL     1      32.076 -21.172 -20.505  0.00  0.00    +0.156 HD
ENDROOT
BRANCH   1  20
ATOM     20  C   UNL     1      37.938 -24.247 -13.703  0.00  0.00    +0.077 C 
BRANCH  20  21
ATOM     21  C   UNL     1      37.845 -24.157 -12.163  0.00  0.00    +0.020 C 
ATOM     22  C   UNL     1      37.471 -22.767 -11.664  0.00  0.00    +0.002 C 
ENDBRANCH  20  21
BRANCH  20  23
ATOM     23  C   UNL     1      38.694 -25.527 -14.126  0.00  0.00    +0.020 C 
ATOM     24  C   UNL     1      39.918 -25.243 -14.988  0.00  0.00    +0.002 C 
ENDBRANCH  20  23
ENDBRANCH   1  20
TORSDOF 3
ENDMDL
