MODEL 1
REMARK VINA RESULT:      -8.9      0.000      0.000
REMARK  Name = 10041129
REMARK  6 active torsions:
REMARK  status: ('A' for Active; 'I' for Inactive)
REMARK    1  A    between atoms: C_2  and  O_18
REMARK    2  A    between atoms: C_3  and  O_20
REMARK    3  A    between atoms: C_4  and  N_6
REMARK    4  A    between atoms: C_5  and  C_22
REMARK    5  A    between atoms: C_22  and  S_23
REMARK    6  A    between atoms: S_23  and  C_24
REMARK                            x       y       z     vdW  Elec       q    Type
REMARK                         _______ _______ _______ _____ _____    ______ ____
ROOT
ATOM      1  O   UNL     1      34.953 -17.229 -20.678  0.00  0.00    -0.335 OA
ATOM      2  C   UNL     1      34.152 -17.914 -22.799  0.00  0.00    +0.187 C 
ATOM      3  C   UNL     1      34.573 -16.463 -22.900  0.00  0.00    +0.169 C 
ATOM      4  C   UNL     1      34.915 -18.365 -21.562  0.00  0.00    +0.225 C 
ATOM      5  C   UNL     1      34.634 -16.038 -21.436  0.00  0.00    +0.157 C 
ENDROOT
BRANCH   4   6
ATOM      6  N   UNL     1      34.311 -19.505 -20.874  0.00  0.00    -0.247 N 
ATOM      7  N   UNL     1      32.746 -20.945 -20.202  0.00  0.00    -0.242 NA
ATOM      8  N   UNL     1      36.242 -20.424 -19.722  0.00  0.00    -0.228 NA
ATOM      9  N   UNL     1      35.642 -22.398 -18.419  0.00  0.00    -0.229 NA
ATOM     10  C   UNL     1      34.944 -20.401 -20.059  0.00  0.00    +0.152 C 
ATOM     11  C   UNL     1      32.992 -19.875 -20.927  0.00  0.00    +0.223 C 
ATOM     12  C   UNL     1      33.958 -21.285 -19.654  0.00  0.00    +0.140 C 
ATOM     13  C   UNL     1      34.346 -22.315 -18.801  0.00  0.00    +0.143 C 
ATOM     14  C   UNL     1      36.498 -21.462 -18.896  0.00  0.00    +0.253 C 
ATOM     15  N   UNL     1      33.411 -23.258 -18.342  0.00  0.00    -0.342 N 
ATOM     16  H   UNL     1      33.696 -23.982 -17.740  0.00  0.00    +0.144 HD
ATOM     17  H   UNL     1      32.469 -23.195 -18.623  0.00  0.00    +0.144 HD
ENDBRANCH   4   6
BRANCH   2  18
ATOM     18  O   UNL     1      34.502 -18.673 -23.939  0.00  0.00    -0.378 OA
ATOM     19  H   UNL     1      34.748 -18.075 -24.662  0.00  0.00    +0.211 HD
ENDBRANCH   2  18
BRANCH   3  20
ATOM     20  O   UNL     1      35.886 -16.385 -23.455  0.00  0.00    -0.379 OA
ATOM     21  H   UNL     1      36.542 -16.444 -22.744  0.00  0.00    +0.211 HD
ENDBRANCH   3  20
BRANCH   5  22
ATOM     22  C   UNL     1      33.311 -15.484 -20.923  0.00  0.00    +0.090 C 
BRANCH  22  23
ATOM     23  S   UNL     1      32.701 -14.186 -22.031  0.00  0.00    -0.138 S 
BRANCH  23  24
ATOM     24  C   UNL     1      32.221 -12.972 -20.779  0.00  0.00    +0.058 C 
ATOM     25  C   UNL     1      31.447 -11.832 -21.412  0.00  0.00    +0.013 C 
ENDBRANCH  23  24
ENDBRANCH  22  23
ENDBRANCH   5  22
TORSDOF 6
ENDMDL
MODEL 2
REMARK VINA RESULT:      -8.3      7.719      9.062
REMARK  Name = 10041129
REMARK  6 active torsions:
REMARK  status: ('A' for Active; 'I' for Inactive)
REMARK    1  A    between atoms: C_2  and  O_18
REMARK    2  A    between atoms: C_3  and  O_20
REMARK    3  A    between atoms: C_4  and  N_6
REMARK    4  A    between atoms: C_5  and  C_22
REMARK    5  A    between atoms: C_22  and  S_23
REMARK    6  A    between atoms: S_23  and  C_24
REMARK                            x       y       z     vdW  Elec       q    Type
REMARK                         _______ _______ _______ _____ _____    ______ ____
ROOT
ATOM      1  O   UNL     1      31.527 -24.482 -15.596  0.00  0.00    -0.335 OA
ATOM      2  C   UNL     1      31.884 -22.984 -13.797  0.00  0.00    +0.187 C 
ATOM      3  C   UNL     1      30.443 -23.449 -13.745  0.00  0.00    +0.169 C 
ATOM      4  C   UNL     1      32.525 -24.076 -14.640  0.00  0.00    +0.225 C 
ATOM      5  C   UNL     1      30.233 -24.016 -15.145  0.00  0.00    +0.157 C 
ENDROOT
BRANCH   4   6
ATOM      6  N   UNL     1      33.736 -23.654 -15.340  0.00  0.00    -0.247 N 
ATOM      7  N   UNL     1      35.051 -22.978 -17.011  0.00  0.00    -0.242 NA
ATOM      8  N   UNL     1      35.366 -23.748 -13.542  0.00  0.00    -0.228 NA
ATOM      9  N   UNL     1      37.586 -23.097 -14.320  0.00  0.00    -0.229 NA
ATOM     10  C   UNL     1      34.988 -23.521 -14.809  0.00  0.00    +0.152 C 
ATOM     11  C   UNL     1      33.827 -23.317 -16.666  0.00  0.00    +0.223 C 
ATOM     12  C   UNL     1      35.787 -23.101 -15.859  0.00  0.00    +0.140 C 
ATOM     13  C   UNL     1      37.134 -22.887 -15.580  0.00  0.00    +0.143 C 
ATOM     14  C   UNL     1      36.687 -23.508 -13.393  0.00  0.00    +0.253 C 
ATOM     15  N   UNL     1      38.017 -22.458 -16.585  0.00  0.00    -0.342 N 
ATOM     16  H   UNL     1      38.967 -22.310 -16.377  0.00  0.00    +0.144 HD
ATOM     17  H   UNL     1      37.684 -22.305 -17.500  0.00  0.00    +0.144 HD
ENDBRANCH   4   6
BRANCH   2  18
ATOM     18  O   UNL     1      32.481 -22.886 -12.519  0.00  0.00    -0.378 OA
ATOM     19  H   UNL     1      32.487 -21.958 -12.236  0.00  0.00    +0.211 HD
ENDBRANCH   2  18
BRANCH   3  20
ATOM     20  O   UNL     1      30.319 -24.508 -12.796  0.00  0.00    -0.379 OA
ATOM     21  H   UNL     1      29.711 -25.181 -13.141  0.00  0.00    +0.211 HD
ENDBRANCH   3  20
BRANCH   5  22
ATOM     22  C   UNL     1      29.726 -22.977 -16.136  0.00  0.00    +0.090 C 
BRANCH  22  23
ATOM     23  S   UNL     1      28.167 -23.525 -16.881  0.00  0.00    -0.138 S 
BRANCH  23  24
ATOM     24  C   UNL     1      27.093 -22.219 -16.240  0.00  0.00    +0.058 C 
ATOM     25  C   UNL     1      26.345 -21.541 -17.372  0.00  0.00    +0.013 C 
ENDBRANCH  23  24
ENDBRANCH  22  23
ENDBRANCH   5  22
TORSDOF 6
ENDMDL
MODEL 3
REMARK VINA RESULT:      -8.0      5.607      8.118
REMARK  Name = 10041129
REMARK  6 active torsions:
REMARK  status: ('A' for Active; 'I' for Inactive)
REMARK    1  A    between atoms: C_2  and  O_18
REMARK    2  A    between atoms: C_3  and  O_20
REMARK    3  A    between atoms: C_4  and  N_6
REMARK    4  A    between atoms: C_5  and  C_22
REMARK    5  A    between atoms: C_22  and  S_23
REMARK    6  A    between atoms: S_23  and  C_24
REMARK                            x       y       z     vdW  Elec       q    Type
REMARK                         _______ _______ _______ _____ _____    ______ ____
ROOT
ATOM      1  O   UNL     1      34.747 -24.502 -15.717  0.00  0.00    -0.335 OA
ATOM      2  C   UNL     1      36.087 -22.562 -15.491  0.00  0.00    +0.187 C 
ATOM      3  C   UNL     1      36.417 -23.500 -14.348  0.00  0.00    +0.169 C 
ATOM      4  C   UNL     1      35.456 -23.517 -16.493  0.00  0.00    +0.225 C 
ATOM      5  C   UNL     1      35.225 -24.452 -14.352  0.00  0.00    +0.157 C 
ENDROOT
BRANCH   4   6
ATOM      6  N   UNL     1      34.537 -22.874 -17.431  0.00  0.00    -0.247 N 
ATOM      7  N   UNL     1      32.614 -22.300 -18.404  0.00  0.00    -0.242 NA
ATOM      8  N   UNL     1      36.093 -21.637 -18.827  0.00  0.00    -0.228 NA
ATOM      9  N   UNL     1      34.925 -20.390 -20.569  0.00  0.00    -0.229 NA
ATOM     10  C   UNL     1      34.867 -22.039 -18.461  0.00  0.00    +0.152 C 
ATOM     11  C   UNL     1      33.172 -23.000 -17.439  0.00  0.00    +0.223 C 
ATOM     12  C   UNL     1      33.662 -21.695 -19.051  0.00  0.00    +0.140 C 
ATOM     13  C   UNL     1      33.718 -20.836 -20.145  0.00  0.00    +0.143 C 
ATOM     14  C   UNL     1      36.021 -20.812 -19.894  0.00  0.00    +0.253 C 
ATOM     15  N   UNL     1      32.544 -20.433 -20.803  0.00  0.00    -0.342 N 
ATOM     16  H   UNL     1      32.596 -19.826 -21.576  0.00  0.00    +0.144 HD
ATOM     17  H   UNL     1      31.668 -20.758 -20.491  0.00  0.00    +0.144 HD
ENDBRANCH   4   6
BRANCH   2  18
ATOM     18  O   UNL     1      37.226 -21.916 -16.024  0.00  0.00    -0.378 OA
ATOM     19  H   UNL     1      37.858 -21.736 -15.311  0.00  0.00    +0.211 HD
ENDBRANCH   2  18
BRANCH   3  20
ATOM     20  O   UNL     1      37.597 -24.239 -14.664  0.00  0.00    -0.379 OA
ATOM     21  H   UNL     1      38.379 -23.709 -14.447  0.00  0.00    +0.211 HD
ENDBRANCH   3  20
BRANCH   5  22
ATOM     22  C   UNL     1      34.084 -23.978 -13.462  0.00  0.00    +0.090 C 
BRANCH  22  23
ATOM     23  S   UNL     1      32.495 -24.559 -14.110  0.00  0.00    -0.138 S 
BRANCH  23  24
ATOM     24  C   UNL     1      31.633 -22.970 -14.166  0.00  0.00    +0.058 C 
ATOM     25  C   UNL     1      30.239 -23.141 -14.735  0.00  0.00    +0.013 C 
ENDBRANCH  23  24
ENDBRANCH  22  23
ENDBRANCH   5  22
TORSDOF 6
ENDMDL
MODEL 4
REMARK VINA RESULT:      -7.9      7.427     10.394
REMARK  Name = 10041129
REMARK  6 active torsions:
REMARK  status: ('A' for Active; 'I' for Inactive)
REMARK    1  A    between atoms: C_2  and  O_18
REMARK    2  A    between atoms: C_3  and  O_20
REMARK    3  A    between atoms: C_4  and  N_6
REMARK    4  A    between atoms: C_5  and  C_22
REMARK    5  A    between atoms: C_22  and  S_23
REMARK    6  A    between atoms: S_23  and  C_24
REMARK                            x       y       z     vdW  Elec       q    Type
REMARK                         _______ _______ _______ _____ _____    ______ ____
ROOT
ATOM      1  O   UNL     1      37.477 -23.548 -13.723  0.00  0.00    -0.335 OA
ATOM      2  C   UNL     1      35.630 -24.025 -12.320  0.00  0.00    +0.187 C 
ATOM      3  C   UNL     1      36.898 -24.223 -11.515  0.00  0.00    +0.169 C 
ATOM      4  C   UNL     1      36.125 -23.134 -13.450  0.00  0.00    +0.225 C 
ATOM      5  C   UNL     1      37.962 -24.325 -12.603  0.00  0.00    +0.157 C 
ENDROOT
BRANCH   4   6
ATOM      6  N   UNL     1      35.326 -23.222 -14.670  0.00  0.00    -0.247 N 
ATOM      7  N   UNL     1      33.620 -23.734 -16.014  0.00  0.00    -0.242 NA
ATOM      8  N   UNL     1      36.777 -22.090 -16.255  0.00  0.00    -0.228 NA
ATOM      9  N   UNL     1      35.779 -22.021 -18.481  0.00  0.00    -0.229 NA
ATOM     10  C   UNL     1      35.657 -22.740 -15.905  0.00  0.00    +0.152 C 
ATOM     11  C   UNL     1      34.093 -23.812 -14.788  0.00  0.00    +0.223 C 
ATOM     12  C   UNL     1      34.588 -23.067 -16.723  0.00  0.00    +0.140 C 
ATOM     13  C   UNL     1      34.675 -22.682 -18.058  0.00  0.00    +0.143 C 
ATOM     14  C   UNL     1      36.747 -21.769 -17.567  0.00  0.00    +0.253 C 
ATOM     15  N   UNL     1      33.635 -22.970 -18.958  0.00  0.00    -0.342 N 
ATOM     16  H   UNL     1      33.707 -22.694 -19.899  0.00  0.00    +0.144 HD
ATOM     17  H   UNL     1      32.833 -23.451 -18.646  0.00  0.00    +0.144 HD
ENDBRANCH   4   6
BRANCH   2  18
ATOM     18  O   UNL     1      34.594 -23.410 -11.580  0.00  0.00    -0.378 OA
ATOM     19  H   UNL     1      33.783 -23.393 -12.111  0.00  0.00    +0.211 HD
ENDBRANCH   2  18
BRANCH   3  20
ATOM     20  O   UNL     1      37.152 -23.058 -10.731  0.00  0.00    -0.379 OA
ATOM     21  H   UNL     1      38.072 -23.069 -10.424  0.00  0.00    +0.211 HD
ENDBRANCH   3  20
BRANCH   5  22
ATOM     22  C   UNL     1      38.193 -25.754 -13.076  0.00  0.00    +0.090 C 
BRANCH  22  23
ATOM     23  S   UNL     1      38.284 -25.814 -14.884  0.00  0.00    -0.138 S 
BRANCH  23  24
ATOM     24  C   UNL     1      40.046 -25.456 -15.074  0.00  0.00    +0.058 C 
ATOM     25  C   UNL     1      40.876 -26.400 -14.226  0.00  0.00    +0.013 C 
ENDBRANCH  23  24
ENDBRANCH  22  23
ENDBRANCH   5  22
TORSDOF 6
ENDMDL
MODEL 5
REMARK VINA RESULT:      -7.9      2.787      4.259
REMARK  Name = 10041129
REMARK  6 active torsions:
REMARK  status: ('A' for Active; 'I' for Inactive)
REMARK    1  A    between atoms: C_2  and  O_18
REMARK    2  A    between atoms: C_3  and  O_20
REMARK    3  A    between atoms: C_4  and  N_6
REMARK    4  A    between atoms: C_5  and  C_22
REMARK    5  A    between atoms: C_22  and  S_23
REMARK    6  A    between atoms: S_23  and  C_24
REMARK                            x       y       z     vdW  Elec       q    Type
REMARK                         _______ _______ _______ _____ _____    ______ ____
ROOT
ATOM      1  O   UNL     1      34.235 -13.385 -22.744  0.00  0.00    -0.335 OA
ATOM      2  C   UNL     1      33.186 -14.827 -24.302  0.00  0.00    +0.187 C 
ATOM      3  C   UNL     1      32.841 -13.399 -24.673  0.00  0.00    +0.169 C 
ATOM      4  C   UNL     1      34.430 -14.625 -23.449  0.00  0.00    +0.225 C 
ATOM      5  C   UNL     1      33.180 -12.639 -23.395  0.00  0.00    +0.157 C 
ENDROOT
BRANCH   4   6
ATOM      6  N   UNL     1      34.676 -15.703 -22.493  0.00  0.00    -0.247 N 
ATOM      7  N   UNL     1      35.006 -16.717 -20.534  0.00  0.00    -0.242 NA
ATOM      8  N   UNL     1      34.824 -17.616 -23.981  0.00  0.00    -0.228 NA
ATOM      9  N   UNL     1      35.242 -19.676 -22.740  0.00  0.00    -0.229 NA
ATOM     10  C   UNL     1      34.847 -17.028 -22.776  0.00  0.00    +0.152 C 
ATOM     11  C   UNL     1      34.782 -15.567 -21.132  0.00  0.00    +0.223 C 
ATOM     12  C   UNL     1      35.049 -17.640 -21.549  0.00  0.00    +0.140 C 
ATOM     13  C   UNL     1      35.252 -19.017 -21.558  0.00  0.00    +0.143 C 
ATOM     14  C   UNL     1      35.032 -18.946 -23.862  0.00  0.00    +0.253 C 
ATOM     15  N   UNL     1      35.463 -19.719 -20.359  0.00  0.00    -0.342 N 
ATOM     16  H   UNL     1      35.606 -20.692 -20.376  0.00  0.00    +0.144 HD
ATOM     17  H   UNL     1      35.469 -19.236 -19.500  0.00  0.00    +0.144 HD
ENDBRANCH   4   6
BRANCH   2  18
ATOM     18  O   UNL     1      33.445 -15.644 -25.426  0.00  0.00    -0.378 OA
ATOM     19  H   UNL     1      32.879 -15.367 -26.164  0.00  0.00    +0.211 HD
ENDBRANCH   2  18
BRANCH   3  20
ATOM     20  O   UNL     1      33.708 -12.954 -25.716  0.00  0.00    -0.379 OA
ATOM     21  H   UNL     1      34.620 -12.923 -25.387  0.00  0.00    +0.211 HD
ENDBRANCH   3  20
BRANCH   5  22
ATOM     22  C   UNL     1      32.002 -12.537 -22.435  0.00  0.00    +0.090 C 
BRANCH  22  23
ATOM     23  S   UNL     1      31.715 -10.810 -21.969  0.00  0.00    -0.138 S 
BRANCH  23  24
ATOM     24  C   UNL     1      30.895 -11.094 -20.382  0.00  0.00    +0.058 C 
ATOM     25  C   UNL     1      31.666 -10.430 -19.259  0.00  0.00    +0.013 C 
ENDBRANCH  23  24
ENDBRANCH  22  23
ENDBRANCH   5  22
TORSDOF 6
ENDMDL
MODEL 6
REMARK VINA RESULT:      -7.8      7.844     10.568
REMARK  Name = 10041129
REMARK  6 active torsions:
REMARK  status: ('A' for Active; 'I' for Inactive)
REMARK    1  A    between atoms: C_2  and  O_18
REMARK    2  A    between atoms: C_3  and  O_20
REMARK    3  A    between atoms: C_4  and  N_6
REMARK    4  A    between atoms: C_5  and  C_22
REMARK    5  A    between atoms: C_22  and  S_23
REMARK    6  A    between atoms: S_23  and  C_24
REMARK                            x       y       z     vdW  Elec       q    Type
REMARK                         _______ _______ _______ _____ _____    ______ ____
ROOT
ATOM      1  O   UNL     1      37.632 -23.538 -13.537  0.00  0.00    -0.335 OA
ATOM      2  C   UNL     1      35.528 -24.149 -12.639  0.00  0.00    +0.187 C 
ATOM      3  C   UNL     1      36.595 -24.493 -11.619  0.00  0.00    +0.169 C 
ATOM      4  C   UNL     1      36.252 -23.127 -13.501  0.00  0.00    +0.225 C 
ATOM      5  C   UNL     1      37.867 -24.475 -12.461  0.00  0.00    +0.157 C 
ENDROOT
BRANCH   4   6
ATOM      6  N   UNL     1      35.732 -23.023 -14.864  0.00  0.00    -0.247 N 
ATOM      7  N   UNL     1      35.721 -22.721 -17.074  0.00  0.00    -0.242 NA
ATOM      8  N   UNL     1      33.371 -23.451 -14.491  0.00  0.00    -0.228 NA
ATOM      9  N   UNL     1      32.112 -23.365 -16.580  0.00  0.00    -0.229 NA
ATOM     10  C   UNL     1      34.434 -23.176 -15.261  0.00  0.00    +0.152 C 
ATOM     11  C   UNL     1      36.466 -22.750 -15.990  0.00  0.00    +0.223 C 
ATOM     12  C   UNL     1      34.448 -22.986 -16.633  0.00  0.00    +0.140 C 
ATOM     13  C   UNL     1      33.228 -23.090 -17.296  0.00  0.00    +0.143 C 
ATOM     14  C   UNL     1      32.250 -23.527 -15.242  0.00  0.00    +0.253 C 
ATOM     15  N   UNL     1      33.150 -22.914 -18.688  0.00  0.00    -0.342 N 
ATOM     16  H   UNL     1      32.283 -22.989 -19.146  0.00  0.00    +0.144 HD
ATOM     17  H   UNL     1      33.965 -22.714 -19.206  0.00  0.00    +0.144 HD
ENDBRANCH   4   6
BRANCH   2  18
ATOM     18  O   UNL     1      34.357 -23.612 -12.055  0.00  0.00    -0.378 OA
ATOM     19  H   UNL     1      34.511 -23.453 -11.111  0.00  0.00    +0.211 HD
ENDBRANCH   2  18
BRANCH   3  20
ATOM     20  O   UNL     1      36.675 -23.454 -10.644  0.00  0.00    -0.379 OA
ATOM     21  H   UNL     1      35.781 -23.149 -10.422  0.00  0.00    +0.211 HD
ENDBRANCH   3  20
BRANCH   5  22
ATOM     22  C   UNL     1      38.195 -25.832 -13.069  0.00  0.00    +0.090 C 
BRANCH  22  23
ATOM     23  S   UNL     1      38.320 -25.702 -14.872  0.00  0.00    -0.138 S 
BRANCH  23  24
ATOM     24  C   UNL     1      40.104 -25.432 -14.996  0.00  0.00    +0.058 C 
ATOM     25  C   UNL     1      40.856 -26.452 -14.165  0.00  0.00    +0.013 C 
ENDBRANCH  23  24
ENDBRANCH  22  23
ENDBRANCH   5  22
TORSDOF 6
ENDMDL
MODEL 7
REMARK VINA RESULT:      -7.7      6.362      8.754
REMARK  Name = 10041129
REMARK  6 active torsions:
REMARK  status: ('A' for Active; 'I' for Inactive)
REMARK    1  A    between atoms: C_2  and  O_18
REMARK    2  A    between atoms: C_3  and  O_20
REMARK    3  A    between atoms: C_4  and  N_6
REMARK    4  A    between atoms: C_5  and  C_22
REMARK    5  A    between atoms: C_22  and  S_23
REMARK    6  A    between atoms: S_23  and  C_24
REMARK                            x       y       z     vdW  Elec       q    Type
REMARK                         _______ _______ _______ _____ _____    ______ ____
ROOT
ATOM      1  O   UNL     1      36.014 -22.878 -14.696  0.00  0.00    -0.335 OA
ATOM      2  C   UNL     1      35.968 -25.149 -15.365  0.00  0.00    +0.187 C 
ATOM      3  C   UNL     1      37.359 -24.836 -14.852  0.00  0.00    +0.169 C 
ATOM      4  C   UNL     1      35.153 -24.032 -14.731  0.00  0.00    +0.225 C 
ATOM      5  C   UNL     1      37.381 -23.311 -14.884  0.00  0.00    +0.157 C 
ENDROOT
BRANCH   4   6
ATOM      6  N   UNL     1      33.923 -23.709 -15.452  0.00  0.00    -0.247 N 
ATOM      7  N   UNL     1      32.579 -23.196 -17.157  0.00  0.00    -0.242 NA
ATOM      8  N   UNL     1      32.300 -23.764 -13.646  0.00  0.00    -0.228 NA
ATOM      9  N   UNL     1      30.053 -23.262 -14.456  0.00  0.00    -0.229 NA
ATOM     10  C   UNL     1      32.667 -23.600 -14.926  0.00  0.00    +0.152 C 
ATOM     11  C   UNL     1      33.818 -23.457 -16.796  0.00  0.00    +0.223 C 
ATOM     12  C   UNL     1      31.850 -23.282 -15.998  0.00  0.00    +0.140 C 
ATOM     13  C   UNL     1      30.495 -23.111 -15.728  0.00  0.00    +0.143 C 
ATOM     14  C   UNL     1      30.970 -23.575 -13.508  0.00  0.00    +0.253 C 
ATOM     15  N   UNL     1      29.592 -22.790 -16.756  0.00  0.00    -0.342 N 
ATOM     16  H   UNL     1      28.637 -22.672 -16.554  0.00  0.00    +0.144 HD
ATOM     17  H   UNL     1      29.917 -22.682 -17.680  0.00  0.00    +0.144 HD
ENDBRANCH   4   6
BRANCH   2  18
ATOM     18  O   UNL     1      35.507 -26.426 -14.970  0.00  0.00    -0.378 OA
ATOM     19  H   UNL     1      34.586 -26.539 -15.252  0.00  0.00    +0.211 HD
ENDBRANCH   2  18
BRANCH   3  20
ATOM     20  O   UNL     1      37.477 -25.269 -13.497  0.00  0.00    -0.379 OA
ATOM     21  H   UNL     1      37.868 -24.560 -12.964  0.00  0.00    +0.211 HD
ENDBRANCH   3  20
BRANCH   5  22
ATOM     22  C   UNL     1      37.884 -22.752 -16.209  0.00  0.00    +0.090 C 
BRANCH  22  23
ATOM     23  S   UNL     1      36.807 -21.411 -16.777  0.00  0.00    -0.138 S 
BRANCH  23  24
ATOM     24  C   UNL     1      36.835 -21.779 -18.548  0.00  0.00    +0.058 C 
ATOM     25  C   UNL     1      35.522 -21.385 -19.194  0.00  0.00    +0.013 C 
ENDBRANCH  23  24
ENDBRANCH  22  23
ENDBRANCH   5  22
TORSDOF 6
ENDMDL
MODEL 8
REMARK VINA RESULT:      -7.5      4.430      7.782
REMARK  Name = 10041129
REMARK  6 active torsions:
REMARK  status: ('A' for Active; 'I' for Inactive)
REMARK    1  A    between atoms: C_2  and  O_18
REMARK    2  A    between atoms: C_3  and  O_20
REMARK    3  A    between atoms: C_4  and  N_6
REMARK    4  A    between atoms: C_5  and  C_22
REMARK    5  A    between atoms: C_22  and  S_23
REMARK    6  A    between atoms: S_23  and  C_24
REMARK                            x       y       z     vdW  Elec       q    Type
REMARK                         _______ _______ _______ _____ _____    ______ ____
ROOT
ATOM      1  O   UNL     1      35.446 -17.170 -22.965  0.00  0.00    -0.335 OA
ATOM      2  C   UNL     1      33.694 -16.116 -21.770  0.00  0.00    +0.187 C 
ATOM      3  C   UNL     1      34.377 -17.097 -20.840  0.00  0.00    +0.169 C 
ATOM      4  C   UNL     1      34.766 -15.907 -22.829  0.00  0.00    +0.225 C 
ATOM      5  C   UNL     1      35.143 -17.989 -21.812  0.00  0.00    +0.157 C 
ENDROOT
BRANCH   4   6
ATOM      6  N   UNL     1      34.245 -15.485 -24.128  0.00  0.00    -0.247 N 
ATOM      7  N   UNL     1      33.501 -15.636 -26.225  0.00  0.00    -0.242 NA
ATOM      8  N   UNL     1      34.089 -13.083 -23.804  0.00  0.00    -0.228 NA
ATOM      9  N   UNL     1      33.236 -11.971 -25.802  0.00  0.00    -0.229 NA
ATOM     10  C   UNL     1      33.957 -14.209 -24.521  0.00  0.00    +0.152 C 
ATOM     11  C   UNL     1      33.955 -16.306 -25.188  0.00  0.00    +0.223 C 
ATOM     12  C   UNL     1      33.496 -14.324 -25.823  0.00  0.00    +0.140 C 
ATOM     13  C   UNL     1      33.128 -13.146 -26.467  0.00  0.00    +0.143 C 
ATOM     14  C   UNL     1      33.703 -12.012 -24.531  0.00  0.00    +0.253 C 
ATOM     15  N   UNL     1      32.648 -13.170 -27.787  0.00  0.00    -0.342 N 
ATOM     16  H   UNL     1      32.390 -12.332 -28.233  0.00  0.00    +0.144 HD
ATOM     17  H   UNL     1      32.569 -14.027 -28.268  0.00  0.00    +0.144 HD
ENDBRANCH   4   6
BRANCH   2  18
ATOM     18  O   UNL     1      33.340 -14.904 -21.133  0.00  0.00    -0.378 OA
ATOM     19  H   UNL     1      32.518 -14.565 -21.520  0.00  0.00    +0.211 HD
ENDBRANCH   2  18
BRANCH   3  20
ATOM     20  O   UNL     1      35.314 -16.402 -20.017  0.00  0.00    -0.379 OA
ATOM     21  H   UNL     1      35.436 -16.887 -19.186  0.00  0.00    +0.211 HD
ENDBRANCH   3  20
BRANCH   5  22
ATOM     22  C   UNL     1      34.333 -19.192 -22.277  0.00  0.00    +0.090 C 
BRANCH  22  23
ATOM     23  S   UNL     1      33.342 -19.852 -20.911  0.00  0.00    -0.138 S 
BRANCH  23  24
ATOM     24  C   UNL     1      34.636 -20.802 -20.078  0.00  0.00    +0.058 C 
ATOM     25  C   UNL     1      34.029 -21.918 -19.252  0.00  0.00    +0.013 C 
ENDBRANCH  23  24
ENDBRANCH  22  23
ENDBRANCH   5  22
TORSDOF 6
ENDMDL
MODEL 9
REMARK VINA RESULT:      -7.5      5.712      8.978
REMARK  Name = 10041129
REMARK  6 active torsions:
REMARK  status: ('A' for Active; 'I' for Inactive)
REMARK    1  A    between atoms: C_2  and  O_18
REMARK    2  A    between atoms: C_3  and  O_20
REMARK    3  A    between atoms: C_4  and  N_6
REMARK    4  A    between atoms: C_5  and  C_22
REMARK    5  A    between atoms: C_22  and  S_23
REMARK    6  A    between atoms: S_23  and  C_24
REMARK                            x       y       z     vdW  Elec       q    Type
REMARK                         _______ _______ _______ _____ _____    ______ ____
ROOT
ATOM      1  O   UNL     1      32.260 -14.449 -22.146  0.00  0.00    -0.335 OA
ATOM      2  C   UNL     1      33.686 -13.107 -23.477  0.00  0.00    +0.187 C 
ATOM      3  C   UNL     1      33.858 -14.550 -23.907  0.00  0.00    +0.169 C 
ATOM      4  C   UNL     1      32.335 -13.158 -22.780  0.00  0.00    +0.225 C 
ATOM      5  C   UNL     1      33.262 -15.314 -22.729  0.00  0.00    +0.157 C 
ENDROOT
BRANCH   4   6
ATOM      6  N   UNL     1      32.140 -12.107 -21.783  0.00  0.00    -0.247 N 
ATOM      7  N   UNL     1      31.744 -11.158 -19.804  0.00  0.00    -0.242 NA
ATOM      8  N   UNL     1      32.431 -10.118 -23.147  0.00  0.00    -0.228 NA
ATOM      9  N   UNL     1      32.175  -8.086 -21.819  0.00  0.00    -0.229 NA
ATOM     10  C   UNL     1      32.192 -10.758 -21.992  0.00  0.00    +0.152 C 
ATOM     11  C   UNL     1      31.867 -12.296 -20.453  0.00  0.00    +0.223 C 
ATOM     12  C   UNL     1      31.945 -10.188 -20.754  0.00  0.00    +0.140 C 
ATOM     13  C   UNL     1      31.941  -8.797 -20.690  0.00  0.00    +0.143 C 
ATOM     14  C   UNL     1      32.402  -8.780 -22.960  0.00  0.00    +0.253 C 
ATOM     15  N   UNL     1      31.701  -8.135 -19.474  0.00  0.00    -0.342 N 
ATOM     16  H   UNL     1      31.701  -7.151 -19.440  0.00  0.00    +0.144 HD
ATOM     17  H   UNL     1      31.532  -8.655 -18.655  0.00  0.00    +0.144 HD
ENDBRANCH   4   6
BRANCH   2  18
ATOM     18  O   UNL     1      33.685 -12.202 -24.563  0.00  0.00    -0.378 OA
ATOM     19  H   UNL     1      33.738 -12.697 -25.396  0.00  0.00    +0.211 HD
ENDBRANCH   2  18
BRANCH   3  20
ATOM     20  O   UNL     1      33.063 -14.800 -25.066  0.00  0.00    -0.379 OA
ATOM     21  H   UNL     1      33.476 -14.381 -25.838  0.00  0.00    +0.211 HD
ENDBRANCH   3  20
BRANCH   5  22
ATOM     22  C   UNL     1      34.291 -15.648 -21.657  0.00  0.00    +0.090 C 
BRANCH  22  23
ATOM     23  S   UNL     1      34.443 -17.443 -21.465  0.00  0.00    -0.138 S 
BRANCH  23  24
ATOM     24  C   UNL     1      35.411 -17.788 -22.953  0.00  0.00    +0.058 C 
ATOM     25  C   UNL     1      34.902 -19.040 -23.641  0.00  0.00    +0.013 C 
ENDBRANCH  23  24
ENDBRANCH  22  23
ENDBRANCH   5  22
TORSDOF 6
ENDMDL
