MODEL 1
REMARK VINA RESULT:      -8.5      0.000      0.000
REMARK  Name = 2206
REMARK  1 active torsions:
REMARK  status: ('A' for Active; 'I' for Inactive)
REMARK    1  A    between atoms: N_2  and  C_9
REMARK                            x       y       z     vdW  Elec       q    Type
REMARK                         _______ _______ _______ _____ _____    ______ ____
ROOT
ATOM      1  O   UNL     1      35.240 -16.509 -20.284  0.00  0.00    -0.268 OA
ATOM      2  N   UNL     1      34.750 -18.237 -21.847  0.00  0.00    -0.182 N 
ATOM      3  N   UNL     1      34.510 -18.186 -23.231  0.00  0.00    -0.233 N 
ATOM      4  C   UNL     1      34.498 -16.843 -23.591  0.00  0.00    +0.048 C 
ATOM      5  C   UNL     1      34.992 -16.935 -21.401  0.00  0.00    +0.270 C 
ATOM      6  C   UNL     1      34.790 -16.035 -22.564  0.00  0.00    +0.071 C 
ATOM      7  C   UNL     1      35.143 -19.185 -24.086  0.00  0.00    +0.136 C 
ATOM      8  C   UNL     1      34.239 -16.401 -24.990  0.00  0.00    +0.049 C 
ENDROOT
BRANCH   2   9
ATOM      9  C   UNL     1      34.454 -19.366 -21.044  0.00  0.00    +0.073 C 
ATOM     10  C   UNL     1      35.488 -20.159 -20.535  0.00  0.00    +0.017 C 
ATOM     11  C   UNL     1      33.126 -19.696 -20.754  0.00  0.00    +0.017 C 
ATOM     12  C   UNL     1      35.196 -21.270 -19.743  0.00  0.00    +0.001 C 
ATOM     13  C   UNL     1      32.834 -20.807 -19.962  0.00  0.00    +0.001 C 
ATOM     14  C   UNL     1      33.870 -21.594 -19.457  0.00  0.00    +0.000 C 
ENDBRANCH   2   9
TORSDOF 1
ENDMDL
MODEL 2
REMARK VINA RESULT:      -8.5      0.016      1.292
REMARK  Name = 2206
REMARK  1 active torsions:
REMARK  status: ('A' for Active; 'I' for Inactive)
REMARK    1  A    between atoms: N_2  and  C_9
REMARK                            x       y       z     vdW  Elec       q    Type
REMARK                         _______ _______ _______ _____ _____    ______ ____
ROOT
ATOM      1  O   UNL     1      35.255 -16.507 -20.271  0.00  0.00    -0.268 OA
ATOM      2  N   UNL     1      34.758 -18.230 -21.837  0.00  0.00    -0.182 N 
ATOM      3  N   UNL     1      34.514 -18.176 -23.219  0.00  0.00    -0.233 N 
ATOM      4  C   UNL     1      34.502 -16.831 -23.576  0.00  0.00    +0.048 C 
ATOM      5  C   UNL     1      35.003 -16.929 -21.388  0.00  0.00    +0.270 C 
ATOM      6  C   UNL     1      34.799 -16.026 -22.548  0.00  0.00    +0.071 C 
ATOM      7  C   UNL     1      35.143 -19.174 -24.079  0.00  0.00    +0.136 C 
ATOM      8  C   UNL     1      34.240 -16.386 -24.973  0.00  0.00    +0.049 C 
ENDROOT
BRANCH   2   9
ATOM      9  C   UNL     1      34.462 -19.361 -21.035  0.00  0.00    +0.073 C 
ATOM     10  C   UNL     1      33.135 -19.688 -20.742  0.00  0.00    +0.017 C 
ATOM     11  C   UNL     1      35.496 -20.158 -20.532  0.00  0.00    +0.017 C 
ATOM     12  C   UNL     1      32.843 -20.802 -19.954  0.00  0.00    +0.001 C 
ATOM     13  C   UNL     1      35.204 -21.271 -19.744  0.00  0.00    +0.001 C 
ATOM     14  C   UNL     1      33.878 -21.593 -19.454  0.00  0.00    +0.000 C 
ENDBRANCH   2   9
TORSDOF 1
ENDMDL
MODEL 3
REMARK VINA RESULT:      -8.0      1.462      4.870
REMARK  Name = 2206
REMARK  1 active torsions:
REMARK  status: ('A' for Active; 'I' for Inactive)
REMARK    1  A    between atoms: N_2  and  C_9
REMARK                            x       y       z     vdW  Elec       q    Type
REMARK                         _______ _______ _______ _____ _____    ______ ____
ROOT
ATOM      1  O   UNL     1      37.342 -19.319 -20.691  0.00  0.00    -0.268 OA
ATOM      2  N   UNL     1      35.037 -19.445 -21.274  0.00  0.00    -0.182 N 
ATOM      3  N   UNL     1      34.010 -20.277 -20.796  0.00  0.00    -0.233 N 
ATOM      4  C   UNL     1      34.597 -21.179 -19.915  0.00  0.00    +0.048 C 
ATOM      5  C   UNL     1      36.214 -19.776 -20.596  0.00  0.00    +0.270 C 
ATOM      6  C   UNL     1      35.901 -20.940 -19.730  0.00  0.00    +0.071 C 
ATOM      7  C   UNL     1      32.709 -19.683 -20.504  0.00  0.00    +0.136 C 
ATOM      8  C   UNL     1      33.809 -22.243 -19.230  0.00  0.00    +0.049 C 
ENDROOT
BRANCH   2   9
ATOM      9  C   UNL     1      34.929 -18.673 -22.458  0.00  0.00    +0.073 C 
ATOM     10  C   UNL     1      34.728 -19.301 -23.691  0.00  0.00    +0.017 C 
ATOM     11  C   UNL     1      35.023 -17.278 -22.401  0.00  0.00    +0.017 C 
ATOM     12  C   UNL     1      34.621 -18.541 -24.857  0.00  0.00    +0.001 C 
ATOM     13  C   UNL     1      34.916 -16.519 -23.565  0.00  0.00    +0.001 C 
ATOM     14  C   UNL     1      34.716 -17.150 -24.794  0.00  0.00    +0.000 C 
ENDBRANCH   2   9
TORSDOF 1
ENDMDL
MODEL 4
REMARK VINA RESULT:      -7.8      1.656      2.612
REMARK  Name = 2206
REMARK  1 active torsions:
REMARK  status: ('A' for Active; 'I' for Inactive)
REMARK    1  A    between atoms: N_2  and  C_9
REMARK                            x       y       z     vdW  Elec       q    Type
REMARK                         _______ _______ _______ _____ _____    ______ ____
ROOT
ATOM      1  O   UNL     1      34.746 -19.387 -24.416  0.00  0.00    -0.268 OA
ATOM      2  N   UNL     1      34.531 -18.281 -22.318  0.00  0.00    -0.182 N 
ATOM      3  N   UNL     1      34.429 -16.916 -22.002  0.00  0.00    -0.233 N 
ATOM      4  C   UNL     1      34.584 -16.213 -23.192  0.00  0.00    +0.048 C 
ATOM      5  C   UNL     1      34.635 -18.399 -23.706  0.00  0.00    +0.270 C 
ATOM      6  C   UNL     1      34.697 -17.021 -24.254  0.00  0.00    +0.071 C 
ATOM      7  C   UNL     1      33.443 -16.501 -21.010  0.00  0.00    +0.136 C 
ATOM      8  C   UNL     1      34.563 -14.724 -23.240  0.00  0.00    +0.049 C 
ENDROOT
BRANCH   2   9
ATOM      9  C   UNL     1      34.817 -19.286 -21.358  0.00  0.00    +0.073 C 
ATOM     10  C   UNL     1      33.784 -20.057 -20.818  0.00  0.00    +0.017 C 
ATOM     11  C   UNL     1      36.135 -19.512 -20.946  0.00  0.00    +0.017 C 
ATOM     12  C   UNL     1      34.064 -21.047 -19.875  0.00  0.00    +0.001 C 
ATOM     13  C   UNL     1      36.415 -20.501 -20.004  0.00  0.00    +0.001 C 
ATOM     14  C   UNL     1      35.380 -21.268 -19.468  0.00  0.00    +0.000 C 
ENDBRANCH   2   9
TORSDOF 1
ENDMDL
MODEL 5
REMARK VINA RESULT:      -7.2      8.758     11.535
REMARK  Name = 2206
REMARK  1 active torsions:
REMARK  status: ('A' for Active; 'I' for Inactive)
REMARK    1  A    between atoms: N_2  and  C_9
REMARK                            x       y       z     vdW  Elec       q    Type
REMARK                         _______ _______ _______ _____ _____    ______ ____
ROOT
ATOM      1  O   UNL     1      32.692  -6.908 -19.721  0.00  0.00    -0.268 OA
ATOM      2  N   UNL     1      32.353  -8.393 -21.551  0.00  0.00    -0.182 N 
ATOM      3  N   UNL     1      31.983  -9.748 -21.581  0.00  0.00    -0.233 N 
ATOM      4  C   UNL     1      31.931 -10.183 -20.261  0.00  0.00    +0.048 C 
ATOM      5  C   UNL     1      32.412  -7.988 -20.214  0.00  0.00    +0.270 C 
ATOM      6  C   UNL     1      32.158  -9.194 -19.387  0.00  0.00    +0.071 C 
ATOM      7  C   UNL     1      30.981 -10.177 -22.551  0.00  0.00    +0.136 C 
ATOM      8  C   UNL     1      31.597 -11.590 -19.904  0.00  0.00    +0.049 C 
ENDROOT
BRANCH   2   9
ATOM      9  C   UNL     1      32.887  -7.704 -22.669  0.00  0.00    +0.073 C 
ATOM     10  C   UNL     1      32.120  -6.744 -23.337  0.00  0.00    +0.017 C 
ATOM     11  C   UNL     1      34.186  -7.978 -23.111  0.00  0.00    +0.017 C 
ATOM     12  C   UNL     1      32.646  -6.065 -24.436  0.00  0.00    +0.001 C 
ATOM     13  C   UNL     1      34.712  -7.300 -24.209  0.00  0.00    +0.001 C 
ATOM     14  C   UNL     1      33.942  -6.343 -24.873  0.00  0.00    +0.000 C 
ENDBRANCH   2   9
TORSDOF 1
ENDMDL
MODEL 6
REMARK VINA RESULT:      -7.1      1.949      5.086
REMARK  Name = 2206
REMARK  1 active torsions:
REMARK  status: ('A' for Active; 'I' for Inactive)
REMARK    1  A    between atoms: N_2  and  C_9
REMARK                            x       y       z     vdW  Elec       q    Type
REMARK                         _______ _______ _______ _____ _____    ______ ____
ROOT
ATOM      1  O   UNL     1      32.220 -20.532 -20.933  0.00  0.00    -0.268 OA
ATOM      2  N   UNL     1      34.564 -20.122 -20.830  0.00  0.00    -0.182 N 
ATOM      3  N   UNL     1      35.554 -20.646 -19.982  0.00  0.00    -0.233 N 
ATOM      4  C   UNL     1      34.905 -21.447 -19.048  0.00  0.00    +0.048 C 
ATOM      5  C   UNL     1      33.340 -20.695 -20.474  0.00  0.00    +0.270 C 
ATOM      6  C   UNL     1      33.590 -21.540 -19.279  0.00  0.00    +0.071 C 
ATOM      7  C   UNL     1      36.826 -21.057 -20.567  0.00  0.00    +0.136 C 
ATOM      8  C   UNL     1      35.642 -22.150 -17.961  0.00  0.00    +0.049 C 
ENDROOT
BRANCH   2   9
ATOM      9  C   UNL     1      34.758 -18.978 -21.645  0.00  0.00    +0.073 C 
ATOM     10  C   UNL     1      34.900 -19.117 -23.029  0.00  0.00    +0.017 C 
ATOM     11  C   UNL     1      34.807 -17.704 -21.071  0.00  0.00    +0.017 C 
ATOM     12  C   UNL     1      35.091 -17.992 -23.833  0.00  0.00    +0.001 C 
ATOM     13  C   UNL     1      34.997 -16.579 -21.874  0.00  0.00    +0.001 C 
ATOM     14  C   UNL     1      35.140 -16.723 -23.255  0.00  0.00    +0.000 C 
ENDBRANCH   2   9
TORSDOF 1
ENDMDL
MODEL 7
REMARK VINA RESULT:      -7.1      2.982      5.791
REMARK  Name = 2206
REMARK  1 active torsions:
REMARK  status: ('A' for Active; 'I' for Inactive)
REMARK    1  A    between atoms: N_2  and  C_9
REMARK                            x       y       z     vdW  Elec       q    Type
REMARK                         _______ _______ _______ _____ _____    ______ ____
ROOT
ATOM      1  O   UNL     1      33.980 -15.736 -26.252  0.00  0.00    -0.268 OA
ATOM      2  N   UNL     1      34.148 -15.882 -23.881  0.00  0.00    -0.182 N 
ATOM      3  N   UNL     1      34.469 -16.965 -23.045  0.00  0.00    -0.233 N 
ATOM      4  C   UNL     1      34.593 -18.084 -23.862  0.00  0.00    +0.048 C 
ATOM      5  C   UNL     1      34.191 -16.328 -25.205  0.00  0.00    +0.270 C 
ATOM      6  C   UNL     1      34.457 -17.788 -25.161  0.00  0.00    +0.071 C 
ATOM      7  C   UNL     1      35.389 -16.742 -21.935  0.00  0.00    +0.136 C 
ATOM      8  C   UNL     1      34.902 -19.434 -23.313  0.00  0.00    +0.049 C 
ENDROOT
BRANCH   2   9
ATOM      9  C   UNL     1      33.564 -14.679 -23.411  0.00  0.00    +0.073 C 
ATOM     10  C   UNL     1      33.843 -13.466 -24.049  0.00  0.00    +0.017 C 
ATOM     11  C   UNL     1      32.705 -14.696 -22.307  0.00  0.00    +0.017 C 
ATOM     12  C   UNL     1      33.267 -12.281 -23.588  0.00  0.00    +0.001 C 
ATOM     13  C   UNL     1      32.130 -13.512 -21.846  0.00  0.00    +0.001 C 
ATOM     14  C   UNL     1      32.412 -12.304 -22.486  0.00  0.00    +0.000 C 
ENDBRANCH   2   9
TORSDOF 1
ENDMDL
MODEL 8
REMARK VINA RESULT:      -7.0      1.701      4.898
REMARK  Name = 2206
REMARK  1 active torsions:
REMARK  status: ('A' for Active; 'I' for Inactive)
REMARK    1  A    between atoms: N_2  and  C_9
REMARK                            x       y       z     vdW  Elec       q    Type
REMARK                         _______ _______ _______ _____ _____    ______ ____
ROOT
ATOM      1  O   UNL     1      32.610 -19.425 -21.180  0.00  0.00    -0.268 OA
ATOM      2  N   UNL     1      34.842 -18.597 -21.220  0.00  0.00    -0.182 N 
ATOM      3  N   UNL     1      36.043 -19.164 -20.763  0.00  0.00    -0.233 N 
ATOM      4  C   UNL     1      35.713 -20.356 -20.128  0.00  0.00    +0.048 C 
ATOM      5  C   UNL     1      33.808 -19.500 -20.959  0.00  0.00    +0.270 C 
ATOM      6  C   UNL     1      34.406 -20.636 -20.213  0.00  0.00    +0.071 C 
ATOM      7  C   UNL     1      37.227 -19.070 -21.612  0.00  0.00    +0.136 C 
ATOM      8  C   UNL     1      36.741 -21.223 -19.488  0.00  0.00    +0.049 C 
ENDROOT
BRANCH   2   9
ATOM      9  C   UNL     1      34.704 -17.227 -21.560  0.00  0.00    +0.073 C 
ATOM     10  C   UNL     1      34.670 -16.835 -22.902  0.00  0.00    +0.017 C 
ATOM     11  C   UNL     1      34.600 -16.259 -20.556  0.00  0.00    +0.017 C 
ATOM     12  C   UNL     1      34.533 -15.487 -23.237  0.00  0.00    +0.001 C 
ATOM     13  C   UNL     1      34.463 -14.912 -20.890  0.00  0.00    +0.001 C 
ATOM     14  C   UNL     1      34.430 -14.526 -22.231  0.00  0.00    +0.000 C 
ENDBRANCH   2   9
TORSDOF 1
ENDMDL
MODEL 9
REMARK VINA RESULT:      -7.0      2.922      6.456
REMARK  Name = 2206
REMARK  1 active torsions:
REMARK  status: ('A' for Active; 'I' for Inactive)
REMARK    1  A    between atoms: N_2  and  C_9
REMARK                            x       y       z     vdW  Elec       q    Type
REMARK                         _______ _______ _______ _____ _____    ______ ____
ROOT
ATOM      1  O   UNL     1      31.929 -14.157 -21.750  0.00  0.00    -0.268 OA
ATOM      2  N   UNL     1      33.510 -15.067 -23.280  0.00  0.00    -0.182 N 
ATOM      3  N   UNL     1      34.465 -16.085 -23.122  0.00  0.00    -0.233 N 
ATOM      4  C   UNL     1      34.431 -16.467 -21.784  0.00  0.00    +0.048 C 
ATOM      5  C   UNL     1      32.829 -14.918 -22.069  0.00  0.00    +0.270 C 
ATOM      6  C   UNL     1      33.476 -15.832 -21.094  0.00  0.00    +0.071 C 
ATOM      7  C   UNL     1      34.610 -17.078 -24.181  0.00  0.00    +0.136 C 
ATOM      8  C   UNL     1      35.339 -17.515 -21.238  0.00  0.00    +0.049 C 
ENDROOT
BRANCH   2   9
ATOM      9  C   UNL     1      33.509 -14.160 -24.370  0.00  0.00    +0.073 C 
ATOM     10  C   UNL     1      33.907 -12.832 -24.181  0.00  0.00    +0.017 C 
ATOM     11  C   UNL     1      33.112 -14.586 -25.642  0.00  0.00    +0.017 C 
ATOM     12  C   UNL     1      33.907 -11.939 -25.253  0.00  0.00    +0.001 C 
ATOM     13  C   UNL     1      33.112 -13.693 -26.713  0.00  0.00    +0.001 C 
ATOM     14  C   UNL     1      33.509 -12.369 -26.519  0.00  0.00    +0.000 C 
ENDBRANCH   2   9
TORSDOF 1
ENDMDL
