MODEL 1
REMARK VINA RESULT:      -5.6      0.000      0.000
REMARK  Name = 5289037
REMARK  5 active torsions:
REMARK  status: ('A' for Active; 'I' for Inactive)
REMARK    1  A    between atoms: C_1  and  N_4
REMARK    2  A    between atoms: C_1  and  C_7
REMARK    3  A    between atoms: C_7  and  C_8
REMARK    4  A    between atoms: C_8  and  C_9
REMARK    5  A    between atoms: C_9  and  C_10
REMARK                            x       y       z     vdW  Elec       q    Type
REMARK                         _______ _______ _______ _____ _____    ______ ____
ROOT
ATOM      1  C   UNL     1      35.580 -18.492 -23.052  0.00  0.00    +0.072 C 
ATOM      2  C   UNL     1      36.627 -18.479 -21.944  0.00  0.00    +0.021 C 
ENDROOT
BRANCH   1   4
ATOM      3  O   UNL     1      34.591 -17.640 -25.679  0.00  0.00    -0.265 OA
ATOM      4  N   UNL     1      35.352 -17.146 -23.524  0.00  0.00    -0.299 N 
ATOM      5  C   UNL     1      34.881 -16.856 -24.786  0.00  0.00    +0.299 C 
ATOM      6  H   UNL     1      35.542 -16.399 -22.912  0.00  0.00    +0.150 HD
ENDBRANCH   1   4
BRANCH   1   7
ATOM      7  C   UNL     1      34.276 -19.140 -22.564  0.00  0.00    +0.020 C 
BRANCH   7   8
ATOM      8  C   UNL     1      34.217 -19.266 -21.037  0.00  0.00    +0.002 C 
BRANCH   8   9
ATOM      9  C   UNL     1      33.043 -20.147 -20.600  0.00  0.00    +0.000 C 
BRANCH   9  10
ATOM     10  C   UNL     1      33.445 -21.250 -19.619  0.00  0.00    +0.000 C 
ATOM     11  C   UNL     1      34.946 -21.480 -19.545  0.00  0.00    +0.000 C 
ENDBRANCH   9  10
ENDBRANCH   8   9
ENDBRANCH   7   8
ENDBRANCH   1   7
TORSDOF 5
ENDMDL
MODEL 2
REMARK VINA RESULT:      -5.4      1.578      1.941
REMARK  Name = 5289037
REMARK  5 active torsions:
REMARK  status: ('A' for Active; 'I' for Inactive)
REMARK    1  A    between atoms: C_1  and  N_4
REMARK    2  A    between atoms: C_1  and  C_7
REMARK    3  A    between atoms: C_7  and  C_8
REMARK    4  A    between atoms: C_8  and  C_9
REMARK    5  A    between atoms: C_9  and  C_10
REMARK                            x       y       z     vdW  Elec       q    Type
REMARK                         _______ _______ _______ _____ _____    ______ ____
ROOT
ATOM      1  C   UNL     1      34.772 -17.800 -23.375  0.00  0.00    +0.072 C 
ATOM      2  C   UNL     1      34.552 -18.409 -24.755  0.00  0.00    +0.021 C 
ENDROOT
BRANCH   1   4
ATOM      3  O   UNL     1      33.451 -15.197 -23.082  0.00  0.00    -0.265 OA
ATOM      4  N   UNL     1      35.355 -16.485 -23.509  0.00  0.00    -0.299 N 
ATOM      5  C   UNL     1      34.639 -15.319 -23.349  0.00  0.00    +0.299 C 
ATOM      6  H   UNL     1      36.313 -16.420 -23.725  0.00  0.00    +0.150 HD
ENDBRANCH   1   4
BRANCH   1   7
ATOM      7  C   UNL     1      35.650 -18.713 -22.508  0.00  0.00    +0.020 C 
BRANCH   7   8
ATOM      8  C   UNL     1      35.058 -18.950 -21.113  0.00  0.00    +0.002 C 
BRANCH   8   9
ATOM      9  C   UNL     1      33.602 -19.412 -21.202  0.00  0.00    +0.000 C 
BRANCH   9  10
ATOM     10  C   UNL     1      33.257 -20.527 -20.212  0.00  0.00    +0.000 C 
ATOM     11  C   UNL     1      34.475 -21.268 -19.684  0.00  0.00    +0.000 C 
ENDBRANCH   9  10
ENDBRANCH   8   9
ENDBRANCH   7   8
ENDBRANCH   1   7
TORSDOF 5
ENDMDL
MODEL 3
REMARK VINA RESULT:      -5.4      3.009      5.195
REMARK  Name = 5289037
REMARK  5 active torsions:
REMARK  status: ('A' for Active; 'I' for Inactive)
REMARK    1  A    between atoms: C_1  and  N_4
REMARK    2  A    between atoms: C_1  and  C_7
REMARK    3  A    between atoms: C_7  and  C_8
REMARK    4  A    between atoms: C_8  and  C_9
REMARK    5  A    between atoms: C_9  and  C_10
REMARK                            x       y       z     vdW  Elec       q    Type
REMARK                         _______ _______ _______ _____ _____    ______ ____
ROOT
ATOM      1  C   UNL     1      34.436 -20.019 -20.931  0.00  0.00    +0.072 C 
ATOM      2  C   UNL     1      33.061 -20.275 -20.324  0.00  0.00    +0.021 C 
ENDROOT
BRANCH   1   4
ATOM      3  O   UNL     1      35.127 -22.563 -19.643  0.00  0.00    -0.265 OA
ATOM      4  N   UNL     1      35.460 -20.268 -19.941  0.00  0.00    -0.299 N 
ATOM      5  C   UNL     1      35.702 -21.510 -19.399  0.00  0.00    +0.299 C 
ATOM      6  H   UNL     1      36.011 -19.511 -19.641  0.00  0.00    +0.150 HD
ENDBRANCH   1   4
BRANCH   1   7
ATOM      7  C   UNL     1      34.531 -18.591 -21.484  0.00  0.00    +0.020 C 
BRANCH   7   8
ATOM      8  C   UNL     1      35.461 -18.490 -22.700  0.00  0.00    +0.002 C 
BRANCH   8   9
ATOM      9  C   UNL     1      34.926 -19.312 -23.875  0.00  0.00    +0.000 C 
BRANCH   9  10
ATOM     10  C   UNL     1      34.320 -18.456 -24.989  0.00  0.00    +0.000 C 
ATOM     11  C   UNL     1      34.794 -17.012 -24.971  0.00  0.00    +0.000 C 
ENDBRANCH   9  10
ENDBRANCH   8   9
ENDBRANCH   7   8
ENDBRANCH   1   7
TORSDOF 5
ENDMDL
MODEL 4
REMARK VINA RESULT:      -5.3      1.353      2.088
REMARK  Name = 5289037
REMARK  5 active torsions:
REMARK  status: ('A' for Active; 'I' for Inactive)
REMARK    1  A    between atoms: C_1  and  N_4
REMARK    2  A    between atoms: C_1  and  C_7
REMARK    3  A    between atoms: C_7  and  C_8
REMARK    4  A    between atoms: C_8  and  C_9
REMARK    5  A    between atoms: C_9  and  C_10
REMARK                            x       y       z     vdW  Elec       q    Type
REMARK                         _______ _______ _______ _____ _____    ______ ____
ROOT
ATOM      1  C   UNL     1      35.109 -16.839 -22.856  0.00  0.00    +0.072 C 
ATOM      2  C   UNL     1      34.187 -15.625 -22.809  0.00  0.00    +0.021 C 
ENDROOT
BRANCH   1   4
ATOM      3  O   UNL     1      34.960 -16.694 -25.783  0.00  0.00    -0.265 OA
ATOM      4  N   UNL     1      34.574 -17.822 -23.771  0.00  0.00    -0.299 N 
ATOM      5  C   UNL     1      34.554 -17.652 -25.138  0.00  0.00    +0.299 C 
ATOM      6  H   UNL     1      34.207 -18.655 -23.397  0.00  0.00    +0.150 HD
ENDBRANCH   1   4
BRANCH   1   7
ATOM      7  C   UNL     1      35.304 -17.431 -21.454  0.00  0.00    +0.020 C 
BRANCH   7   8
ATOM      8  C   UNL     1      36.106 -18.738 -21.471  0.00  0.00    +0.002 C 
BRANCH   8   9
ATOM      9  C   UNL     1      35.379 -19.843 -20.702  0.00  0.00    +0.000 C 
BRANCH   9  10
ATOM     10  C   UNL     1      33.860 -19.809 -20.880  0.00  0.00    +0.000 C 
ATOM     11  C   UNL     1      33.114 -20.712 -19.911  0.00  0.00    +0.000 C 
ENDBRANCH   9  10
ENDBRANCH   8   9
ENDBRANCH   7   8
ENDBRANCH   1   7
TORSDOF 5
ENDMDL
MODEL 5
REMARK VINA RESULT:      -5.3      1.972      2.078
REMARK  Name = 5289037
REMARK  5 active torsions:
REMARK  status: ('A' for Active; 'I' for Inactive)
REMARK    1  A    between atoms: C_1  and  N_4
REMARK    2  A    between atoms: C_1  and  C_7
REMARK    3  A    between atoms: C_7  and  C_8
REMARK    4  A    between atoms: C_8  and  C_9
REMARK    5  A    between atoms: C_9  and  C_10
REMARK                            x       y       z     vdW  Elec       q    Type
REMARK                         _______ _______ _______ _____ _____    ______ ____
ROOT
ATOM      1  C   UNL     1      35.722 -18.719 -21.471  0.00  0.00    +0.072 C 
ATOM      2  C   UNL     1      36.885 -19.327 -20.695  0.00  0.00    +0.021 C 
ENDROOT
BRANCH   1   4
ATOM      3  O   UNL     1      35.047 -16.100 -22.607  0.00  0.00    -0.265 OA
ATOM      4  N   UNL     1      35.233 -17.548 -20.781  0.00  0.00    -0.299 N 
ATOM      5  C   UNL     1      34.945 -16.360 -21.415  0.00  0.00    +0.299 C 
ATOM      6  H   UNL     1      35.099 -17.603 -19.807  0.00  0.00    +0.150 HD
ENDBRANCH   1   4
BRANCH   1   7
ATOM      7  C   UNL     1      34.604 -19.752 -21.677  0.00  0.00    +0.020 C 
BRANCH   7   8
ATOM      8  C   UNL     1      33.348 -19.432 -20.857  0.00  0.00    +0.002 C 
BRANCH   8   9
ATOM      9  C   UNL     1      32.919 -20.634 -20.011  0.00  0.00    +0.000 C 
BRANCH   9  10
ATOM     10  C   UNL     1      34.094 -21.493 -19.539  0.00  0.00    +0.000 C 
ATOM     11  C   UNL     1      33.696 -22.566 -18.537  0.00  0.00    +0.000 C 
ENDBRANCH   9  10
ENDBRANCH   8   9
ENDBRANCH   7   8
ENDBRANCH   1   7
TORSDOF 5
ENDMDL
MODEL 6
REMARK VINA RESULT:      -5.3      3.601      5.161
REMARK  Name = 5289037
REMARK  5 active torsions:
REMARK  status: ('A' for Active; 'I' for Inactive)
REMARK    1  A    between atoms: C_1  and  N_4
REMARK    2  A    between atoms: C_1  and  C_7
REMARK    3  A    between atoms: C_7  and  C_8
REMARK    4  A    between atoms: C_8  and  C_9
REMARK    5  A    between atoms: C_9  and  C_10
REMARK                            x       y       z     vdW  Elec       q    Type
REMARK                         _______ _______ _______ _____ _____    ______ ____
ROOT
ATOM      1  C   UNL     1      34.198 -20.133 -20.973  0.00  0.00    +0.072 C 
ATOM      2  C   UNL     1      32.837 -20.042 -20.290  0.00  0.00    +0.021 C 
ENDROOT
BRANCH   1   4
ATOM      3  O   UNL     1      35.011 -22.563 -19.546  0.00  0.00    -0.265 OA
ATOM      4  N   UNL     1      35.235 -20.276 -19.977  0.00  0.00    -0.299 N 
ATOM      5  C   UNL     1      35.537 -21.473 -19.366  0.00  0.00    +0.299 C 
ATOM      6  H   UNL     1      35.751 -19.478 -19.724  0.00  0.00    +0.150 HD
ENDBRANCH   1   4
BRANCH   1   7
ATOM      7  C   UNL     1      34.445 -18.907 -21.863  0.00  0.00    +0.020 C 
BRANCH   7   8
ATOM      8  C   UNL     1      35.219 -17.799 -21.138  0.00  0.00    +0.002 C 
BRANCH   8   9
ATOM      9  C   UNL     1      34.830 -16.416 -21.667  0.00  0.00    +0.000 C 
BRANCH   9  10
ATOM     10  C   UNL     1      34.390 -15.447 -20.567  0.00  0.00    +0.000 C 
ATOM     11  C   UNL     1      32.894 -15.181 -20.555  0.00  0.00    +0.000 C 
ENDBRANCH   9  10
ENDBRANCH   8   9
ENDBRANCH   7   8
ENDBRANCH   1   7
TORSDOF 5
ENDMDL
MODEL 7
REMARK VINA RESULT:      -5.3      2.528      4.715
REMARK  Name = 5289037
REMARK  5 active torsions:
REMARK  status: ('A' for Active; 'I' for Inactive)
REMARK    1  A    between atoms: C_1  and  N_4
REMARK    2  A    between atoms: C_1  and  C_7
REMARK    3  A    between atoms: C_7  and  C_8
REMARK    4  A    between atoms: C_8  and  C_9
REMARK    5  A    between atoms: C_9  and  C_10
REMARK                            x       y       z     vdW  Elec       q    Type
REMARK                         _______ _______ _______ _____ _____    ______ ____
ROOT
ATOM      1  C   UNL     1      34.822 -18.025 -21.365  0.00  0.00    +0.072 C 
ATOM      2  C   UNL     1      34.132 -19.336 -21.006  0.00  0.00    +0.021 C 
ENDROOT
BRANCH   1   4
ATOM      3  O   UNL     1      34.982 -15.364 -20.140  0.00  0.00    -0.265 OA
ATOM      4  N   UNL     1      33.847 -16.959 -21.418  0.00  0.00    -0.299 N 
ATOM      5  C   UNL     1      34.025 -15.740 -20.803  0.00  0.00    +0.299 C 
ATOM      6  H   UNL     1      33.015 -17.114 -21.920  0.00  0.00    +0.150 HD
ENDBRANCH   1   4
BRANCH   1   7
ATOM      7  C   UNL     1      35.581 -18.153 -22.693  0.00  0.00    +0.020 C 
BRANCH   7   8
ATOM      8  C   UNL     1      34.897 -19.114 -23.673  0.00  0.00    +0.002 C 
BRANCH   8   9
ATOM      9  C   UNL     1      34.406 -18.375 -24.920  0.00  0.00    +0.000 C 
BRANCH   9  10
ATOM     10  C   UNL     1      34.840 -16.909 -24.968  0.00  0.00    +0.000 C 
ATOM     11  C   UNL     1      33.760 -15.972 -25.484  0.00  0.00    +0.000 C 
ENDBRANCH   9  10
ENDBRANCH   8   9
ENDBRANCH   7   8
ENDBRANCH   1   7
TORSDOF 5
ENDMDL
MODEL 8
REMARK VINA RESULT:      -5.2      2.673      3.205
REMARK  Name = 5289037
REMARK  5 active torsions:
REMARK  status: ('A' for Active; 'I' for Inactive)
REMARK    1  A    between atoms: C_1  and  N_4
REMARK    2  A    between atoms: C_1  and  C_7
REMARK    3  A    between atoms: C_7  and  C_8
REMARK    4  A    between atoms: C_8  and  C_9
REMARK    5  A    between atoms: C_9  and  C_10
REMARK                            x       y       z     vdW  Elec       q    Type
REMARK                         _______ _______ _______ _____ _____    ______ ____
ROOT
ATOM      1  C   UNL     1      34.127 -15.697 -21.530  0.00  0.00    +0.072 C 
ATOM      2  C   UNL     1      32.760 -15.665 -20.857  0.00  0.00    +0.021 C 
ENDROOT
BRANCH   1   4
ATOM      3  O   UNL     1      34.029 -13.348 -23.285  0.00  0.00    -0.265 OA
ATOM      4  N   UNL     1      33.965 -15.663 -22.966  0.00  0.00    -0.299 N 
ATOM      5  C   UNL     1      33.933 -14.496 -23.697  0.00  0.00    +0.299 C 
ATOM      6  H   UNL     1      33.874 -16.518 -23.445  0.00  0.00    +0.150 HD
ENDBRANCH   1   4
BRANCH   1   7
ATOM      7  C   UNL     1      34.925 -16.931 -21.088  0.00  0.00    +0.020 C 
BRANCH   7   8
ATOM      8  C   UNL     1      35.301 -17.842 -22.263  0.00  0.00    +0.002 C 
BRANCH   8   9
ATOM      9  C   UNL     1      34.502 -19.147 -22.229  0.00  0.00    +0.000 C 
BRANCH   9  10
ATOM     10  C   UNL     1      34.290 -19.692 -20.815  0.00  0.00    +0.000 C 
ATOM     11  C   UNL     1      32.849 -20.080 -20.524  0.00  0.00    +0.000 C 
ENDBRANCH   9  10
ENDBRANCH   8   9
ENDBRANCH   7   8
ENDBRANCH   1   7
TORSDOF 5
ENDMDL
MODEL 9
REMARK VINA RESULT:      -5.2      2.652      4.087
REMARK  Name = 5289037
REMARK  5 active torsions:
REMARK  status: ('A' for Active; 'I' for Inactive)
REMARK    1  A    between atoms: C_1  and  N_4
REMARK    2  A    between atoms: C_1  and  C_7
REMARK    3  A    between atoms: C_7  and  C_8
REMARK    4  A    between atoms: C_8  and  C_9
REMARK    5  A    between atoms: C_9  and  C_10
REMARK                            x       y       z     vdW  Elec       q    Type
REMARK                         _______ _______ _______ _____ _____    ______ ____
ROOT
ATOM      1  C   UNL     1      34.650 -17.618 -22.718  0.00  0.00    +0.072 C 
ATOM      2  C   UNL     1      34.918 -19.106 -22.914  0.00  0.00    +0.021 C 
ENDROOT
BRANCH   1   4
ATOM      3  O   UNL     1      33.869 -17.250 -25.522  0.00  0.00    -0.265 OA
ATOM      4  N   UNL     1      35.333 -16.860 -23.741  0.00  0.00    -0.299 N 
ATOM      5  C   UNL     1      34.876 -16.752 -25.035  0.00  0.00    +0.299 C 
ATOM      6  H   UNL     1      36.167 -16.398 -23.499  0.00  0.00    +0.150 HD
ENDBRANCH   1   4
BRANCH   1   7
ATOM      7  C   UNL     1      35.074 -17.168 -21.313  0.00  0.00    +0.020 C 
BRANCH   7   8
ATOM      8  C   UNL     1      34.577 -15.758 -20.971  0.00  0.00    +0.002 C 
BRANCH   8   9
ATOM      9  C   UNL     1      33.048 -15.691 -20.989  0.00  0.00    +0.000 C 
BRANCH   9  10
ATOM     10  C   UNL     1      32.505 -14.393 -21.591  0.00  0.00    +0.000 C 
ATOM     11  C   UNL     1      32.971 -14.144 -23.017  0.00  0.00    +0.000 C 
ENDBRANCH   9  10
ENDBRANCH   8   9
ENDBRANCH   7   8
ENDBRANCH   1   7
TORSDOF 5
ENDMDL
