MODEL 1
REMARK VINA RESULT:      -9.2      0.000      0.000
REMARK  Name = 72231
REMARK  5 active torsions:
REMARK  status: ('A' for Active; 'I' for Inactive)
REMARK    1  A    between atoms: N_4  and  C1*_17
REMARK    2  A    between atoms: C2*_18  and  O2*_21
REMARK    3  A    between atoms: C3*_19  and  O3*_23
REMARK    4  A    between atoms: C4*_20  and  C5*_25
REMARK    5  A    between atoms: C5*_25  and  O5*_26
REMARK                            x       y       z     vdW  Elec       q    Type
REMARK                         _______ _______ _______ _____ _____    ______ ____
ROOT
ATOM      1  S   UNL     1      32.075 -23.746 -14.252  0.00  0.00    -0.012 S 
ATOM      2  O   UNL     1      33.967 -24.347 -12.495  0.00  0.00    -0.259 OA
ATOM      3  O   UNL     1      30.630 -22.889 -16.859  0.00  0.00    -0.209 OA
ATOM      4  N   UNL     1      34.632 -23.695 -14.671  0.00  0.00    -0.252 N 
ATOM      5  N   UNL     1      34.624 -22.958 -17.049  0.00  0.00    -0.261 N 
ATOM      6  N   UNL     1      32.537 -22.564 -18.111  0.00  0.00    -0.302 NA
ATOM      7  N   UNL     1      34.579 -22.275 -19.248  0.00  0.00    -0.320 N 
ATOM      8  C   UNL     1      34.029 -23.307 -15.866  0.00  0.00    +0.138 A 
ATOM      9  C   UNL     1      33.731 -23.987 -13.639  0.00  0.00    +0.296 A 
ATOM     10  C   UNL     1      32.692 -23.289 -15.785  0.00  0.00    +0.158 A 
ATOM     11  C   UNL     1      31.854 -22.902 -16.948  0.00  0.00    +0.216 C 
ATOM     12  C   UNL     1      33.849 -22.598 -18.133  0.00  0.00    +0.249 C 
ATOM     13  H   UNL     1      35.605 -22.965 -17.126  0.00  0.00    +0.157 HD
ATOM     14  H   UNL     1      35.562 -22.315 -19.220  0.00  0.00    +0.146 HD
ATOM     15  H   UNL     1      34.120 -22.003 -20.075  0.00  0.00    +0.146 HD
ENDROOT
BRANCH   4  17
ATOM     16  O4* UNL     1      36.587 -24.627 -15.552  0.00  0.00    -0.331 OA
ATOM     17  C1* UNL     1      36.056 -23.789 -14.513  0.00  0.00    +0.238 C 
ATOM     18  C2* UNL     1      36.451 -24.432 -13.194  0.00  0.00    +0.190 C 
ATOM     19  C3* UNL     1      37.764 -25.098 -13.550  0.00  0.00    +0.171 C 
ATOM     20  C4* UNL     1      37.501 -25.582 -14.970  0.00  0.00    +0.176 C 
BRANCH  18  21
ATOM     21  O2* UNL     1      36.593 -23.489 -12.152  0.00  0.00    -0.378 OA
ATOM     22  H2* UNL     1      37.409 -23.671 -11.660  0.00  0.00    +0.211 HD
ENDBRANCH  18  21
BRANCH  19  23
ATOM     23  O3* UNL     1      38.811 -24.129 -13.605  0.00  0.00    -0.379 OA
ATOM     24  H3* UNL     1      39.418 -24.350 -14.329  0.00  0.00    +0.211 HD
ENDBRANCH  19  23
BRANCH  20  25
ATOM     25  C5* UNL     1      36.848 -26.957 -15.025  0.00  0.00    +0.169 C 
BRANCH  25  26
ATOM     26  O5* UNL     1      36.742 -27.356 -16.380  0.00  0.00    -0.379 OA
ATOM     27  H5* UNL     1      35.859 -27.135 -16.714  0.00  0.00    +0.211 HD
ENDBRANCH  25  26
ENDBRANCH  20  25
ENDBRANCH   4  17
TORSDOF 5
ENDMDL
MODEL 2
REMARK VINA RESULT:      -9.0      2.189      3.740
REMARK  Name = 72231
REMARK  5 active torsions:
REMARK  status: ('A' for Active; 'I' for Inactive)
REMARK    1  A    between atoms: N_4  and  C1*_17
REMARK    2  A    between atoms: C2*_18  and  O2*_21
REMARK    3  A    between atoms: C3*_19  and  O3*_23
REMARK    4  A    between atoms: C4*_20  and  C5*_25
REMARK    5  A    between atoms: C5*_25  and  O5*_26
REMARK                            x       y       z     vdW  Elec       q    Type
REMARK                         _______ _______ _______ _____ _____    ______ ____
ROOT
ATOM      1  S   UNL     1      34.311 -23.013 -16.760  0.00  0.00    -0.012 S 
ATOM      2  O   UNL     1      36.660 -23.769 -15.790  0.00  0.00    -0.259 OA
ATOM      3  O   UNL     1      31.259 -22.583 -17.107  0.00  0.00    -0.209 OA
ATOM      4  N   UNL     1      34.712 -24.351 -14.577  0.00  0.00    -0.252 N 
ATOM      5  N   UNL     1      32.350 -24.619 -13.842  0.00  0.00    -0.261 N 
ATOM      6  N   UNL     1      30.627 -23.686 -15.185  0.00  0.00    -0.302 NA
ATOM      7  N   UNL     1      30.152 -24.846 -13.192  0.00  0.00    -0.320 N 
ATOM      8  C   UNL     1      33.334 -24.182 -14.688  0.00  0.00    +0.138 A 
ATOM      9  C   UNL     1      35.449 -23.779 -15.622  0.00  0.00    +0.296 A 
ATOM     10  C   UNL     1      32.986 -23.499 -15.786  0.00  0.00    +0.158 A 
ATOM     11  C   UNL     1      31.563 -23.209 -16.097  0.00  0.00    +0.216 C 
ATOM     12  C   UNL     1      31.025 -24.351 -14.125  0.00  0.00    +0.249 C 
ATOM     13  H   UNL     1      32.586 -25.122 -13.030  0.00  0.00    +0.157 HD
ATOM     14  H   UNL     1      30.493 -25.339 -12.412  0.00  0.00    +0.146 HD
ATOM     15  H   UNL     1      29.183 -24.710 -13.303  0.00  0.00    +0.146 HD
ENDROOT
BRANCH   4  17
ATOM     16  O4* UNL     1      35.370 -24.183 -12.339  0.00  0.00    -0.331 OA
ATOM     17  C1* UNL     1      35.326 -25.052 -13.483  0.00  0.00    +0.238 C 
ATOM     18  C2* UNL     1      36.761 -25.449 -13.781  0.00  0.00    +0.190 C 
ATOM     19  C3* UNL     1      37.386 -25.427 -12.403  0.00  0.00    +0.171 C 
ATOM     20  C4* UNL     1      36.691 -24.235 -11.757  0.00  0.00    +0.176 C 
BRANCH  18  21
ATOM     21  O2* UNL     1      36.857 -26.719 -14.393  0.00  0.00    -0.378 OA
ATOM     22  H2* UNL     1      37.782 -26.900 -14.620  0.00  0.00    +0.211 HD
ENDBRANCH  18  21
BRANCH  19  23
ATOM     23  O3* UNL     1      37.018 -26.597 -11.674  0.00  0.00    -0.379 OA
ATOM     24  H3* UNL     1      36.304 -26.380 -11.053  0.00  0.00    +0.211 HD
ENDBRANCH  19  23
BRANCH  20  25
ATOM     25  C5* UNL     1      37.385 -22.909 -12.037  0.00  0.00    +0.169 C 
BRANCH  25  26
ATOM     26  O5* UNL     1      38.749 -23.025 -11.671  0.00  0.00    -0.379 OA
ATOM     27  H5* UNL     1      39.047 -23.936 -11.820  0.00  0.00    +0.211 HD
ENDBRANCH  25  26
ENDBRANCH  20  25
ENDBRANCH   4  17
TORSDOF 5
ENDMDL
MODEL 3
REMARK VINA RESULT:      -9.0      1.208      1.477
REMARK  Name = 72231
REMARK  5 active torsions:
REMARK  status: ('A' for Active; 'I' for Inactive)
REMARK    1  A    between atoms: N_4  and  C1*_17
REMARK    2  A    between atoms: C2*_18  and  O2*_21
REMARK    3  A    between atoms: C3*_19  and  O3*_23
REMARK    4  A    between atoms: C4*_20  and  C5*_25
REMARK    5  A    between atoms: C5*_25  and  O5*_26
REMARK                            x       y       z     vdW  Elec       q    Type
REMARK                         _______ _______ _______ _____ _____    ______ ____
ROOT
ATOM      1  S   UNL     1      32.496 -23.828 -13.788  0.00  0.00    -0.012 S 
ATOM      2  O   UNL     1      34.802 -24.611 -12.741  0.00  0.00    -0.259 OA
ATOM      3  O   UNL     1      30.354 -22.811 -15.788  0.00  0.00    -0.209 OA
ATOM      4  N   UNL     1      34.771 -23.976 -15.021  0.00  0.00    -0.252 N 
ATOM      5  N   UNL     1      34.048 -23.198 -17.272  0.00  0.00    -0.261 N 
ATOM      6  N   UNL     1      31.768 -22.618 -17.598  0.00  0.00    -0.302 NA
ATOM      7  N   UNL     1      33.343 -22.474 -19.341  0.00  0.00    -0.320 N 
ATOM      8  C   UNL     1      33.845 -23.519 -15.956  0.00  0.00    +0.138 A 
ATOM      9  C   UNL     1      34.236 -24.213 -13.748  0.00  0.00    +0.296 A 
ATOM     10  C   UNL     1      32.614 -23.395 -15.444  0.00  0.00    +0.158 A 
ATOM     11  C   UNL     1      31.477 -22.921 -16.272  0.00  0.00    +0.216 C 
ATOM     12  C   UNL     1      32.994 -22.757 -18.047  0.00  0.00    +0.249 C 
ATOM     13  H   UNL     1      34.946 -23.283 -17.666  0.00  0.00    +0.157 HD
ATOM     14  H   UNL     1      34.275 -22.593 -19.637  0.00  0.00    +0.146 HD
ATOM     15  H   UNL     1      32.663 -22.151 -19.976  0.00  0.00    +0.146 HD
ENDROOT
BRANCH   4  17
ATOM     16  O4* UNL     1      36.402 -25.600 -15.436  0.00  0.00    -0.331 OA
ATOM     17  C1* UNL     1      36.157 -24.187 -15.336  0.00  0.00    +0.238 C 
ATOM     18  C2* UNL     1      37.084 -23.662 -14.253  0.00  0.00    +0.190 C 
ATOM     19  C3* UNL     1      38.268 -24.598 -14.372  0.00  0.00    +0.171 C 
ATOM     20  C4* UNL     1      37.593 -25.927 -14.687  0.00  0.00    +0.176 C 
BRANCH  18  21
ATOM     21  O2* UNL     1      37.445 -22.311 -14.456  0.00  0.00    -0.378 OA
ATOM     22  H2* UNL     1      38.383 -22.191 -14.240  0.00  0.00    +0.211 HD
ENDBRANCH  18  21
BRANCH  19  23
ATOM     23  O3* UNL     1      39.072 -24.238 -15.495  0.00  0.00    -0.379 OA
ATOM     24  H3* UNL     1      39.423 -25.041 -15.912  0.00  0.00    +0.211 HD
ENDBRANCH  19  23
BRANCH  20  25
ATOM     25  C5* UNL     1      37.174 -26.699 -13.443  0.00  0.00    +0.169 C 
BRANCH  25  26
ATOM     26  O5* UNL     1      37.646 -26.007 -12.300  0.00  0.00    -0.379 OA
ATOM     27  H5* UNL     1      37.667 -25.055 -12.484  0.00  0.00    +0.211 HD
ENDBRANCH  25  26
ENDBRANCH  20  25
ENDBRANCH   4  17
TORSDOF 5
ENDMDL
MODEL 4
REMARK VINA RESULT:      -8.7      2.232      3.162
REMARK  Name = 72231
REMARK  5 active torsions:
REMARK  status: ('A' for Active; 'I' for Inactive)
REMARK    1  A    between atoms: N_4  and  C1*_17
REMARK    2  A    between atoms: C2*_18  and  O2*_21
REMARK    3  A    between atoms: C3*_19  and  O3*_23
REMARK    4  A    between atoms: C4*_20  and  C5*_25
REMARK    5  A    between atoms: C5*_25  and  O5*_26
REMARK                            x       y       z     vdW  Elec       q    Type
REMARK                         _______ _______ _______ _____ _____    ______ ____
ROOT
ATOM      1  S   UNL     1      34.986 -22.765 -17.280  0.00  0.00    -0.012 S 
ATOM      2  O   UNL     1      37.376 -22.858 -16.135  0.00  0.00    -0.259 OA
ATOM      3  O   UNL     1      31.917 -22.852 -17.721  0.00  0.00    -0.209 OA
ATOM      4  N   UNL     1      35.473 -23.228 -14.776  0.00  0.00    -0.252 N 
ATOM      5  N   UNL     1      33.136 -23.516 -13.970  0.00  0.00    -0.261 N 
ATOM      6  N   UNL     1      31.359 -23.309 -15.533  0.00  0.00    -0.302 NA
ATOM      7  N   UNL     1      30.961 -23.776 -13.260  0.00  0.00    -0.320 N 
ATOM      8  C   UNL     1      34.089 -23.275 -14.924  0.00  0.00    +0.138 A 
ATOM      9  C   UNL     1      36.170 -22.957 -15.962  0.00  0.00    +0.296 A 
ATOM     10  C   UNL     1      33.697 -23.051 -16.185  0.00  0.00    +0.158 A 
ATOM     11  C   UNL     1      32.261 -23.058 -16.561  0.00  0.00    +0.216 C 
ATOM     12  C   UNL     1      31.798 -23.523 -14.314  0.00  0.00    +0.249 C 
ATOM     13  H   UNL     1      33.404 -23.682 -13.039  0.00  0.00    +0.157 HD
ATOM     14  H   UNL     1      31.333 -23.931 -12.361  0.00  0.00    +0.146 HD
ATOM     15  H   UNL     1      29.987 -23.804 -13.400  0.00  0.00    +0.146 HD
ENDROOT
BRANCH   4  17
ATOM     16  O4* UNL     1      37.547 -23.288 -13.698  0.00  0.00    -0.331 OA
ATOM     17  C1* UNL     1      36.129 -23.437 -13.516  0.00  0.00    +0.238 C 
ATOM     18  C2* UNL     1      35.908 -24.839 -12.973  0.00  0.00    +0.190 C 
ATOM     19  C3* UNL     1      37.180 -25.076 -12.187  0.00  0.00    +0.171 C 
ATOM     20  C4* UNL     1      38.225 -24.391 -13.057  0.00  0.00    +0.176 C 
BRANCH  18  21
ATOM     21  O2* UNL     1      34.752 -24.931 -12.165  0.00  0.00    -0.378 OA
ATOM     22  H2* UNL     1      34.965 -25.411 -11.350  0.00  0.00    +0.211 HD
ENDBRANCH  18  21
BRANCH  19  23
ATOM     23  O3* UNL     1      37.126 -24.383 -10.940  0.00  0.00    -0.379 OA
ATOM     24  H3* UNL     1      36.542 -23.613 -11.022  0.00  0.00    +0.211 HD
ENDBRANCH  19  23
BRANCH  20  25
ATOM     25  C5* UNL     1      38.789 -25.296 -14.144  0.00  0.00    +0.169 C 
BRANCH  25  26
ATOM     26  O5* UNL     1      39.320 -24.486 -15.179  0.00  0.00    -0.379 OA
ATOM     27  H5* UNL     1      39.288 -24.972 -16.018  0.00  0.00    +0.211 HD
ENDBRANCH  25  26
ENDBRANCH  20  25
ENDBRANCH   4  17
TORSDOF 5
ENDMDL
MODEL 5
REMARK VINA RESULT:      -8.5      2.415      3.710
REMARK  Name = 72231
REMARK  5 active torsions:
REMARK  status: ('A' for Active; 'I' for Inactive)
REMARK    1  A    between atoms: N_4  and  C1*_17
REMARK    2  A    between atoms: C2*_18  and  O2*_21
REMARK    3  A    between atoms: C3*_19  and  O3*_23
REMARK    4  A    between atoms: C4*_20  and  C5*_25
REMARK    5  A    between atoms: C5*_25  and  O5*_26
REMARK                            x       y       z     vdW  Elec       q    Type
REMARK                         _______ _______ _______ _____ _____    ______ ____
ROOT
ATOM      1  S   UNL     1      32.655 -22.720 -17.654  0.00  0.00    -0.012 S 
ATOM      2  O   UNL     1      35.295 -22.870 -17.467  0.00  0.00    -0.259 OA
ATOM      3  O   UNL     1      29.631 -22.931 -16.997  0.00  0.00    -0.209 OA
ATOM      4  N   UNL     1      34.002 -23.631 -15.636  0.00  0.00    -0.252 N 
ATOM      5  N   UNL     1      32.107 -24.233 -14.139  0.00  0.00    -0.261 N 
ATOM      6  N   UNL     1      29.890 -23.847 -14.898  0.00  0.00    -0.302 NA
ATOM      7  N   UNL     1      30.329 -24.778 -12.781  0.00  0.00    -0.320 N 
ATOM      8  C   UNL     1      32.656 -23.744 -15.294  0.00  0.00    +0.138 A 
ATOM      9  C   UNL     1      34.231 -23.085 -16.906  0.00  0.00    +0.296 A 
ATOM     10  C   UNL     1      31.841 -23.304 -16.261  0.00  0.00    +0.158 A 
ATOM     11  C   UNL     1      30.365 -23.336 -16.102  0.00  0.00    +0.216 C 
ATOM     12  C   UNL     1      30.735 -24.265 -13.985  0.00  0.00    +0.249 C 
ATOM     13  H   UNL     1      32.690 -24.560 -13.417  0.00  0.00    +0.157 HD
ATOM     14  H   UNL     1      30.997 -25.080 -12.124  0.00  0.00    +0.146 HD
ATOM     15  H   UNL     1      29.369 -24.845 -12.573  0.00  0.00    +0.146 HD
ENDROOT
BRANCH   4  17
ATOM     16  O4* UNL     1      35.931 -22.916 -14.524  0.00  0.00    -0.331 OA
ATOM     17  C1* UNL     1      35.065 -24.038 -14.759  0.00  0.00    +0.238 C 
ATOM     18  C2* UNL     1      35.928 -25.132 -15.364  0.00  0.00    +0.190 C 
ATOM     19  C3* UNL     1      37.275 -24.857 -14.729  0.00  0.00    +0.171 C 
ATOM     20  C4* UNL     1      37.304 -23.335 -14.690  0.00  0.00    +0.176 C 
BRANCH  18  21
ATOM     21  O2* UNL     1      35.449 -26.428 -15.067  0.00  0.00    -0.378 OA
ATOM     22  H2* UNL     1      36.149 -26.940 -14.633  0.00  0.00    +0.211 HD
ENDBRANCH  18  21
BRANCH  19  23
ATOM     23  O3* UNL     1      37.292 -25.331 -13.383  0.00  0.00    -0.379 OA
ATOM     24  H3* UNL     1      37.382 -24.578 -12.776  0.00  0.00    +0.211 HD
ENDBRANCH  19  23
BRANCH  20  25
ATOM     25  C5* UNL     1      37.838 -22.710 -15.972  0.00  0.00    +0.169 C 
BRANCH  25  26
ATOM     26  O5* UNL     1      37.273 -21.419 -16.118  0.00  0.00    -0.379 OA
ATOM     27  H5* UNL     1      37.877 -20.857 -16.627  0.00  0.00    +0.211 HD
ENDBRANCH  25  26
ENDBRANCH  20  25
ENDBRANCH   4  17
TORSDOF 5
ENDMDL
MODEL 6
REMARK VINA RESULT:      -8.3      2.245      5.382
REMARK  Name = 72231
REMARK  5 active torsions:
REMARK  status: ('A' for Active; 'I' for Inactive)
REMARK    1  A    between atoms: N_4  and  C1*_17
REMARK    2  A    between atoms: C2*_18  and  O2*_21
REMARK    3  A    between atoms: C3*_19  and  O3*_23
REMARK    4  A    between atoms: C4*_20  and  C5*_25
REMARK    5  A    between atoms: C5*_25  and  O5*_26
REMARK                            x       y       z     vdW  Elec       q    Type
REMARK                         _______ _______ _______ _____ _____    ______ ____
ROOT
ATOM      1  S   UNL     1      35.748 -24.525 -13.381  0.00  0.00    -0.012 S 
ATOM      2  O   UNL     1      33.136 -24.561 -12.930  0.00  0.00    -0.259 OA
ATOM      3  O   UNL     1      38.519 -23.937 -14.644  0.00  0.00    -0.209 OA
ATOM      4  N   UNL     1      33.930 -23.331 -14.789  0.00  0.00    -0.252 N 
ATOM      5  N   UNL     1      35.392 -22.277 -16.505  0.00  0.00    -0.261 N 
ATOM      6  N   UNL     1      37.738 -22.627 -16.372  0.00  0.00    -0.302 NA
ATOM      7  N   UNL     1      36.777 -21.317 -18.076  0.00  0.00    -0.320 N 
ATOM      8  C   UNL     1      35.151 -23.037 -15.392  0.00  0.00    +0.138 A 
ATOM      9  C   UNL     1      34.029 -24.145 -13.653  0.00  0.00    +0.296 A 
ATOM     10  C   UNL     1      36.187 -23.600 -14.757  0.00  0.00    +0.158 A 
ATOM     11  C   UNL     1      37.580 -23.414 -15.236  0.00  0.00    +0.216 C 
ATOM     12  C   UNL     1      36.686 -22.100 -16.954  0.00  0.00    +0.249 C 
ATOM     13  H   UNL     1      34.644 -21.855 -16.984  0.00  0.00    +0.157 HD
ATOM     14  H   UNL     1      35.962 -20.941 -18.480  0.00  0.00    +0.146 HD
ATOM     15  H   UNL     1      37.656 -21.131 -18.477  0.00  0.00    +0.146 HD
ENDROOT
BRANCH   4  17
ATOM     16  O4* UNL     1      31.684 -22.954 -14.256  0.00  0.00    -0.331 OA
ATOM     17  C1* UNL     1      32.676 -22.839 -15.289  0.00  0.00    +0.238 C 
ATOM     18  C2* UNL     1      32.167 -23.647 -16.470  0.00  0.00    +0.190 C 
ATOM     19  C3* UNL     1      30.666 -23.507 -16.323  0.00  0.00    +0.171 C 
ATOM     20  C4* UNL     1      30.489 -23.547 -14.810  0.00  0.00    +0.176 C 
BRANCH  18  21
ATOM     21  O2* UNL     1      32.633 -23.152 -17.709  0.00  0.00    -0.378 OA
ATOM     22  H2* UNL     1      33.069 -22.297 -17.571  0.00  0.00    +0.211 HD
ENDBRANCH  18  21
BRANCH  19  23
ATOM     23  O3* UNL     1      30.242 -22.224 -16.780  0.00  0.00    -0.379 OA
ATOM     24  H3* UNL     1      29.305 -22.096 -16.562  0.00  0.00    +0.211 HD
ENDBRANCH  19  23
BRANCH  20  25
ATOM     25  C5* UNL     1      30.361 -24.959 -14.256  0.00  0.00    +0.169 C 
BRANCH  25  26
ATOM     26  O5* UNL     1      30.405 -24.898 -12.842  0.00  0.00    -0.379 OA
ATOM     27  H5* UNL     1      29.577 -24.516 -12.509  0.00  0.00    +0.211 HD
ENDBRANCH  25  26
ENDBRANCH  20  25
ENDBRANCH   4  17
TORSDOF 5
ENDMDL
MODEL 7
REMARK VINA RESULT:      -8.3      2.165      3.547
REMARK  Name = 72231
REMARK  5 active torsions:
REMARK  status: ('A' for Active; 'I' for Inactive)
REMARK    1  A    between atoms: N_4  and  C1*_17
REMARK    2  A    between atoms: C2*_18  and  O2*_21
REMARK    3  A    between atoms: C3*_19  and  O3*_23
REMARK    4  A    between atoms: C4*_20  and  C5*_25
REMARK    5  A    between atoms: C5*_25  and  O5*_26
REMARK                            x       y       z     vdW  Elec       q    Type
REMARK                         _______ _______ _______ _____ _____    ______ ____
ROOT
ATOM      1  S   UNL     1      36.322 -22.282 -17.367  0.00  0.00    -0.012 S 
ATOM      2  O   UNL     1      37.913 -23.002 -15.372  0.00  0.00    -0.259 OA
ATOM      3  O   UNL     1      33.807 -21.850 -19.130  0.00  0.00    -0.209 OA
ATOM      4  N   UNL     1      35.607 -23.505 -15.196  0.00  0.00    -0.252 N 
ATOM      5  N   UNL     1      33.169 -23.716 -15.651  0.00  0.00    -0.261 N 
ATOM      6  N   UNL     1      32.311 -22.844 -17.687  0.00  0.00    -0.302 NA
ATOM      7  N   UNL     1      30.918 -23.893 -16.105  0.00  0.00    -0.320 N 
ATOM      8  C   UNL     1      34.449 -23.332 -15.951  0.00  0.00    +0.138 A 
ATOM      9  C   UNL     1      36.766 -22.994 -15.795  0.00  0.00    +0.296 A 
ATOM     10  C   UNL     1      34.680 -22.706 -17.112  0.00  0.00    +0.158 A 
ATOM     11  C   UNL     1      33.580 -22.423 -18.069  0.00  0.00    +0.216 C 
ATOM     12  C   UNL     1      32.142 -23.454 -16.537  0.00  0.00    +0.249 C 
ATOM     13  H   UNL     1      32.980 -24.176 -14.802  0.00  0.00    +0.157 HD
ATOM     14  H   UNL     1      30.836 -24.346 -15.235  0.00  0.00    +0.146 HD
ATOM     15  H   UNL     1      30.120 -23.756 -16.665  0.00  0.00    +0.146 HD
ENDROOT
BRANCH   4  17
ATOM     16  O4* UNL     1      35.675 -23.146 -12.886  0.00  0.00    -0.331 OA
ATOM     17  C1* UNL     1      35.611 -24.150 -13.913  0.00  0.00    +0.238 C 
ATOM     18  C2* UNL     1      36.822 -25.046 -13.719  0.00  0.00    +0.190 C 
ATOM     19  C3* UNL     1      37.030 -24.973 -12.221  0.00  0.00    +0.171 C 
ATOM     20  C4* UNL     1      36.683 -23.520 -11.921  0.00  0.00    +0.176 C 
BRANCH  18  21
ATOM     21  O2* UNL     1      36.596 -26.368 -14.165  0.00  0.00    -0.378 OA
ATOM     22  H2* UNL     1      36.808 -26.430 -15.109  0.00  0.00    +0.211 HD
ENDBRANCH  18  21
BRANCH  19  23
ATOM     23  O3* UNL     1      36.079 -25.798 -11.549  0.00  0.00    -0.379 OA
ATOM     24  H3* UNL     1      35.297 -25.913 -12.111  0.00  0.00    +0.211 HD
ENDBRANCH  19  23
BRANCH  20  25
ATOM     25  C5* UNL     1      37.865 -22.574 -12.080  0.00  0.00    +0.169 C 
BRANCH  25  26
ATOM     26  O5* UNL     1      39.039 -23.238 -11.646  0.00  0.00    -0.379 OA
ATOM     27  H5* UNL     1      38.844 -23.749 -10.844  0.00  0.00    +0.211 HD
ENDBRANCH  25  26
ENDBRANCH  20  25
ENDBRANCH   4  17
TORSDOF 5
ENDMDL
MODEL 8
REMARK VINA RESULT:      -8.3      1.234      2.114
REMARK  Name = 72231
REMARK  5 active torsions:
REMARK  status: ('A' for Active; 'I' for Inactive)
REMARK    1  A    between atoms: N_4  and  C1*_17
REMARK    2  A    between atoms: C2*_18  and  O2*_21
REMARK    3  A    between atoms: C3*_19  and  O3*_23
REMARK    4  A    between atoms: C4*_20  and  C5*_25
REMARK    5  A    between atoms: C5*_25  and  O5*_26
REMARK                            x       y       z     vdW  Elec       q    Type
REMARK                         _______ _______ _______ _____ _____    ______ ____
ROOT
ATOM      1  S   UNL     1      31.280 -23.910 -14.543  0.00  0.00    -0.012 S 
ATOM      2  O   UNL     1      32.808 -24.926 -12.630  0.00  0.00    -0.259 OA
ATOM      3  O   UNL     1      30.348 -22.610 -17.201  0.00  0.00    -0.209 OA
ATOM      4  N   UNL     1      33.861 -24.141 -14.599  0.00  0.00    -0.252 N 
ATOM      5  N   UNL     1      34.294 -23.166 -16.848  0.00  0.00    -0.261 N 
ATOM      6  N   UNL     1      32.446 -22.401 -18.131  0.00  0.00    -0.302 NA
ATOM      7  N   UNL     1      34.655 -22.257 -18.933  0.00  0.00    -0.320 N 
ATOM      8  C   UNL     1      33.492 -23.557 -15.809  0.00  0.00    +0.138 A 
ATOM      9  C   UNL     1      32.788 -24.422 -13.743  0.00  0.00    +0.296 A 
ATOM     10  C   UNL     1      32.169 -23.378 -15.911  0.00  0.00    +0.158 A 
ATOM     11  C   UNL     1      31.563 -22.769 -17.123  0.00  0.00    +0.216 C 
ATOM     12  C   UNL     1      33.735 -22.599 -17.977  0.00  0.00    +0.249 C 
ATOM     13  H   UNL     1      35.268 -23.289 -16.791  0.00  0.00    +0.157 HD
ATOM     14  H   UNL     1      35.613 -22.424 -18.776  0.00  0.00    +0.146 HD
ATOM     15  H   UNL     1      34.359 -21.844 -19.776  0.00  0.00    +0.146 HD
ENDROOT
BRANCH   4  17
ATOM     16  O4* UNL     1      35.905 -23.200 -13.964  0.00  0.00    -0.331 OA
ATOM     17  C1* UNL     1      35.226 -24.431 -14.259  0.00  0.00    +0.238 C 
ATOM     18  C2* UNL     1      35.984 -25.079 -15.406  0.00  0.00    +0.190 C 
ATOM     19  C3* UNL     1      37.399 -24.599 -15.158  0.00  0.00    +0.171 C 
ATOM     20  C4* UNL     1      37.171 -23.178 -14.660  0.00  0.00    +0.176 C 
BRANCH  18  21
ATOM     21  O2* UNL     1      35.886 -26.488 -15.394  0.00  0.00    -0.378 OA
ATOM     22  H2* UNL     1      35.712 -26.793 -14.489  0.00  0.00    +0.211 HD
ENDBRANCH  18  21
BRANCH  19  23
ATOM     23  O3* UNL     1      37.995 -25.345 -14.097  0.00  0.00    -0.379 OA
ATOM     24  H3* UNL     1      38.925 -25.521 -14.310  0.00  0.00    +0.211 HD
ENDBRANCH  19  23
BRANCH  20  25
ATOM     25  C5* UNL     1      37.075 -22.155 -15.784  0.00  0.00    +0.169 C 
BRANCH  25  26
ATOM     26  O5* UNL     1      37.284 -22.817 -17.019  0.00  0.00    -0.379 OA
ATOM     27  H5* UNL     1      36.834 -23.676 -17.005  0.00  0.00    +0.211 HD
ENDBRANCH  25  26
ENDBRANCH  20  25
ENDBRANCH   4  17
TORSDOF 5
ENDMDL
MODEL 9
REMARK VINA RESULT:      -8.1      2.150      3.711
REMARK  Name = 72231
REMARK  5 active torsions:
REMARK  status: ('A' for Active; 'I' for Inactive)
REMARK    1  A    between atoms: N_4  and  C1*_17
REMARK    2  A    between atoms: C2*_18  and  O2*_21
REMARK    3  A    between atoms: C3*_19  and  O3*_23
REMARK    4  A    between atoms: C4*_20  and  C5*_25
REMARK    5  A    between atoms: C5*_25  and  O5*_26
REMARK                            x       y       z     vdW  Elec       q    Type
REMARK                         _______ _______ _______ _____ _____    ______ ____
ROOT
ATOM      1  S   UNL     1      32.732 -22.264 -17.965  0.00  0.00    -0.012 S 
ATOM      2  O   UNL     1      35.351 -22.621 -18.162  0.00  0.00    -0.259 OA
ATOM      3  O   UNL     1      29.800 -22.399 -16.960  0.00  0.00    -0.209 OA
ATOM      4  N   UNL     1      34.222 -23.633 -16.345  0.00  0.00    -0.252 N 
ATOM      5  N   UNL     1      32.472 -24.386 -14.744  0.00  0.00    -0.261 N 
ATOM      6  N   UNL     1      30.224 -23.716 -15.117  0.00  0.00    -0.302 NA
ATOM      7  N   UNL     1      30.826 -25.064 -13.283  0.00  0.00    -0.320 N 
ATOM      8  C   UNL     1      32.922 -23.721 -15.853  0.00  0.00    +0.138 A 
ATOM      9  C   UNL     1      34.346 -22.869 -17.513  0.00  0.00    +0.296 A 
ATOM     10  C   UNL     1      32.040 -23.051 -16.606  0.00  0.00    +0.158 A 
ATOM     11  C   UNL     1      30.596 -23.016 -16.259  0.00  0.00    +0.216 C 
ATOM     12  C   UNL     1      31.130 -24.357 -14.416  0.00  0.00    +0.249 C 
ATOM     13  H   UNL     1      33.105 -24.883 -14.179  0.00  0.00    +0.157 HD
ATOM     14  H   UNL     1      31.537 -25.530 -12.787  0.00  0.00    +0.146 HD
ATOM     15  H   UNL     1      29.895 -25.107 -12.964  0.00  0.00    +0.146 HD
ENDROOT
BRANCH   4  17
ATOM     16  O4* UNL     1      34.909 -24.827 -14.455  0.00  0.00    -0.331 OA
ATOM     17  C1* UNL     1      35.341 -24.270 -15.708  0.00  0.00    +0.238 C 
ATOM     18  C2* UNL     1      36.457 -23.292 -15.384  0.00  0.00    +0.190 C 
ATOM     19  C3* UNL     1      37.076 -23.918 -14.152  0.00  0.00    +0.171 C 
ATOM     20  C4* UNL     1      35.855 -24.465 -13.425  0.00  0.00    +0.176 C 
BRANCH  18  21
ATOM     21  O2* UNL     1      37.385 -23.159 -16.442  0.00  0.00    -0.378 OA
ATOM     22  H2* UNL     1      38.276 -23.362 -16.118  0.00  0.00    +0.211 HD
ENDBRANCH  18  21
BRANCH  19  23
ATOM     23  O3* UNL     1      37.899 -25.024 -14.520  0.00  0.00    -0.379 OA
ATOM     24  H3* UNL     1      37.517 -25.843 -14.166  0.00  0.00    +0.211 HD
ENDBRANCH  19  23
BRANCH  20  25
ATOM     25  C5* UNL     1      35.191 -23.443 -12.511  0.00  0.00    +0.169 C 
BRANCH  25  26
ATOM     26  O5* UNL     1      33.807 -23.734 -12.435  0.00  0.00    -0.379 OA
ATOM     27  H5* UNL     1      33.457 -23.422 -11.585  0.00  0.00    +0.211 HD
ENDBRANCH  25  26
ENDBRANCH  20  25
ENDBRANCH   4  17
TORSDOF 5
ENDMDL
