MODEL 1
REMARK VINA RESULT:      -9.7      0.000      0.000
REMARK  Name = 13472
REMARK  0 active torsions:
REMARK  status: ('A' for Active; 'I' for Inactive)
REMARK                            x       y       z     vdW  Elec       q    Type
REMARK                         _______ _______ _______ _____ _____    ______ ____
ROOT
ATOM      1  O   UNL     1      34.263 -23.985 -12.575  0.00  0.00    -0.296 OA
ATOM      2  O   UNL     1      33.860 -18.647 -21.352  0.00  0.00    -0.287 OA
ATOM      3  C   UNL     1      35.763 -22.722 -17.008  0.00  0.00    +0.001 C 
ATOM      4  C   UNL     1      35.731 -22.767 -15.479  0.00  0.00    +0.007 C 
ATOM      5  C   UNL     1      34.349 -22.269 -17.518  0.00  0.00    +0.007 C 
ATOM      6  C   UNL     1      34.698 -23.790 -14.961  0.00  0.00    +0.052 C 
ATOM      7  C   UNL     1      34.296 -22.145 -19.086  0.00  0.00    +0.034 C 
ATOM      8  C   UNL     1      33.215 -23.138 -16.900  0.00  0.00    +0.001 C 
ATOM      9  C   UNL     1      33.315 -23.300 -15.370  0.00  0.00    +0.007 C 
ATOM     10  C   UNL     1      37.001 -23.092 -14.698  0.00  0.00    +0.008 C 
ATOM     11  C   UNL     1      36.860 -21.781 -17.526  0.00  0.00    +0.004 C 
ATOM     12  C   UNL     1      35.037 -23.712 -13.483  0.00  0.00    +0.150 C 
ATOM     13  C   UNL     1      36.478 -23.284 -13.267  0.00  0.00    +0.064 C 
ATOM     14  C   UNL     1      35.465 -21.256 -19.525  0.00  0.00    -0.038 C 
ATOM     15  C   UNL     1      36.836 -21.669 -19.047  0.00  0.00    +0.022 C 
ATOM     16  C   UNL     1      34.924 -25.252 -15.386  0.00  0.00    +0.007 C 
ATOM     17  C   UNL     1      34.411 -23.516 -19.791  0.00  0.00    +0.008 C 
ATOM     18  C   UNL     1      32.962 -21.556 -19.525  0.00  0.00    -0.020 C 
ATOM     19  C   UNL     1      35.318 -20.134 -20.246  0.00  0.00    +0.034 C 
ATOM     20  C   UNL     1      32.809 -20.438 -20.242  0.00  0.00    +0.038 C 
ATOM     21  C   UNL     1      33.985 -19.660 -20.671  0.00  0.00    +0.195 C 
ENDROOT
TORSDOF 0
ENDMDL
MODEL 2
REMARK VINA RESULT:      -9.3      3.549      6.251
REMARK  Name = 13472
REMARK  0 active torsions:
REMARK  status: ('A' for Active; 'I' for Inactive)
REMARK                            x       y       z     vdW  Elec       q    Type
REMARK                         _______ _______ _______ _____ _____    ______ ____
ROOT
ATOM      1  O   UNL     1      29.469 -24.411 -15.063  0.00  0.00    -0.296 OA
ATOM      2  O   UNL     1      39.524 -26.516 -14.671  0.00  0.00    -0.287 OA
ATOM      3  C   UNL     1      34.187 -23.301 -15.190  0.00  0.00    +0.001 C 
ATOM      4  C   UNL     1      32.785 -23.610 -15.723  0.00  0.00    +0.007 C 
ATOM      5  C   UNL     1      34.643 -24.498 -14.281  0.00  0.00    +0.007 C 
ATOM      6  C   UNL     1      31.759 -23.745 -14.579  0.00  0.00    +0.052 C 
ATOM      7  C   UNL     1      36.101 -24.296 -13.722  0.00  0.00    +0.034 C 
ATOM      8  C   UNL     1      33.575 -24.830 -13.197  0.00  0.00    +0.001 C 
ATOM      9  C   UNL     1      32.144 -24.965 -13.751  0.00  0.00    +0.007 C 
ATOM     10  C   UNL     1      32.119 -22.659 -16.711  0.00  0.00    +0.008 C 
ATOM     11  C   UNL     1      35.188 -23.066 -16.330  0.00  0.00    +0.004 C 
ATOM     12  C   UNL     1      30.504 -23.866 -15.425  0.00  0.00    +0.150 C 
ATOM     13  C   UNL     1      30.679 -23.191 -16.774  0.00  0.00    +0.064 C 
ATOM     14  C   UNL     1      37.018 -23.990 -14.911  0.00  0.00    -0.038 C 
ATOM     15  C   UNL     1      36.602 -22.845 -15.802  0.00  0.00    +0.022 C 
ATOM     16  C   UNL     1      31.570 -22.502 -13.690  0.00  0.00    +0.007 C 
ATOM     17  C   UNL     1      36.187 -23.134 -12.705  0.00  0.00    +0.008 C 
ATOM     18  C   UNL     1      36.559 -25.542 -12.979  0.00  0.00    -0.020 C 
ATOM     19  C   UNL     1      38.111 -24.709 -15.213  0.00  0.00    +0.034 C 
ATOM     20  C   UNL     1      37.645 -26.263 -13.275  0.00  0.00    +0.038 C 
ATOM     21  C   UNL     1      38.511 -25.879 -14.405  0.00  0.00    +0.195 C 
ENDROOT
TORSDOF 0
ENDMDL
MODEL 3
REMARK VINA RESULT:      -8.7      6.574     10.030
REMARK  Name = 13472
REMARK  0 active torsions:
REMARK  status: ('A' for Active; 'I' for Inactive)
REMARK                            x       y       z     vdW  Elec       q    Type
REMARK                         _______ _______ _______ _____ _____    ______ ____
ROOT
ATOM      1  O   UNL     1      35.875 -18.594 -20.409  0.00  0.00    -0.296 OA
ATOM      2  O   UNL     1      34.863 -10.192 -26.246  0.00  0.00    -0.287 OA
ATOM      3  C   UNL     1      33.816 -15.872 -23.851  0.00  0.00    +0.001 C 
ATOM      4  C   UNL     1      34.693 -16.968 -23.243  0.00  0.00    +0.007 C 
ATOM      5  C   UNL     1      34.239 -14.497 -23.223  0.00  0.00    +0.007 C 
ATOM      6  C   UNL     1      34.498 -17.072 -21.716  0.00  0.00    +0.052 C 
ATOM      7  C   UNL     1      33.422 -13.293 -23.825  0.00  0.00    +0.034 C 
ATOM      8  C   UNL     1      34.248 -14.558 -21.667  0.00  0.00    +0.001 C 
ATOM      9  C   UNL     1      35.000 -15.775 -21.095  0.00  0.00    +0.007 C 
ATOM     10  C   UNL     1      34.566 -18.407 -23.734  0.00  0.00    +0.008 C 
ATOM     11  C   UNL     1      33.931 -15.835 -25.382  0.00  0.00    +0.004 C 
ATOM     12  C   UNL     1      35.339 -18.313 -21.473  0.00  0.00    +0.150 C 
ATOM     13  C   UNL     1      35.405 -19.188 -22.713  0.00  0.00    +0.064 C 
ATOM     14  C   UNL     1      33.525 -13.375 -25.352  0.00  0.00    -0.038 C 
ATOM     15  C   UNL     1      33.125 -14.687 -25.981  0.00  0.00    +0.022 C 
ATOM     16  C   UNL     1      33.074 -17.408 -21.239  0.00  0.00    +0.007 C 
ATOM     17  C   UNL     1      31.932 -13.329 -23.417  0.00  0.00    +0.008 C 
ATOM     18  C   UNL     1      33.969 -11.971 -23.306  0.00  0.00    -0.020 C 
ATOM     19  C   UNL     1      33.993 -12.379 -26.121  0.00  0.00    +0.034 C 
ATOM     20  C   UNL     1      34.437 -10.976 -24.067  0.00  0.00    +0.038 C 
ATOM     21  C   UNL     1      34.461 -11.107 -25.535  0.00  0.00    +0.195 C 
ENDROOT
TORSDOF 0
ENDMDL
MODEL 4
REMARK VINA RESULT:      -8.2     13.521     17.810
REMARK  Name = 13472
REMARK  0 active torsions:
REMARK  status: ('A' for Active; 'I' for Inactive)
REMARK                            x       y       z     vdW  Elec       q    Type
REMARK                         _______ _______ _______ _____ _____    ______ ____
ROOT
ATOM      1  O   UNL     1      29.772  -2.884 -25.314  0.00  0.00    -0.296 OA
ATOM      2  O   UNL     1      33.318 -12.401 -23.716  0.00  0.00    -0.287 OA
ATOM      3  C   UNL     1      33.162  -6.170 -24.213  0.00  0.00    +0.001 C 
ATOM      4  C   UNL     1      32.376  -5.172 -25.066  0.00  0.00    +0.007 C 
ATOM      5  C   UNL     1      32.157  -7.233 -23.645  0.00  0.00    +0.007 C 
ATOM      6  C   UNL     1      31.321  -4.417 -24.231  0.00  0.00    +0.052 C 
ATOM      7  C   UNL     1      32.882  -8.338 -22.790  0.00  0.00    +0.034 C 
ATOM      8  C   UNL     1      30.950  -6.554 -22.934  0.00  0.00    +0.001 C 
ATOM      9  C   UNL     1      30.288  -5.433 -23.759  0.00  0.00    +0.007 C 
ATOM     10  C   UNL     1      33.109  -4.070 -25.823  0.00  0.00    +0.008 C 
ATOM     11  C   UNL     1      34.280  -6.847 -25.019  0.00  0.00    +0.004 C 
ATOM     12  C   UNL     1      30.867  -3.430 -25.292  0.00  0.00    +0.150 C 
ATOM     13  C   UNL     1      31.962  -3.174 -26.313  0.00  0.00    +0.064 C 
ATOM     14  C   UNL     1      34.028  -8.906 -23.635  0.00  0.00    -0.038 C 
ATOM     15  C   UNL     1      35.008  -7.905 -24.195  0.00  0.00    +0.022 C 
ATOM     16  C   UNL     1      31.861  -3.581 -23.056  0.00  0.00    +0.007 C 
ATOM     17  C   UNL     1      33.459  -7.777 -21.469  0.00  0.00    +0.008 C 
ATOM     18  C   UNL     1      31.899  -9.429 -22.391  0.00  0.00    -0.020 C 
ATOM     19  C   UNL     1      34.158 -10.208 -23.933  0.00  0.00    +0.034 C 
ATOM     20  C   UNL     1      32.023 -10.726 -22.685  0.00  0.00    +0.038 C 
ATOM     21  C   UNL     1      33.179 -11.209 -23.462  0.00  0.00    +0.195 C 
ENDROOT
TORSDOF 0
ENDMDL
MODEL 5
REMARK VINA RESULT:      -8.2     14.311     18.694
REMARK  Name = 13472
REMARK  0 active torsions:
REMARK  status: ('A' for Active; 'I' for Inactive)
REMARK                            x       y       z     vdW  Elec       q    Type
REMARK                         _______ _______ _______ _____ _____    ______ ____
ROOT
ATOM      1  O   UNL     1      30.647  -2.355 -27.193  0.00  0.00    -0.296 OA
ATOM      2  O   UNL     1      32.583 -11.593 -23.119  0.00  0.00    -0.287 OA
ATOM      3  C   UNL     1      33.305  -5.607 -24.771  0.00  0.00    +0.001 C 
ATOM      4  C   UNL     1      32.840  -4.745 -25.948  0.00  0.00    +0.007 C 
ATOM      5  C   UNL     1      32.081  -6.445 -24.260  0.00  0.00    +0.007 C 
ATOM      6  C   UNL     1      31.738  -3.752 -25.525  0.00  0.00    +0.052 C 
ATOM      7  C   UNL     1      32.472  -7.405 -23.076  0.00  0.00    +0.034 C 
ATOM      8  C   UNL     1      30.847  -5.539 -23.977  0.00  0.00    +0.001 C 
ATOM      9  C   UNL     1      30.513  -4.563 -25.121  0.00  0.00    +0.007 C 
ATOM     10  C   UNL     1      33.845  -3.886 -26.708  0.00  0.00    +0.008 C 
ATOM     11  C   UNL     1      34.472  -6.524 -25.165  0.00  0.00    +0.004 C 
ATOM     12  C   UNL     1      31.638  -2.971 -26.824  0.00  0.00    +0.150 C 
ATOM     13  C   UNL     1      32.943  -3.020 -27.600  0.00  0.00    +0.064 C 
ATOM     14  C   UNL     1      33.687  -8.226 -23.521  0.00  0.00    -0.038 C 
ATOM     15  C   UNL     1      34.878  -7.444 -24.019  0.00  0.00    +0.022 C 
ATOM     16  C   UNL     1      32.124  -2.738 -24.433  0.00  0.00    +0.007 C 
ATOM     17  C   UNL     1      32.830  -6.634 -21.784  0.00  0.00    +0.008 C 
ATOM     18  C   UNL     1      31.300  -8.308 -22.717  0.00  0.00    -0.020 C 
ATOM     19  C   UNL     1      33.714  -9.568 -23.538  0.00  0.00    +0.034 C 
ATOM     20  C   UNL     1      31.320  -9.644 -22.732  0.00  0.00    +0.038 C 
ATOM     21  C   UNL     1      32.543 -10.368 -23.126  0.00  0.00    +0.195 C 
ENDROOT
TORSDOF 0
ENDMDL
MODEL 6
REMARK VINA RESULT:      -7.9     15.469     19.703
REMARK  Name = 13472
REMARK  0 active torsions:
REMARK  status: ('A' for Active; 'I' for Inactive)
REMARK                            x       y       z     vdW  Elec       q    Type
REMARK                         _______ _______ _______ _____ _____    ______ ____
ROOT
ATOM      1  O   UNL     1      35.338  -3.162 -28.529  0.00  0.00    -0.296 OA
ATOM      2  O   UNL     1      32.653  -7.311 -19.514  0.00  0.00    -0.287 OA
ATOM      3  C   UNL     1      32.208  -4.466 -25.064  0.00  0.00    +0.001 C 
ATOM      4  C   UNL     1      33.116  -3.548 -25.885  0.00  0.00    +0.007 C 
ATOM      5  C   UNL     1      33.071  -5.664 -24.531  0.00  0.00    +0.007 C 
ATOM      6  C   UNL     1      33.707  -4.278 -27.108  0.00  0.00    +0.052 C 
ATOM      7  C   UNL     1      32.232  -6.644 -23.629  0.00  0.00    +0.034 C 
ATOM      8  C   UNL     1      33.856  -6.359 -25.683  0.00  0.00    +0.001 C 
ATOM      9  C   UNL     1      34.623  -5.381 -26.593  0.00  0.00    +0.007 C 
ATOM     10  C   UNL     1      32.567  -2.246 -26.458  0.00  0.00    +0.008 C 
ATOM     11  C   UNL     1      31.539  -3.714 -23.905  0.00  0.00    +0.004 C 
ATOM     12  C   UNL     1      34.381  -3.088 -27.769  0.00  0.00    +0.150 C 
ATOM     13  C   UNL     1      33.694  -1.786 -27.395  0.00  0.00    +0.064 C 
ATOM     14  C   UNL     1      31.537  -5.807 -22.549  0.00  0.00    -0.038 C 
ATOM     15  C   UNL     1      30.703  -4.647 -23.034  0.00  0.00    +0.022 C 
ATOM     16  C   UNL     1      32.689  -4.825 -28.126  0.00  0.00    +0.007 C 
ATOM     17  C   UNL     1      31.162  -7.418 -24.433  0.00  0.00    +0.008 C 
ATOM     18  C   UNL     1      33.137  -7.699 -23.009  0.00  0.00    -0.020 C 
ATOM     19  C   UNL     1      31.681  -6.022 -21.232  0.00  0.00    +0.034 C 
ATOM     20  C   UNL     1      33.286  -7.918 -21.699  0.00  0.00    +0.038 C 
ATOM     21  C   UNL     1      32.546  -7.103 -20.717  0.00  0.00    +0.195 C 
ENDROOT
TORSDOF 0
ENDMDL
MODEL 7
REMARK VINA RESULT:      -7.5      9.144     13.608
REMARK  Name = 13472
REMARK  0 active torsions:
REMARK  status: ('A' for Active; 'I' for Inactive)
REMARK                            x       y       z     vdW  Elec       q    Type
REMARK                         _______ _______ _______ _____ _____    ______ ____
ROOT
ATOM      1  O   UNL     1      33.909  -6.459 -23.780  0.00  0.00    -0.296 OA
ATOM      2  O   UNL     1      34.732 -16.227 -20.681  0.00  0.00    -0.287 OA
ATOM      3  C   UNL     1      32.214 -10.689 -22.126  0.00  0.00    +0.001 C 
ATOM      4  C   UNL     1      32.696  -9.237 -22.082  0.00  0.00    +0.007 C 
ATOM      5  C   UNL     1      33.344 -11.564 -22.775  0.00  0.00    +0.007 C 
ATOM      6  C   UNL     1      32.960  -8.682 -23.497  0.00  0.00    +0.052 C 
ATOM      7  C   UNL     1      32.961 -13.090 -22.821  0.00  0.00    +0.034 C 
ATOM      8  C   UNL     1      33.809 -10.974 -24.139  0.00  0.00    +0.001 C 
ATOM      9  C   UNL     1      34.123  -9.466 -24.093  0.00  0.00    +0.007 C 
ATOM     10  C   UNL     1      31.835  -8.168 -21.417  0.00  0.00    +0.008 C 
ATOM     11  C   UNL     1      31.853 -11.210 -20.727  0.00  0.00    +0.004 C 
ATOM     12  C   UNL     1      33.238  -7.238 -23.117  0.00  0.00    +0.150 C 
ATOM     13  C   UNL     1      32.544  -6.866 -21.818  0.00  0.00    +0.064 C 
ATOM     14  C   UNL     1      32.540 -13.508 -21.408  0.00  0.00    -0.038 C 
ATOM     15  C   UNL     1      31.456 -12.683 -20.759  0.00  0.00    +0.022 C 
ATOM     16  C   UNL     1      31.752  -8.660 -24.451  0.00  0.00    +0.007 C 
ATOM     17  C   UNL     1      31.799 -13.378 -23.799  0.00  0.00    +0.008 C 
ATOM     18  C   UNL     1      34.140 -13.917 -23.312  0.00  0.00    -0.020 C 
ATOM     19  C   UNL     1      33.116 -14.511 -20.726  0.00  0.00    +0.034 C 
ATOM     20  C   UNL     1      34.718 -14.916 -22.637  0.00  0.00    +0.038 C 
ATOM     21  C   UNL     1      34.228 -15.296 -21.300  0.00  0.00    +0.195 C 
ENDROOT
TORSDOF 0
ENDMDL
MODEL 8
REMARK VINA RESULT:      -7.3      3.138      4.865
REMARK  Name = 13472
REMARK  0 active torsions:
REMARK  status: ('A' for Active; 'I' for Inactive)
REMARK                            x       y       z     vdW  Elec       q    Type
REMARK                         _______ _______ _______ _____ _____    ______ ____
ROOT
ATOM      1  O   UNL     1      37.880 -23.167 -13.187  0.00  0.00    -0.296 OA
ATOM      2  O   UNL     1      27.948 -21.691 -15.393  0.00  0.00    -0.287 OA
ATOM      3  C   UNL     1      33.887 -23.577 -15.905  0.00  0.00    +0.001 C 
ATOM      4  C   UNL     1      35.240 -23.031 -15.441  0.00  0.00    +0.007 C 
ATOM      5  C   UNL     1      32.882 -23.490 -14.703  0.00  0.00    +0.007 C 
ATOM      6  C   UNL     1      35.824 -23.867 -14.283  0.00  0.00    +0.052 C 
ATOM      7  C   UNL     1      31.441 -23.986 -15.097  0.00  0.00    +0.034 C 
ATOM      8  C   UNL     1      33.466 -24.156 -13.421  0.00  0.00    +0.001 C 
ATOM      9  C   UNL     1      34.900 -23.705 -13.082  0.00  0.00    +0.007 C 
ATOM     10  C   UNL     1      36.394 -22.909 -16.431  0.00  0.00    +0.008 C 
ATOM     11  C   UNL     1      33.353 -22.810 -17.123  0.00  0.00    +0.004 C 
ATOM     12  C   UNL     1      37.182 -23.194 -14.191  0.00  0.00    +0.150 C 
ATOM     13  C   UNL     1      37.587 -22.582 -15.522  0.00  0.00    +0.064 C 
ATOM     14  C   UNL     1      31.017 -23.230 -16.361  0.00  0.00    -0.038 C 
ATOM     15  C   UNL     1      31.966 -23.296 -17.532  0.00  0.00    +0.022 C 
ATOM     16  C   UNL     1      36.091 -25.352 -14.589  0.00  0.00    +0.007 C 
ATOM     17  C   UNL     1      31.396 -25.506 -15.379  0.00  0.00    +0.008 C 
ATOM     18  C   UNL     1      30.466 -23.740 -13.955  0.00  0.00    -0.020 C 
ATOM     19  C   UNL     1      29.899 -22.492 -16.447  0.00  0.00    +0.034 C 
ATOM     20  C   UNL     1      29.352 -23.006 -14.034  0.00  0.00    +0.038 C 
ATOM     21  C   UNL     1      28.981 -22.346 -15.299  0.00  0.00    +0.195 C 
ENDROOT
TORSDOF 0
ENDMDL
MODEL 9
REMARK VINA RESULT:      -7.2      7.943     11.412
REMARK  Name = 13472
REMARK  0 active torsions:
REMARK  status: ('A' for Active; 'I' for Inactive)
REMARK                            x       y       z     vdW  Elec       q    Type
REMARK                         _______ _______ _______ _____ _____    ______ ____
ROOT
ATOM      1  O   UNL     1      35.006 -17.084 -20.637  0.00  0.00    -0.296 OA
ATOM      2  O   UNL     1      32.701  -7.070 -20.951  0.00  0.00    -0.287 OA
ATOM      3  C   UNL     1      32.972 -13.113 -22.533  0.00  0.00    +0.001 C 
ATOM      4  C   UNL     1      33.997 -14.234 -22.351  0.00  0.00    +0.007 C 
ATOM      5  C   UNL     1      32.814 -12.361 -21.164  0.00  0.00    +0.007 C 
ATOM      6  C   UNL     1      33.531 -15.266 -21.302  0.00  0.00    +0.052 C 
ATOM      7  C   UNL     1      31.811 -11.152 -21.263  0.00  0.00    +0.034 C 
ATOM      8  C   UNL     1      32.519 -13.352 -20.000  0.00  0.00    +0.001 C 
ATOM      9  C   UNL     1      33.472 -14.562 -19.953  0.00  0.00    +0.007 C 
ATOM     10  C   UNL     1      34.421 -15.082 -23.545  0.00  0.00    +0.008 C 
ATOM     11  C   UNL     1      33.385 -12.141 -23.648  0.00  0.00    +0.004 C 
ATOM     12  C   UNL     1      34.642 -16.284 -21.489  0.00  0.00    +0.150 C 
ATOM     13  C   UNL     1      35.229 -16.211 -22.889  0.00  0.00    +0.064 C 
ATOM     14  C   UNL     1      32.248 -10.277 -22.444  0.00  0.00    -0.038 C 
ATOM     15  C   UNL     1      32.409 -10.976 -23.772  0.00  0.00    +0.022 C 
ATOM     16  C   UNL     1      32.212 -15.995 -21.613  0.00  0.00    +0.007 C 
ATOM     17  C   UNL     1      30.353 -11.612 -21.489  0.00  0.00    +0.008 C 
ATOM     18  C   UNL     1      31.807 -10.360 -19.963  0.00  0.00    -0.020 C 
ATOM     19  C   UNL     1      32.537  -8.971 -22.336  0.00  0.00    +0.034 C 
ATOM     20  C   UNL     1      32.095  -9.060 -19.849  0.00  0.00    +0.038 C 
ATOM     21  C   UNL     1      32.461  -8.269 -21.038  0.00  0.00    +0.195 C 
ENDROOT
TORSDOF 0
ENDMDL
