MODEL 1
REMARK VINA RESULT:      -8.8      0.000      0.000
REMARK  Name = 152946
REMARK  5 active torsions:
REMARK  status: ('A' for Active; 'I' for Inactive)
REMARK    1  A    between atoms: N_3  and  C_24
REMARK    2  A    between atoms: C_4  and  N_13
REMARK    3  A    between atoms: C_6  and  O_27
REMARK    4  A    between atoms: C_11  and  C_30
REMARK    5  A    between atoms: C_30  and  O_31
REMARK                            x       y       z     vdW  Elec       q    Type
REMARK                         _______ _______ _______ _____ _____    ______ ____
ROOT
ATOM      1  F   UNL     1      32.554 -16.049 -19.829  0.00  0.00    -0.203 F 
ATOM      2  O   UNL     1      31.037 -11.292 -20.460  0.00  0.00    -0.286 OA
ATOM      3  N   UNL     1      33.409 -12.091 -23.678  0.00  0.00    -0.285 N 
ATOM      4  C   UNL     1      33.576 -15.375 -21.863  0.00  0.00    +0.111 C 
ATOM      5  C   UNL     1      33.209 -13.120 -22.714  0.00  0.00    +0.090 C 
ATOM      6  C   UNL     1      33.796 -14.391 -22.830  0.00  0.00    +0.168 C 
ATOM      7  C   UNL     1      32.393 -12.871 -21.589  0.00  0.00    +0.058 C 
ATOM      8  C   UNL     1      32.768 -15.109 -20.761  0.00  0.00    +0.156 C 
ATOM      9  C   UNL     1      32.800 -10.863 -23.501  0.00  0.00    +0.075 C 
ATOM     10  C   UNL     1      32.174 -13.858 -20.620  0.00  0.00    +0.036 C 
ATOM     11  C   UNL     1      32.011 -10.524 -22.475  0.00  0.00    +0.129 C 
ATOM     12  C   UNL     1      31.751 -11.540 -21.423  0.00  0.00    +0.204 C 
ENDROOT
BRANCH   4  13
ATOM     13  N   UNL     1      34.155 -16.621 -21.984  0.00  0.00    -0.306 N 
ATOM     14  N   UNL     1      36.816 -19.119 -21.514  0.00  0.00    +0.386 N 
ATOM     15  C   UNL     1      34.394 -18.964 -22.233  0.00  0.00    +0.002 C 
ATOM     16  C   UNL     1      35.782 -18.313 -22.157  0.00  0.00    -0.040 C 
ATOM     17  C   UNL     1      33.496 -17.774 -22.602  0.00  0.00    +0.089 C 
ATOM     18  C   UNL     1      35.502 -16.948 -21.511  0.00  0.00    +0.070 C 
ATOM     19  C   UNL     1      33.976 -19.602 -20.902  0.00  0.00    -0.002 C 
ATOM     20  C   UNL     1      35.093 -20.482 -20.357  0.00  0.00    -0.023 C 
ATOM     21  C   UNL     1      36.393 -19.690 -20.234  0.00  0.00    -0.082 C 
ATOM     22  H   UNL     1      37.631 -18.529 -21.352  0.00  0.00    -0.084 HD
ATOM     23  H   UNL     1      37.023 -19.898 -22.139  0.00  0.00    -0.084 HD
ENDBRANCH   4  13
BRANCH   3  24
ATOM     24  C   UNL     1      34.244 -12.251 -24.891  0.00  0.00    +0.077 C 
ATOM     25  C   UNL     1      33.671 -12.010 -26.246  0.00  0.00    +0.022 C 
ATOM     26  C   UNL     1      34.685 -11.061 -25.675  0.00  0.00    +0.022 C 
ENDBRANCH   3  24
BRANCH   6  27
ATOM     27  O   UNL     1      34.601 -14.734 -23.880  0.00  0.00    -0.469 OA
ATOM     28  C   UNL     1      33.995 -15.456 -24.947  0.00  0.00    +0.253 C 
ENDBRANCH   6  27
BRANCH  11  30
ATOM     29  O   UNL     1      30.827  -8.663 -23.361  0.00  0.00    -0.245 OA
ATOM     30  C   UNL     1      31.449  -9.172 -22.447  0.00  0.00    +0.342 C 
BRANCH  30  31
ATOM     31  O   UNL     1      31.725  -8.591 -21.260  0.00  0.00    -0.477 OA
ATOM     32  H   UNL     1      31.077  -8.575 -20.583  0.00  0.00    +0.295 HD
ENDBRANCH  30  31
ENDBRANCH  11  30
TORSDOF 5
ENDMDL
MODEL 2
REMARK VINA RESULT:      -8.5      9.775     12.389
REMARK  Name = 152946
REMARK  5 active torsions:
REMARK  status: ('A' for Active; 'I' for Inactive)
REMARK    1  A    between atoms: N_3  and  C_24
REMARK    2  A    between atoms: C_4  and  N_13
REMARK    3  A    between atoms: C_6  and  O_27
REMARK    4  A    between atoms: C_11  and  C_30
REMARK    5  A    between atoms: C_30  and  O_31
REMARK                            x       y       z     vdW  Elec       q    Type
REMARK                         _______ _______ _______ _____ _____    ______ ____
ROOT
ATOM      1  F   UNL     1      34.508 -24.946 -11.968  0.00  0.00    -0.203 F 
ATOM      2  O   UNL     1      30.088 -23.753 -14.058  0.00  0.00    -0.286 OA
ATOM      3  N   UNL     1      32.869 -22.998 -16.941  0.00  0.00    -0.285 N 
ATOM      4  C   UNL     1      35.073 -24.220 -14.156  0.00  0.00    +0.111 C 
ATOM      5  C   UNL     1      33.317 -23.495 -15.684  0.00  0.00    +0.090 C 
ATOM      6  C   UNL     1      34.673 -23.732 -15.403  0.00  0.00    +0.168 C 
ATOM      7  C   UNL     1      32.376 -23.764 -14.666  0.00  0.00    +0.058 C 
ATOM      8  C   UNL     1      34.129 -24.478 -13.167  0.00  0.00    +0.156 C 
ATOM      9  C   UNL     1      31.520 -22.788 -17.150  0.00  0.00    +0.075 C 
ATOM     10  C   UNL     1      32.779 -24.252 -13.418  0.00  0.00    +0.036 C 
ATOM     11  C   UNL     1      30.548 -23.010 -16.257  0.00  0.00    +0.129 C 
ATOM     12  C   UNL     1      30.929 -23.528 -14.918  0.00  0.00    +0.204 C 
ENDROOT
BRANCH   4  13
ATOM     13  N   UNL     1      36.406 -24.451 -13.887  0.00  0.00    -0.306 N 
ATOM     14  N   UNL     1      39.430 -26.522 -13.566  0.00  0.00    +0.386 N 
ATOM     15  C   UNL     1      38.731 -24.091 -13.616  0.00  0.00    +0.002 C 
ATOM     16  C   UNL     1      38.393 -25.543 -13.254  0.00  0.00    -0.040 C 
ATOM     17  C   UNL     1      37.361 -23.403 -13.518  0.00  0.00    +0.089 C 
ATOM     18  C   UNL     1      37.034 -25.773 -13.932  0.00  0.00    +0.070 C 
ATOM     19  C   UNL     1      39.333 -23.963 -15.021  0.00  0.00    -0.002 C 
ATOM     20  C   UNL     1      40.455 -24.975 -15.215  0.00  0.00    -0.023 C 
ATOM     21  C   UNL     1      39.963 -26.391 -14.923  0.00  0.00    -0.082 C 
ATOM     22  H   UNL     1      39.035 -27.456 -13.462  0.00  0.00    -0.084 HD
ATOM     23  H   UNL     1      40.204 -26.358 -12.921  0.00  0.00    -0.084 HD
ENDBRANCH   4  13
BRANCH   3  24
ATOM     24  C   UNL     1      33.774 -22.686 -18.072  0.00  0.00    +0.077 C 
ATOM     25  C   UNL     1      33.531 -23.267 -19.423  0.00  0.00    +0.022 C 
ATOM     26  C   UNL     1      33.325 -21.799 -19.184  0.00  0.00    +0.022 C 
ENDBRANCH   3  24
BRANCH   6  27
ATOM     27  O   UNL     1      35.662 -23.505 -16.318  0.00  0.00    -0.469 OA
ATOM     28  C   UNL     1      36.272 -22.218 -16.300  0.00  0.00    +0.253 C 
ENDBRANCH   6  27
BRANCH  11  30
ATOM     29  O   UNL     1      28.626 -23.175 -17.646  0.00  0.00    -0.245 OA
ATOM     30  C   UNL     1      29.165 -22.730 -16.649  0.00  0.00    +0.342 C 
BRANCH  30  31
ATOM     31  O   UNL     1      28.593 -21.912 -15.740  0.00  0.00    -0.477 OA
ATOM     32  H   UNL     1      28.520 -22.182 -14.846  0.00  0.00    +0.295 HD
ENDBRANCH  30  31
ENDBRANCH  11  30
TORSDOF 5
ENDMDL
MODEL 3
REMARK VINA RESULT:      -8.0      7.783     12.609
REMARK  Name = 152946
REMARK  5 active torsions:
REMARK  status: ('A' for Active; 'I' for Inactive)
REMARK    1  A    between atoms: N_3  and  C_24
REMARK    2  A    between atoms: C_4  and  N_13
REMARK    3  A    between atoms: C_6  and  O_27
REMARK    4  A    between atoms: C_11  and  C_30
REMARK    5  A    between atoms: C_30  and  O_31
REMARK                            x       y       z     vdW  Elec       q    Type
REMARK                         _______ _______ _______ _____ _____    ______ ____
ROOT
ATOM      1  F   UNL     1      37.580 -21.394 -17.710  0.00  0.00    -0.203 F 
ATOM      2  O   UNL     1      37.878 -23.255 -13.043  0.00  0.00    -0.286 OA
ATOM      3  N   UNL     1      34.034 -23.934 -14.219  0.00  0.00    -0.285 N 
ATOM      4  C   UNL     1      35.404 -22.239 -17.278  0.00  0.00    +0.111 C 
ATOM      5  C   UNL     1      34.915 -23.285 -15.131  0.00  0.00    +0.090 C 
ATOM      6  C   UNL     1      34.510 -22.873 -16.411  0.00  0.00    +0.168 C 
ATOM      7  C   UNL     1      36.251 -23.036 -14.750  0.00  0.00    +0.058 C 
ATOM      8  C   UNL     1      36.717 -22.003 -16.883  0.00  0.00    +0.156 C 
ATOM      9  C   UNL     1      34.499 -24.313 -12.974  0.00  0.00    +0.075 C 
ATOM     10  C   UNL     1      37.145 -22.400 -15.619  0.00  0.00    +0.036 C 
ATOM     11  C   UNL     1      35.741 -24.126 -12.516  0.00  0.00    +0.129 C 
ATOM     12  C   UNL     1      36.725 -23.455 -13.404  0.00  0.00    +0.204 C 
ENDROOT
BRANCH   4  13
ATOM     13  N   UNL     1      35.000 -21.837 -18.534  0.00  0.00    -0.306 N 
ATOM     14  N   UNL     1      32.687 -20.332 -20.968  0.00  0.00    +0.386 N 
ATOM     15  C   UNL     1      35.083 -21.129 -20.793  0.00  0.00    +0.002 C 
ATOM     16  C   UNL     1      33.619 -21.275 -20.355  0.00  0.00    -0.040 C 
ATOM     17  C   UNL     1      35.822 -21.969 -19.740  0.00  0.00    +0.089 C 
ATOM     18  C   UNL     1      33.698 -21.232 -18.822  0.00  0.00    +0.070 C 
ATOM     19  C   UNL     1      35.551 -19.669 -20.789  0.00  0.00    -0.002 C 
ATOM     20  C   UNL     1      34.548 -18.784 -21.519  0.00  0.00    -0.023 C 
ATOM     21  C   UNL     1      33.151 -18.945 -20.923  0.00  0.00    -0.082 C 
ATOM     22  H   UNL     1      31.796 -20.392 -20.476  0.00  0.00    -0.084 HD
ATOM     23  H   UNL     1      32.601 -20.590 -21.952  0.00  0.00    -0.084 HD
ENDBRANCH   4  13
BRANCH   3  24
ATOM     24  C   UNL     1      32.616 -24.241 -14.522  0.00  0.00    +0.077 C 
ATOM     25  C   UNL     1      31.784 -25.017 -13.559  0.00  0.00    +0.022 C 
ATOM     26  C   UNL     1      31.514 -23.557 -13.784  0.00  0.00    +0.022 C 
ENDBRANCH   3  24
BRANCH   6  27
ATOM     27  O   UNL     1      33.240 -23.067 -16.877  0.00  0.00    -0.469 OA
ATOM     28  C   UNL     1      33.025 -24.202 -17.709  0.00  0.00    +0.253 C 
ENDBRANCH   6  27
BRANCH  11  30
ATOM     29  O   UNL     1      35.261 -25.096 -10.399  0.00  0.00    -0.245 OA
ATOM     30  C   UNL     1      36.062 -24.592 -11.165  0.00  0.00    +0.342 C 
BRANCH  30  31
ATOM     31  O   UNL     1      37.370 -24.377 -10.910  0.00  0.00    -0.477 OA
ATOM     32  H   UNL     1      37.970 -24.242 -11.617  0.00  0.00    +0.295 HD
ENDBRANCH  30  31
ENDBRANCH  11  30
TORSDOF 5
ENDMDL
MODEL 4
REMARK VINA RESULT:      -7.6      2.895      8.046
REMARK  Name = 152946
REMARK  5 active torsions:
REMARK  status: ('A' for Active; 'I' for Inactive)
REMARK    1  A    between atoms: N_3  and  C_24
REMARK    2  A    between atoms: C_4  and  N_13
REMARK    3  A    between atoms: C_6  and  O_27
REMARK    4  A    between atoms: C_11  and  C_30
REMARK    5  A    between atoms: C_30  and  O_31
REMARK                            x       y       z     vdW  Elec       q    Type
REMARK                         _______ _______ _______ _____ _____    ______ ____
ROOT
ATOM      1  F   UNL     1      31.690  -9.776 -20.157  0.00  0.00    -0.203 F 
ATOM      2  O   UNL     1      32.137 -14.744 -19.492  0.00  0.00    -0.286 OA
ATOM      3  N   UNL     1      33.215 -14.086 -23.368  0.00  0.00    -0.285 N 
ATOM      4  C   UNL     1      32.429 -10.583 -22.264  0.00  0.00    +0.111 C 
ATOM      5  C   UNL     1      32.832 -12.968 -22.573  0.00  0.00    +0.090 C 
ATOM      6  C   UNL     1      32.811 -11.655 -23.074  0.00  0.00    +0.168 C 
ATOM      7  C   UNL     1      32.452 -13.166 -21.228  0.00  0.00    +0.058 C 
ATOM      8  C   UNL     1      32.059 -10.801 -20.940  0.00  0.00    +0.156 C 
ATOM      9  C   UNL     1      33.213 -15.351 -22.811  0.00  0.00    +0.075 C 
ATOM     10  C   UNL     1      32.070 -12.091 -20.418  0.00  0.00    +0.036 C 
ATOM     11  C   UNL     1      32.873 -15.648 -21.551  0.00  0.00    +0.129 C 
ATOM     12  C   UNL     1      32.459 -14.539 -20.654  0.00  0.00    +0.204 C 
ENDROOT
BRANCH   4  13
ATOM     13  N   UNL     1      32.412  -9.297 -22.761  0.00  0.00    -0.306 N 
ATOM     14  N   UNL     1      30.865  -6.358 -24.345  0.00  0.00    +0.386 N 
ATOM     15  C   UNL     1      32.966  -7.020 -23.100  0.00  0.00    +0.002 C 
ATOM     16  C   UNL     1      31.827  -7.416 -24.049  0.00  0.00    -0.040 C 
ATOM     17  C   UNL     1      33.556  -8.384 -22.713  0.00  0.00    +0.089 C 
ATOM     18  C   UNL     1      31.247  -8.682 -23.402  0.00  0.00    +0.070 C 
ATOM     19  C   UNL     1      32.464  -6.247 -21.874  0.00  0.00    -0.002 C 
ATOM     20  C   UNL     1      31.531  -5.120 -22.298  0.00  0.00    -0.023 C 
ATOM     21  C   UNL     1      30.385  -5.660 -23.151  0.00  0.00    -0.082 C 
ATOM     22  H   UNL     1      30.065  -6.773 -24.822  0.00  0.00    -0.084 HD
ATOM     23  H   UNL     1      31.344  -5.669 -24.926  0.00  0.00    -0.084 HD
ENDBRANCH   4  13
BRANCH   3  24
ATOM     24  C   UNL     1      33.629 -13.984 -24.786  0.00  0.00    +0.077 C 
ATOM     25  C   UNL     1      33.802 -15.210 -25.618  0.00  0.00    +0.022 C 
ATOM     26  C   UNL     1      32.662 -14.270 -25.885  0.00  0.00    +0.022 C 
ENDBRANCH   3  24
BRANCH   6  27
ATOM     27  O   UNL     1      33.160 -11.355 -24.361  0.00  0.00    -0.469 OA
ATOM     28  C   UNL     1      34.502 -10.936 -24.583  0.00  0.00    +0.253 C 
ENDBRANCH   6  27
BRANCH  11  30
ATOM     29  O   UNL     1      33.900 -17.771 -21.252  0.00  0.00    -0.245 OA
ATOM     30  C   UNL     1      32.927 -17.049 -21.128  0.00  0.00    +0.342 C 
BRANCH  30  31
ATOM     31  O   UNL     1      31.744 -17.405 -20.585  0.00  0.00    -0.477 OA
ATOM     32  H   UNL     1      30.944 -17.203 -21.029  0.00  0.00    +0.295 HD
ENDBRANCH  30  31
ENDBRANCH  11  30
TORSDOF 5
ENDMDL
MODEL 5
REMARK VINA RESULT:      -7.5      2.596      7.298
REMARK  Name = 152946
REMARK  5 active torsions:
REMARK  status: ('A' for Active; 'I' for Inactive)
REMARK    1  A    between atoms: N_3  and  C_24
REMARK    2  A    between atoms: C_4  and  N_13
REMARK    3  A    between atoms: C_6  and  O_27
REMARK    4  A    between atoms: C_11  and  C_30
REMARK    5  A    between atoms: C_30  and  O_31
REMARK                            x       y       z     vdW  Elec       q    Type
REMARK                         _______ _______ _______ _____ _____    ______ ____
ROOT
ATOM      1  F   UNL     1      32.288 -13.629 -19.159  0.00  0.00    -0.203 F 
ATOM      2  O   UNL     1      34.208 -17.708 -21.397  0.00  0.00    -0.286 OA
ATOM      3  N   UNL     1      33.739 -14.974 -24.384  0.00  0.00    -0.285 N 
ATOM      4  C   UNL     1      32.476 -13.009 -21.443  0.00  0.00    +0.111 C 
ATOM      5  C   UNL     1      33.361 -14.602 -23.062  0.00  0.00    +0.090 C 
ATOM      6  C   UNL     1      32.836 -13.337 -22.753  0.00  0.00    +0.168 C 
ATOM      7  C   UNL     1      33.511 -15.530 -22.008  0.00  0.00    +0.058 C 
ATOM      8  C   UNL     1      32.632 -13.938 -20.419  0.00  0.00    +0.156 C 
ATOM      9  C   UNL     1      34.250 -16.237 -24.618  0.00  0.00    +0.075 C 
ATOM     10  C   UNL     1      33.150 -15.200 -20.697  0.00  0.00    +0.036 C 
ATOM     11  C   UNL     1      34.434 -17.187 -23.694  0.00  0.00    +0.129 C 
ATOM     12  C   UNL     1      34.064 -16.882 -22.288  0.00  0.00    +0.204 C 
ENDROOT
BRANCH   4  13
ATOM     13  N   UNL     1      31.961 -11.764 -21.146  0.00  0.00    -0.306 N 
ATOM     14  N   UNL     1      31.847  -8.543 -19.372  0.00  0.00    +0.386 N 
ATOM     15  C   UNL     1      30.811  -9.706 -21.366  0.00  0.00    +0.002 C 
ATOM     16  C   UNL     1      31.413  -9.808 -19.958  0.00  0.00    -0.040 C 
ATOM     17  C   UNL     1      30.806 -11.173 -21.824  0.00  0.00    +0.089 C 
ATOM     18  C   UNL     1      32.502 -10.880 -20.112  0.00  0.00    +0.070 C 
ATOM     19  C   UNL     1      31.648  -8.821 -22.297  0.00  0.00    -0.002 C 
ATOM     20  C   UNL     1      31.980  -7.497 -21.620  0.00  0.00    -0.023 C 
ATOM     21  C   UNL     1      32.667  -7.735 -20.277  0.00  0.00    -0.082 C 
ATOM     22  H   UNL     1      32.392  -8.745 -18.534  0.00  0.00    -0.084 HD
ATOM     23  H   UNL     1      31.006  -8.003 -19.163  0.00  0.00    -0.084 HD
ENDBRANCH   4  13
BRANCH   3  24
ATOM     24  C   UNL     1      33.622 -14.076 -25.556  0.00  0.00    +0.077 C 
ATOM     25  C   UNL     1      33.716 -14.619 -26.942  0.00  0.00    +0.022 C 
ATOM     26  C   UNL     1      32.406 -14.105 -26.420  0.00  0.00    +0.022 C 
ENDBRANCH   3  24
BRANCH   6  27
ATOM     27  O   UNL     1      32.650 -12.368 -23.699  0.00  0.00    -0.469 OA
ATOM     28  C   UNL     1      33.711 -11.437 -23.883  0.00  0.00    +0.253 C 
ENDBRANCH   6  27
BRANCH  11  30
ATOM     29  O   UNL     1      34.454 -19.227 -24.914  0.00  0.00    -0.245 OA
ATOM     30  C   UNL     1      34.988 -18.474 -24.120  0.00  0.00    +0.342 C 
BRANCH  30  31
ATOM     31  O   UNL     1      36.168 -18.687 -23.501  0.00  0.00    -0.477 OA
ATOM     32  H   UNL     1      36.192 -19.130 -22.676  0.00  0.00    +0.295 HD
ENDBRANCH  30  31
ENDBRANCH  11  30
TORSDOF 5
ENDMDL
MODEL 6
REMARK VINA RESULT:      -7.4      2.902      8.365
REMARK  Name = 152946
REMARK  5 active torsions:
REMARK  status: ('A' for Active; 'I' for Inactive)
REMARK    1  A    between atoms: N_3  and  C_24
REMARK    2  A    between atoms: C_4  and  N_13
REMARK    3  A    between atoms: C_6  and  O_27
REMARK    4  A    between atoms: C_11  and  C_30
REMARK    5  A    between atoms: C_30  and  O_31
REMARK                            x       y       z     vdW  Elec       q    Type
REMARK                         _______ _______ _______ _____ _____    ______ ____
ROOT
ATOM      1  F   UNL     1      33.068 -10.866 -26.145  0.00  0.00    -0.203 F 
ATOM      2  O   UNL     1      34.192 -15.765 -26.404  0.00  0.00    -0.286 OA
ATOM      3  N   UNL     1      33.785 -14.973 -22.426  0.00  0.00    -0.285 N 
ATOM      4  C   UNL     1      33.098 -11.579 -23.881  0.00  0.00    +0.111 C 
ATOM      5  C   UNL     1      33.595 -13.906 -23.350  0.00  0.00    +0.090 C 
ATOM      6  C   UNL     1      33.276 -12.600 -22.944  0.00  0.00    +0.168 C 
ATOM      7  C   UNL     1      33.732 -14.151 -24.734  0.00  0.00    +0.058 C 
ATOM      8  C   UNL     1      33.237 -11.842 -25.241  0.00  0.00    +0.156 C 
ATOM      9  C   UNL     1      34.097 -16.234 -22.895  0.00  0.00    +0.075 C 
ATOM     10  C   UNL     1      33.553 -13.127 -25.672  0.00  0.00    +0.036 C 
ATOM     11  C   UNL     1      34.248 -16.573 -24.181  0.00  0.00    +0.129 C 
ATOM     12  C   UNL     1      34.069 -15.519 -25.212  0.00  0.00    +0.204 C 
ENDROOT
BRANCH   4  13
ATOM     13  N   UNL     1      32.784 -10.299 -23.475  0.00  0.00    -0.306 N 
ATOM     14  N   UNL     1      33.436  -6.715 -22.952  0.00  0.00    +0.386 N 
ATOM     15  C   UNL     1      31.525  -8.373 -22.913  0.00  0.00    +0.002 C 
ATOM     16  C   UNL     1      33.017  -8.091 -22.695  0.00  0.00    -0.040 C 
ATOM     17  C   UNL     1      31.483  -9.909 -22.926  0.00  0.00    +0.089 C 
ATOM     18  C   UNL     1      33.712  -9.168 -23.540  0.00  0.00    +0.070 C 
ATOM     19  C   UNL     1      31.003  -7.778 -24.227  0.00  0.00    -0.002 C 
ATOM     20  C   UNL     1      31.429  -6.322 -24.360  0.00  0.00    -0.023 C 
ATOM     21  C   UNL     1      32.945  -6.188 -24.226  0.00  0.00    -0.082 C 
ATOM     22  H   UNL     1      34.455  -6.684 -22.960  0.00  0.00    -0.084 HD
ATOM     23  H   UNL     1      33.039  -6.136 -22.212  0.00  0.00    -0.084 HD
ENDBRANCH   4  13
BRANCH   3  24
ATOM     24  C   UNL     1      33.664 -14.820 -20.958  0.00  0.00    +0.077 C 
ATOM     25  C   UNL     1      32.771 -15.718 -20.170  0.00  0.00    +0.022 C 
ATOM     26  C   UNL     1      34.262 -15.828 -20.035  0.00  0.00    +0.022 C 
ENDBRANCH   3  24
BRANCH   6  27
ATOM     27  O   UNL     1      33.122 -12.258 -21.630  0.00  0.00    -0.469 OA
ATOM     28  C   UNL     1      31.806 -12.344 -21.092  0.00  0.00    +0.253 C 
ENDBRANCH   6  27
BRANCH  11  30
ATOM     29  O   UNL     1      35.376 -18.644 -23.875  0.00  0.00    -0.245 OA
ATOM     30  C   UNL     1      34.582 -17.963 -24.500  0.00  0.00    +0.342 C 
BRANCH  30  31
ATOM     31  O   UNL     1      33.878 -18.362 -25.580  0.00  0.00    -0.477 OA
ATOM     32  H   UNL     1      33.820 -19.273 -25.791  0.00  0.00    +0.295 HD
ENDBRANCH  30  31
ENDBRANCH  11  30
TORSDOF 5
ENDMDL
MODEL 7
REMARK VINA RESULT:      -7.4      5.601     10.132
REMARK  Name = 152946
REMARK  5 active torsions:
REMARK  status: ('A' for Active; 'I' for Inactive)
REMARK    1  A    between atoms: N_3  and  C_24
REMARK    2  A    between atoms: C_4  and  N_13
REMARK    3  A    between atoms: C_6  and  O_27
REMARK    4  A    between atoms: C_11  and  C_30
REMARK    5  A    between atoms: C_30  and  O_31
REMARK                            x       y       z     vdW  Elec       q    Type
REMARK                         _______ _______ _______ _____ _____    ______ ____
ROOT
ATOM      1  F   UNL     1      32.131 -19.883 -21.168  0.00  0.00    -0.203 F 
ATOM      2  O   UNL     1      31.487 -22.991 -17.262  0.00  0.00    -0.286 OA
ATOM      3  N   UNL     1      35.504 -22.320 -17.441  0.00  0.00    -0.285 N 
ATOM      4  C   UNL     1      34.326 -20.235 -20.334  0.00  0.00    +0.111 C 
ATOM      5  C   UNL     1      34.670 -21.684 -18.404  0.00  0.00    +0.090 C 
ATOM      6  C   UNL     1      35.177 -20.841 -19.406  0.00  0.00    +0.168 C 
ATOM      7  C   UNL     1      33.275 -21.900 -18.367  0.00  0.00    +0.058 C 
ATOM      8  C   UNL     1      32.953 -20.461 -20.280  0.00  0.00    +0.156 C 
ATOM      9  C   UNL     1      34.938 -23.138 -16.481  0.00  0.00    +0.075 C 
ATOM     10  C   UNL     1      32.423 -21.292 -19.297  0.00  0.00    +0.036 C 
ATOM     11  C   UNL     1      33.633 -23.408 -16.357  0.00  0.00    +0.129 C 
ATOM     12  C   UNL     1      32.692 -22.785 -17.323  0.00  0.00    +0.204 C 
ENDROOT
BRANCH   4  13
ATOM     13  N   UNL     1      34.830 -19.408 -21.315  0.00  0.00    -0.306 N 
ATOM     14  N   UNL     1      35.369 -18.293 -24.780  0.00  0.00    +0.386 N 
ATOM     15  C   UNL     1      35.680 -17.484 -22.403  0.00  0.00    +0.002 C 
ATOM     16  C   UNL     1      35.643 -18.656 -23.392  0.00  0.00    -0.040 C 
ATOM     17  C   UNL     1      35.615 -18.201 -21.046  0.00  0.00    +0.089 C 
ATOM     18  C   UNL     1      34.647 -19.633 -22.751  0.00  0.00    +0.070 C 
ATOM     19  C   UNL     1      34.503 -16.519 -22.594  0.00  0.00    -0.002 C 
ATOM     20  C   UNL     1      34.354 -16.144 -24.063  0.00  0.00    -0.023 C 
ATOM     21  C   UNL     1      34.223 -17.394 -24.930  0.00  0.00    -0.082 C 
ATOM     22  H   UNL     1      35.183 -19.146 -25.307  0.00  0.00    -0.084 HD
ATOM     23  H   UNL     1      36.190 -17.797 -25.129  0.00  0.00    -0.084 HD
ENDBRANCH   4  13
BRANCH   3  24
ATOM     24  C   UNL     1      36.976 -22.160 -17.394  0.00  0.00    +0.077 C 
ATOM     25  C   UNL     1      37.605 -21.183 -16.458  0.00  0.00    +0.022 C 
ATOM     26  C   UNL     1      37.760 -22.659 -16.227  0.00  0.00    +0.022 C 
ENDBRANCH   3  24
BRANCH   6  27
ATOM     27  O   UNL     1      36.510 -20.568 -19.529  0.00  0.00    -0.469 OA
ATOM     28  C   UNL     1      37.248 -21.362 -20.452  0.00  0.00    +0.253 C 
ENDBRANCH   6  27
BRANCH  11  30
ATOM     29  O   UNL     1      32.060 -24.410 -14.884  0.00  0.00    -0.245 OA
ATOM     30  C   UNL     1      33.207 -24.301 -15.278  0.00  0.00    +0.342 C 
BRANCH  30  31
ATOM     31  O   UNL     1      34.274 -24.975 -14.799  0.00  0.00    -0.477 OA
ATOM     32  H   UNL     1      34.379 -25.886 -14.992  0.00  0.00    +0.295 HD
ENDBRANCH  30  31
ENDBRANCH  11  30
TORSDOF 5
ENDMDL
MODEL 8
REMARK VINA RESULT:      -6.9      2.794      8.068
REMARK  Name = 152946
REMARK  5 active torsions:
REMARK  status: ('A' for Active; 'I' for Inactive)
REMARK    1  A    between atoms: N_3  and  C_24
REMARK    2  A    between atoms: C_4  and  N_13
REMARK    3  A    between atoms: C_6  and  O_27
REMARK    4  A    between atoms: C_11  and  C_30
REMARK    5  A    between atoms: C_30  and  O_31
REMARK                            x       y       z     vdW  Elec       q    Type
REMARK                         _______ _______ _______ _____ _____    ______ ____
ROOT
ATOM      1  F   UNL     1      30.913 -10.380 -19.879  0.00  0.00    -0.203 F 
ATOM      2  O   UNL     1      32.746 -15.049 -20.286  0.00  0.00    -0.286 OA
ATOM      3  N   UNL     1      33.661 -13.232 -23.819  0.00  0.00    -0.285 N 
ATOM      4  C   UNL     1      31.889 -10.437 -22.042  0.00  0.00    +0.111 C 
ATOM      5  C   UNL     1      32.961 -12.479 -22.834  0.00  0.00    +0.090 C 
ATOM      6  C   UNL     1      32.576 -11.143 -23.033  0.00  0.00    +0.168 C 
ATOM      7  C   UNL     1      32.629 -13.084 -21.602  0.00  0.00    +0.058 C 
ATOM      8  C   UNL     1      31.572 -11.052 -20.834  0.00  0.00    +0.156 C 
ATOM      9  C   UNL     1      34.009 -14.543 -23.556  0.00  0.00    +0.075 C 
ATOM     10  C   UNL     1      31.941 -12.375 -20.609  0.00  0.00    +0.036 C 
ATOM     11  C   UNL     1      33.745 -15.209 -22.426  0.00  0.00    +0.129 C 
ATOM     12  C   UNL     1      33.016 -14.497 -21.345  0.00  0.00    +0.204 C 
ENDROOT
BRANCH   4  13
ATOM     13  N   UNL     1      31.514  -9.125 -22.244  0.00  0.00    -0.306 N 
ATOM     14  N   UNL     1      31.760  -5.482 -21.790  0.00  0.00    +0.386 N 
ATOM     15  C   UNL     1      30.596  -7.189 -23.251  0.00  0.00    +0.002 C 
ATOM     16  C   UNL     1      31.188  -6.823 -21.884  0.00  0.00    -0.040 C 
ATOM     17  C   UNL     1      30.429  -8.712 -23.136  0.00  0.00    +0.089 C 
ATOM     18  C   UNL     1      32.153  -7.981 -21.590  0.00  0.00    +0.070 C 
ATOM     19  C   UNL     1      31.521  -6.803 -24.411  0.00  0.00    -0.002 C 
ATOM     20  C   UNL     1      31.999  -5.365 -24.258  0.00  0.00    -0.023 C 
ATOM     21  C   UNL     1      32.660  -5.157 -22.897  0.00  0.00    -0.082 C 
ATOM     22  H   UNL     1      32.283  -5.414 -20.917  0.00  0.00    -0.084 HD
ATOM     23  H   UNL     1      30.984  -4.820 -21.826  0.00  0.00    -0.084 HD
ENDBRANCH   4  13
BRANCH   3  24
ATOM     24  C   UNL     1      34.054 -12.691 -25.141  0.00  0.00    +0.077 C 
ATOM     25  C   UNL     1      34.190 -13.592 -26.322  0.00  0.00    +0.022 C 
ATOM     26  C   UNL     1      33.064 -12.602 -26.253  0.00  0.00    +0.022 C 
ENDBRANCH   3  24
BRANCH   6  27
ATOM     27  O   UNL     1      32.847 -10.467 -24.189  0.00  0.00    -0.469 OA
ATOM     28  C   UNL     1      34.010  -9.645 -24.197  0.00  0.00    +0.253 C 
ENDBRANCH   6  27
BRANCH  11  30
ATOM     29  O   UNL     1      34.199 -17.396 -23.239  0.00  0.00    -0.245 OA
ATOM     30  C   UNL     1      34.189 -16.600 -22.317  0.00  0.00    +0.342 C 
BRANCH  30  31
ATOM     31  O   UNL     1      34.581 -16.853 -21.051  0.00  0.00    -0.477 OA
ATOM     32  H   UNL     1      34.568 -16.170 -20.410  0.00  0.00    +0.295 HD
ENDBRANCH  30  31
ENDBRANCH  11  30
TORSDOF 5
ENDMDL
MODEL 9
REMARK VINA RESULT:      -6.1      2.031      3.580
REMARK  Name = 152946
REMARK  5 active torsions:
REMARK  status: ('A' for Active; 'I' for Inactive)
REMARK    1  A    between atoms: N_3  and  C_24
REMARK    2  A    between atoms: C_4  and  N_13
REMARK    3  A    between atoms: C_6  and  O_27
REMARK    4  A    between atoms: C_11  and  C_30
REMARK    5  A    between atoms: C_30  and  O_31
REMARK                            x       y       z     vdW  Elec       q    Type
REMARK                         _______ _______ _______ _____ _____    ______ ____
ROOT
ATOM      1  F   UNL     1      34.857 -15.166 -24.328  0.00  0.00    -0.203 F 
ATOM      2  O   UNL     1      33.310 -10.439 -25.096  0.00  0.00    -0.286 OA
ATOM      3  N   UNL     1      32.077 -11.365 -21.322  0.00  0.00    -0.285 N 
ATOM      4  C   UNL     1      33.766 -14.573 -22.305  0.00  0.00    +0.111 C 
ATOM      5  C   UNL     1      32.784 -12.354 -22.064  0.00  0.00    +0.090 C 
ATOM      6  C   UNL     1      33.069 -13.628 -21.547  0.00  0.00    +0.168 C 
ATOM      7  C   UNL     1      33.222 -12.061 -23.374  0.00  0.00    +0.058 C 
ATOM      8  C   UNL     1      34.189 -14.264 -23.595  0.00  0.00    +0.156 C 
ATOM      9  C   UNL     1      31.830 -10.131 -21.893  0.00  0.00    +0.075 C 
ATOM     10  C   UNL     1      33.919 -13.008 -24.133  0.00  0.00    +0.036 C 
ATOM     11  C   UNL     1      32.201  -9.752 -23.122  0.00  0.00    +0.129 C 
ATOM     12  C   UNL     1      32.943 -10.725 -23.964  0.00  0.00    +0.204 C 
ENDROOT
BRANCH   4  13
ATOM     13  N   UNL     1      34.043 -15.822 -21.791  0.00  0.00    -0.306 N 
ATOM     14  N   UNL     1      33.674 -19.474 -21.527  0.00  0.00    +0.386 N 
ATOM     15  C   UNL     1      35.195 -17.608 -20.746  0.00  0.00    +0.002 C 
ATOM     16  C   UNL     1      33.786 -18.069 -21.141  0.00  0.00    -0.040 C 
ATOM     17  C   UNL     1      35.052 -16.078 -20.761  0.00  0.00    +0.089 C 
ATOM     18  C   UNL     1      33.362 -17.050 -22.208  0.00  0.00    +0.070 C 
ATOM     19  C   UNL     1      36.266 -18.090 -21.731  0.00  0.00    -0.002 C 
ATOM     20  C   UNL     1      36.108 -19.580 -22.005  0.00  0.00    -0.023 C 
ATOM     21  C   UNL     1      34.693 -19.894 -22.490  0.00  0.00    -0.082 C 
ATOM     22  H   UNL     1      32.755 -19.622 -21.943  0.00  0.00    -0.084 HD
ATOM     23  H   UNL     1      33.808 -20.030 -20.682  0.00  0.00    -0.084 HD
ENDBRANCH   4  13
BRANCH   3  24
ATOM     24  C   UNL     1      31.576 -11.573 -19.944  0.00  0.00    +0.077 C 
ATOM     25  C   UNL     1      31.904 -10.601 -18.861  0.00  0.00    +0.022 C 
ATOM     26  C   UNL     1      30.500 -10.703 -19.385  0.00  0.00    +0.022 C 
ENDBRANCH   3  24
BRANCH   6  27
ATOM     27  O   UNL     1      32.690 -14.012 -20.291  0.00  0.00    -0.469 OA
ATOM     28  C   UNL     1      31.805 -15.123 -20.196  0.00  0.00    +0.253 C 
ENDBRANCH   6  27
BRANCH  11  30
ATOM     29  O   UNL     1      30.718  -7.968 -23.643  0.00  0.00    -0.245 OA
ATOM     30  C   UNL     1      31.853  -8.401 -23.567  0.00  0.00    +0.342 C 
BRANCH  30  31
ATOM     31  O   UNL     1      32.979  -7.722 -23.875  0.00  0.00    -0.477 OA
ATOM     32  H   UNL     1      33.680  -7.670 -23.255  0.00  0.00    +0.295 HD
ENDBRANCH  30  31
ENDBRANCH  11  30
TORSDOF 5
ENDMDL
