MODEL 1
REMARK VINA RESULT:      -6.1      0.000      0.000
REMARK  Name = 440064
REMARK  6 active torsions:
REMARK  status: ('A' for Active; 'I' for Inactive)
REMARK    1  A    between atoms: CA_1  and  N_2
REMARK    2  A    between atoms: CA_1  and  C_7
REMARK    3  A    between atoms: CA_1  and  C_10
REMARK    4  A    between atoms: C_7  and  O_8
REMARK    5  A    between atoms: C_10  and  C_13
REMARK    6  A    between atoms: C_13  and  O_14
REMARK                            x       y       z     vdW  Elec       q    Type
REMARK                         _______ _______ _______ _____ _____    ______ ____
ROOT
ATOM      1  CA  UNL     1      39.249 -24.939 -14.183  0.00  0.00    +0.046 C 
ENDROOT
BRANCH   1   2
ATOM      2  N   UNL     1      38.286 -24.795 -15.272  0.00  0.00    +0.389 N 
ATOM      3  H1  UNL     1      37.933 -23.838 -15.290  0.00  0.00    -0.088 HD
ATOM      4  H2  UNL     1      37.510 -25.441 -15.129  0.00  0.00    -0.088 HD
ATOM      5  H3  UNL     1      38.743 -25.006 -16.160  0.00  0.00    -0.088 HD
ENDBRANCH   1   2
BRANCH   1   7
ATOM      6  OXT UNL     1      41.118 -26.506 -14.042  0.00  0.00    -0.253 OA
ATOM      7  C   UNL     1      40.335 -25.859 -14.725  0.00  0.00    +0.293 C 
BRANCH   7   8
ATOM      8  O   UNL     1      40.339 -25.898 -16.084  0.00  0.00    -0.482 OA
ATOM      9  H   UNL     1      39.532 -25.979 -16.554  0.00  0.00    +0.295 HD
ENDBRANCH   7   8
ENDBRANCH   1   7
BRANCH   1  10
ATOM     10  C   UNL     1      38.609 -25.504 -12.892  0.00  0.00    +0.089 C 
ATOM     11  C   UNL     1      37.316 -26.280 -13.158  0.00  0.00    +0.010 C 
BRANCH  10  13
ATOM     12  O   UNL     1      38.897 -23.325 -11.829  0.00  0.00    -0.250 OA
ATOM     13  C   UNL     1      38.276 -24.376 -11.922  0.00  0.00    +0.312 C 
BRANCH  13  14
ATOM     14  O   UNL     1      37.180 -24.652 -11.169  0.00  0.00    -0.480 OA
ATOM     15  H   UNL     1      37.281 -24.999 -10.304  0.00  0.00    +0.295 HD
ENDBRANCH  13  14
ENDBRANCH  10  13
ENDBRANCH   1  10
TORSDOF 6
ENDMDL
MODEL 2
REMARK VINA RESULT:      -5.8      2.328      2.861
REMARK  Name = 440064
REMARK  6 active torsions:
REMARK  status: ('A' for Active; 'I' for Inactive)
REMARK    1  A    between atoms: CA_1  and  N_2
REMARK    2  A    between atoms: CA_1  and  C_7
REMARK    3  A    between atoms: CA_1  and  C_10
REMARK    4  A    between atoms: C_7  and  O_8
REMARK    5  A    between atoms: C_10  and  C_13
REMARK    6  A    between atoms: C_13  and  O_14
REMARK                            x       y       z     vdW  Elec       q    Type
REMARK                         _______ _______ _______ _____ _____    ______ ____
ROOT
ATOM      1  CA  UNL     1      36.899 -25.535 -13.662  0.00  0.00    +0.046 C 
ENDROOT
BRANCH   1   2
ATOM      2  N   UNL     1      37.102 -26.923 -13.254  0.00  0.00    +0.389 N 
ATOM      3  H1  UNL     1      36.521 -27.128 -12.441  0.00  0.00    -0.088 HD
ATOM      4  H2  UNL     1      38.083 -27.068 -13.015  0.00  0.00    -0.088 HD
ATOM      5  H3  UNL     1      36.845 -27.544 -14.022  0.00  0.00    -0.088 HD
ENDBRANCH   1   2
BRANCH   1   7
ATOM      6  OXT UNL     1      36.114 -26.600 -15.715  0.00  0.00    -0.253 OA
ATOM      7  C   UNL     1      36.513 -25.600 -15.133  0.00  0.00    +0.293 C 
BRANCH   7   8
ATOM      8  O   UNL     1      36.652 -24.396 -15.751  0.00  0.00    -0.482 OA
ATOM      9  H   UNL     1      36.723 -23.613 -15.241  0.00  0.00    +0.295 HD
ENDBRANCH   7   8
ENDBRANCH   1   7
BRANCH   1  10
ATOM     10  C   UNL     1      38.153 -24.657 -13.435  0.00  0.00    +0.089 C 
ATOM     11  C   UNL     1      39.462 -25.430 -13.615  0.00  0.00    +0.010 C 
BRANCH  10  13
ATOM     12  O   UNL     1      38.757 -23.071 -11.679  0.00  0.00    -0.250 OA
ATOM     13  C   UNL     1      38.153 -24.079 -12.024  0.00  0.00    +0.312 C 
BRANCH  13  14
ATOM     14  O   UNL     1      37.379 -24.800 -11.172  0.00  0.00    -0.480 OA
ATOM     15  H   UNL     1      37.140 -24.443 -10.340  0.00  0.00    +0.295 HD
ENDBRANCH  13  14
ENDBRANCH  10  13
ENDBRANCH   1  10
TORSDOF 6
ENDMDL
MODEL 3
REMARK VINA RESULT:      -5.7      1.243      3.994
REMARK  Name = 440064
REMARK  6 active torsions:
REMARK  status: ('A' for Active; 'I' for Inactive)
REMARK    1  A    between atoms: CA_1  and  N_2
REMARK    2  A    between atoms: CA_1  and  C_7
REMARK    3  A    between atoms: CA_1  and  C_10
REMARK    4  A    between atoms: C_7  and  O_8
REMARK    5  A    between atoms: C_10  and  C_13
REMARK    6  A    between atoms: C_13  and  O_14
REMARK                            x       y       z     vdW  Elec       q    Type
REMARK                         _______ _______ _______ _____ _____    ______ ____
ROOT
ATOM      1  CA  UNL     1      38.232 -26.044 -13.054  0.00  0.00    +0.046 C 
ENDROOT
BRANCH   1   2
ATOM      2  N   UNL     1      37.325 -26.890 -13.828  0.00  0.00    +0.389 N 
ATOM      3  H1  UNL     1      36.893 -26.337 -14.569  0.00  0.00    -0.088 HD
ATOM      4  H2  UNL     1      36.600 -27.262 -13.215  0.00  0.00    -0.088 HD
ATOM      5  H3  UNL     1      37.849 -27.662 -14.241  0.00  0.00    -0.088 HD
ENDBRANCH   1   2
BRANCH   1   7
ATOM      6  OXT UNL     1      37.728 -24.449 -11.275  0.00  0.00    -0.253 OA
ATOM      7  C   UNL     1      37.336 -25.243 -12.120  0.00  0.00    +0.293 C 
BRANCH   7   8
ATOM      8  O   UNL     1      36.017 -25.498 -12.334  0.00  0.00    -0.482 OA
ATOM      9  H   UNL     1      35.445 -24.810 -12.610  0.00  0.00    +0.295 HD
ENDBRANCH   7   8
ENDBRANCH   1   7
BRANCH   1  10
ATOM     10  C   UNL     1      39.098 -25.125 -13.949  0.00  0.00    +0.089 C 
ATOM     11  C   UNL     1      38.302 -24.477 -15.085  0.00  0.00    +0.010 C 
BRANCH  10  13
ATOM     12  O   UNL     1      41.039 -26.606 -13.964  0.00  0.00    -0.250 OA
ATOM     13  C   UNL     1      40.239 -25.914 -14.581  0.00  0.00    +0.312 C 
BRANCH  13  14
ATOM     14  O   UNL     1      40.265 -25.788 -15.933  0.00  0.00    -0.480 OA
ATOM     15  H   UNL     1      41.021 -25.430 -16.356  0.00  0.00    +0.295 HD
ENDBRANCH  13  14
ENDBRANCH  10  13
ENDBRANCH   1  10
TORSDOF 6
ENDMDL
MODEL 4
REMARK VINA RESULT:      -5.7      2.224      3.001
REMARK  Name = 440064
REMARK  6 active torsions:
REMARK  status: ('A' for Active; 'I' for Inactive)
REMARK    1  A    between atoms: CA_1  and  N_2
REMARK    2  A    between atoms: CA_1  and  C_7
REMARK    3  A    between atoms: CA_1  and  C_10
REMARK    4  A    between atoms: C_7  and  O_8
REMARK    5  A    between atoms: C_10  and  C_13
REMARK    6  A    between atoms: C_13  and  O_14
REMARK                            x       y       z     vdW  Elec       q    Type
REMARK                         _______ _______ _______ _____ _____    ______ ____
ROOT
ATOM      1  CA  UNL     1      37.135 -26.158 -13.451  0.00  0.00    +0.046 C 
ENDROOT
BRANCH   1   2
ATOM      2  N   UNL     1      38.539 -26.002 -13.075  0.00  0.00    +0.389 N 
ATOM      3  H1  UNL     1      39.133 -26.391 -13.807  0.00  0.00    -0.088 HD
ATOM      4  H2  UNL     1      38.714 -26.493 -12.198  0.00  0.00    -0.088 HD
ATOM      5  H3  UNL     1      38.751 -25.011 -12.956  0.00  0.00    -0.088 HD
ENDBRANCH   1   2
BRANCH   1   7
ATOM      6  OXT UNL     1      36.165 -26.653 -15.637  0.00  0.00    -0.253 OA
ATOM      7  C   UNL     1      37.145 -26.382 -14.957  0.00  0.00    +0.293 C 
BRANCH   7   8
ATOM      8  O   UNL     1      38.390 -26.237 -15.486  0.00  0.00    -0.482 OA
ATOM      9  H   UNL     1      38.750 -26.910 -16.030  0.00  0.00    +0.295 HD
ENDBRANCH   7   8
ENDBRANCH   1   7
BRANCH   1  10
ATOM     10  C   UNL     1      36.274 -24.934 -13.058  0.00  0.00    +0.089 C 
ATOM     11  C   UNL     1      36.802 -23.621 -13.641  0.00  0.00    +0.010 C 
BRANCH  10  13
ATOM     12  O   UNL     1      35.304 -25.145 -10.827  0.00  0.00    -0.250 OA
ATOM     13  C   UNL     1      36.227 -24.776 -11.542  0.00  0.00    +0.312 C 
BRANCH  13  14
ATOM     14  O   UNL     1      37.351 -24.192 -11.051  0.00  0.00    -0.480 OA
ATOM     15  H   UNL     1      38.194 -24.521 -11.293  0.00  0.00    +0.295 HD
ENDBRANCH  13  14
ENDBRANCH  10  13
ENDBRANCH   1  10
TORSDOF 6
ENDMDL
MODEL 5
REMARK VINA RESULT:      -5.5      2.448      4.022
REMARK  Name = 440064
REMARK  6 active torsions:
REMARK  status: ('A' for Active; 'I' for Inactive)
REMARK    1  A    between atoms: CA_1  and  N_2
REMARK    2  A    between atoms: CA_1  and  C_7
REMARK    3  A    between atoms: CA_1  and  C_10
REMARK    4  A    between atoms: C_7  and  O_8
REMARK    5  A    between atoms: C_10  and  C_13
REMARK    6  A    between atoms: C_13  and  O_14
REMARK                            x       y       z     vdW  Elec       q    Type
REMARK                         _______ _______ _______ _____ _____    ______ ____
ROOT
ATOM      1  CA  UNL     1      36.848 -25.520 -12.982  0.00  0.00    +0.046 C 
ENDROOT
BRANCH   1   2
ATOM      2  N   UNL     1      35.611 -25.037 -12.370  0.00  0.00    +0.389 N 
ATOM      3  H1  UNL     1      34.987 -24.685 -13.096  0.00  0.00    -0.088 HD
ATOM      4  H2  UNL     1      35.826 -24.287 -11.713  0.00  0.00    -0.088 HD
ATOM      5  H3  UNL     1      35.157 -25.804 -11.873  0.00  0.00    -0.088 HD
ENDBRANCH   1   2
BRANCH   1   7
ATOM      6  OXT UNL     1      37.930 -24.248 -11.200  0.00  0.00    -0.253 OA
ATOM      7  C   UNL     1      37.961 -24.709 -12.334  0.00  0.00    +0.293 C 
BRANCH   7   8
ATOM      8  O   UNL     1      39.028 -24.554 -13.162  0.00  0.00    -0.482 OA
ATOM      9  H   UNL     1      39.419 -25.302 -13.570  0.00  0.00    +0.295 HD
ENDBRANCH   7   8
ENDBRANCH   1   7
BRANCH   1  10
ATOM     10  C   UNL     1      36.848 -25.368 -14.522  0.00  0.00    +0.089 C 
ATOM     11  C   UNL     1      35.484 -24.958 -15.082  0.00  0.00    +0.010 C 
BRANCH  10  13
ATOM     12  O   UNL     1      36.619 -27.222 -16.095  0.00  0.00    -0.250 OA
ATOM     13  C   UNL     1      37.241 -26.682 -15.189  0.00  0.00    +0.312 C 
BRANCH  13  14
ATOM     14  O   UNL     1      38.392 -27.193 -14.681  0.00  0.00    -0.480 OA
ATOM     15  H   UNL     1      39.189 -26.706 -14.744  0.00  0.00    +0.295 HD
ENDBRANCH  13  14
ENDBRANCH  10  13
ENDBRANCH   1  10
TORSDOF 6
ENDMDL
MODEL 6
REMARK VINA RESULT:      -5.5      2.386      3.067
REMARK  Name = 440064
REMARK  6 active torsions:
REMARK  status: ('A' for Active; 'I' for Inactive)
REMARK    1  A    between atoms: CA_1  and  N_2
REMARK    2  A    between atoms: CA_1  and  C_7
REMARK    3  A    between atoms: CA_1  and  C_10
REMARK    4  A    between atoms: C_7  and  O_8
REMARK    5  A    between atoms: C_10  and  C_13
REMARK    6  A    between atoms: C_13  and  O_14
REMARK                            x       y       z     vdW  Elec       q    Type
REMARK                         _______ _______ _______ _____ _____    ______ ____
ROOT
ATOM      1  CA  UNL     1      36.710 -25.049 -14.236  0.00  0.00    +0.046 C 
ENDROOT
BRANCH   1   2
ATOM      2  N   UNL     1      35.322 -25.417 -14.509  0.00  0.00    +0.389 N 
ATOM      3  H1  UNL     1      34.713 -24.991 -13.809  0.00  0.00    -0.088 HD
ATOM      4  H2  UNL     1      35.224 -26.432 -14.471  0.00  0.00    -0.088 HD
ATOM      5  H3  UNL     1      35.058 -25.085 -15.436  0.00  0.00    -0.088 HD
ENDBRANCH   1   2
BRANCH   1   7
ATOM      6  OXT UNL     1      38.524 -26.645 -14.591  0.00  0.00    -0.253 OA
ATOM      7  C   UNL     1      37.451 -26.369 -14.072  0.00  0.00    +0.293 C 
BRANCH   7   8
ATOM      8  O   UNL     1      36.785 -27.231 -13.257  0.00  0.00    -0.482 OA
ATOM      9  H   UNL     1      37.013 -27.290 -12.350  0.00  0.00    +0.295 HD
ENDBRANCH   7   8
ENDBRANCH   1   7
BRANCH   1  10
ATOM     10  C   UNL     1      36.853 -24.150 -12.984  0.00  0.00    +0.089 C 
ATOM     11  C   UNL     1      38.178 -24.361 -12.247  0.00  0.00    +0.010 C 
BRANCH  10  13
ATOM     12  O   UNL     1      35.737 -25.319 -11.154  0.00  0.00    -0.250 OA
ATOM     13  C   UNL     1      35.728 -24.429 -11.994  0.00  0.00    +0.312 C 
BRANCH  13  14
ATOM     14  O   UNL     1      34.697 -23.553 -12.126  0.00  0.00    -0.480 OA
ATOM     15  H   UNL     1      34.818 -22.651 -11.904  0.00  0.00    +0.295 HD
ENDBRANCH  13  14
ENDBRANCH  10  13
ENDBRANCH   1  10
TORSDOF 6
ENDMDL
MODEL 7
REMARK VINA RESULT:      -5.5      2.273      2.659
REMARK  Name = 440064
REMARK  6 active torsions:
REMARK  status: ('A' for Active; 'I' for Inactive)
REMARK    1  A    between atoms: CA_1  and  N_2
REMARK    2  A    between atoms: CA_1  and  C_7
REMARK    3  A    between atoms: CA_1  and  C_10
REMARK    4  A    between atoms: C_7  and  O_8
REMARK    5  A    between atoms: C_10  and  C_13
REMARK    6  A    between atoms: C_13  and  O_14
REMARK                            x       y       z     vdW  Elec       q    Type
REMARK                         _______ _______ _______ _____ _____    ______ ____
ROOT
ATOM      1  CA  UNL     1      36.752 -25.240 -14.154  0.00  0.00    +0.046 C 
ENDROOT
BRANCH   1   2
ATOM      2  N   UNL     1      35.302 -25.198 -14.333  0.00  0.00    +0.389 N 
ATOM      3  H1  UNL     1      35.056 -24.416 -14.941  0.00  0.00    -0.088 HD
ATOM      4  H2  UNL     1      34.850 -25.079 -13.427  0.00  0.00    -0.088 HD
ATOM      5  H3  UNL     1      34.987 -26.070 -14.758  0.00  0.00    -0.088 HD
ENDBRANCH   1   2
BRANCH   1   7
ATOM      6  OXT UNL     1      38.234 -27.127 -14.610  0.00  0.00    -0.253 OA
ATOM      7  C   UNL     1      37.208 -26.509 -14.861  0.00  0.00    +0.293 C 
BRANCH   7   8
ATOM      8  O   UNL     1      36.328 -26.903 -15.820  0.00  0.00    -0.482 OA
ATOM      9  H   UNL     1      36.531 -26.772 -16.725  0.00  0.00    +0.295 HD
ENDBRANCH   7   8
ENDBRANCH   1   7
BRANCH   1  10
ATOM     10  C   UNL     1      37.169 -25.229 -12.664  0.00  0.00    +0.089 C 
ATOM     11  C   UNL     1      36.049 -24.756 -11.735  0.00  0.00    +0.010 C 
BRANCH  10  13
ATOM     12  O   UNL     1      38.396 -23.375 -11.655  0.00  0.00    -0.250 OA
ATOM     13  C   UNL     1      38.364 -24.307 -12.449  0.00  0.00    +0.312 C 
BRANCH  13  14
ATOM     14  O   UNL     1      39.422 -24.645 -13.230  0.00  0.00    -0.480 OA
ATOM     15  H   UNL     1      40.210 -24.138 -13.197  0.00  0.00    +0.295 HD
ENDBRANCH  13  14
ENDBRANCH  10  13
ENDBRANCH   1  10
TORSDOF 6
ENDMDL
MODEL 8
REMARK VINA RESULT:      -5.5      8.856     10.140
REMARK  Name = 440064
REMARK  6 active torsions:
REMARK  status: ('A' for Active; 'I' for Inactive)
REMARK    1  A    between atoms: CA_1  and  N_2
REMARK    2  A    between atoms: CA_1  and  C_7
REMARK    3  A    between atoms: CA_1  and  C_10
REMARK    4  A    between atoms: C_7  and  O_8
REMARK    5  A    between atoms: C_10  and  C_13
REMARK    6  A    between atoms: C_13  and  O_14
REMARK                            x       y       z     vdW  Elec       q    Type
REMARK                         _______ _______ _______ _____ _____    ______ ____
ROOT
ATOM      1  CA  UNL     1      29.931 -23.410 -16.491  0.00  0.00    +0.046 C 
ENDROOT
BRANCH   1   2
ATOM      2  N   UNL     1      30.805 -22.423 -17.122  0.00  0.00    +0.389 N 
ATOM      3  H1  UNL     1      30.288 -21.556 -17.272  0.00  0.00    -0.088 HD
ATOM      4  H2  UNL     1      31.134 -22.782 -18.018  0.00  0.00    -0.088 HD
ATOM      5  H3  UNL     1      31.605 -22.241 -16.515  0.00  0.00    -0.088 HD
ENDBRANCH   1   2
BRANCH   1   7
ATOM      6  OXT UNL     1      28.078 -21.864 -16.869  0.00  0.00    -0.253 OA
ATOM      7  C   UNL     1      28.517 -23.006 -16.886  0.00  0.00    +0.293 C 
BRANCH   7   8
ATOM      8  O   UNL     1      27.774 -24.074 -17.283  0.00  0.00    -0.482 OA
ATOM      9  H   UNL     1      27.101 -23.964 -17.925  0.00  0.00    +0.295 HD
ENDBRANCH   7   8
ENDBRANCH   1   7
BRANCH   1  10
ATOM     10  C   UNL     1      30.105 -23.463 -14.954  0.00  0.00    +0.089 C 
ATOM     11  C   UNL     1      31.405 -22.810 -14.478  0.00  0.00    +0.010 C 
BRANCH  10  13
ATOM     12  O   UNL     1      31.108 -25.523 -14.110  0.00  0.00    -0.250 OA
ATOM     13  C   UNL     1      30.112 -24.907 -14.466  0.00  0.00    +0.312 C 
BRANCH  13  14
ATOM     14  O   UNL     1      28.866 -25.449 -14.444  0.00  0.00    -0.480 OA
ATOM     15  H   UNL     1      28.721 -26.272 -14.020  0.00  0.00    +0.295 HD
ENDBRANCH  13  14
ENDBRANCH  10  13
ENDBRANCH   1  10
TORSDOF 6
ENDMDL
MODEL 9
REMARK VINA RESULT:      -5.4      2.526      4.408
REMARK  Name = 440064
REMARK  6 active torsions:
REMARK  status: ('A' for Active; 'I' for Inactive)
REMARK    1  A    between atoms: CA_1  and  N_2
REMARK    2  A    between atoms: CA_1  and  C_7
REMARK    3  A    between atoms: CA_1  and  C_10
REMARK    4  A    between atoms: C_7  and  O_8
REMARK    5  A    between atoms: C_10  and  C_13
REMARK    6  A    between atoms: C_13  and  O_14
REMARK                            x       y       z     vdW  Elec       q    Type
REMARK                         _______ _______ _______ _____ _____    ______ ____
ROOT
ATOM      1  CA  UNL     1      36.723 -23.749 -12.488  0.00  0.00    +0.046 C 
ENDROOT
BRANCH   1   2
ATOM      2  N   UNL     1      37.776 -23.782 -11.476  0.00  0.00    +0.389 N 
ATOM      3  H1  UNL     1      38.574 -23.233 -11.797  0.00  0.00    -0.088 HD
ATOM      4  H2  UNL     1      38.069 -24.747 -11.319  0.00  0.00    -0.088 HD
ATOM      5  H3  UNL     1      37.422 -23.389 -10.604  0.00  0.00    -0.088 HD
ENDBRANCH   1   2
BRANCH   1   7
ATOM      6  OXT UNL     1      35.415 -25.156 -10.979  0.00  0.00    -0.253 OA
ATOM      7  C   UNL     1      35.465 -24.228 -11.776  0.00  0.00    +0.293 C 
BRANCH   7   8
ATOM      8  O   UNL     1      34.374 -23.491 -12.117  0.00  0.00    -0.482 OA
ATOM      9  H   UNL     1      34.387 -22.560 -12.017  0.00  0.00    +0.295 HD
ENDBRANCH   7   8
ENDBRANCH   1   7
BRANCH   1  10
ATOM     10  C   UNL     1      37.053 -24.624 -13.721  0.00  0.00    +0.089 C 
ATOM     11  C   UNL     1      35.811 -25.016 -14.524  0.00  0.00    +0.010 C 
BRANCH  10  13
ATOM     12  O   UNL     1      38.958 -26.049 -13.170  0.00  0.00    -0.250 OA
ATOM     13  C   UNL     1      37.747 -25.912 -13.293  0.00  0.00    +0.312 C 
BRANCH  13  14
ATOM     14  O   UNL     1      36.864 -26.911 -13.032  0.00  0.00    -0.480 OA
ATOM     15  H   UNL     1      36.651 -27.533 -13.698  0.00  0.00    +0.295 HD
ENDBRANCH  13  14
ENDBRANCH  10  13
ENDBRANCH   1  10
TORSDOF 6
ENDMDL
