MODEL 1
REMARK VINA RESULT:      -8.9      0.000      0.000
REMARK  Name = 71666749
REMARK  5 active torsions:
REMARK  status: ('A' for Active; 'I' for Inactive)
REMARK    1  A    between atoms: C_3  and  C_12
REMARK    2  A    between atoms: C_4  and  C_16
REMARK    3  A    between atoms: C_16  and  N_17
REMARK    4  A    between atoms: C_16  and  C_21
REMARK    5  A    between atoms: C_21  and  C_25
REMARK                            x       y       z     vdW  Elec       q    Type
REMARK                         _______ _______ _______ _____ _____    ______ ____
ROOT
ATOM      1  N   UNL     1      33.754 -12.690 -24.416  0.00  0.00    -0.320 N 
ATOM      2  N   UNL     1      32.190 -13.517 -23.071  0.00  0.00    -0.320 N 
ATOM      3  C   UNL     1      32.878  -9.429 -22.862  0.00  0.00    -0.021 C 
ATOM      4  C   UNL     1      33.079 -13.802 -23.997  0.00  0.00    +0.123 C 
ATOM      5  C   UNL     1      33.270 -11.616 -23.713  0.00  0.00    +0.059 C 
ATOM      6  C   UNL     1      33.591 -10.258 -23.735  0.00  0.00    +0.011 C 
ATOM      7  C   UNL     1      32.295 -12.159 -22.881  0.00  0.00    +0.059 C 
ATOM      8  C   UNL     1      31.895  -9.945 -22.014  0.00  0.00    -0.003 C 
ATOM      9  C   UNL     1      31.589 -11.312 -22.011  0.00  0.00    +0.015 C 
ATOM     10  H   UNL     1      34.462 -12.664 -25.100  0.00  0.00    +0.148 HD
ATOM     11  H   UNL     1      31.583 -14.142 -22.613  0.00  0.00    +0.148 HD
ENDROOT
BRANCH   3  12
ATOM     12  C   UNL     1      33.176  -7.967 -22.838  0.00  0.00    +0.019 C 
ATOM     13  C   UNL     1      32.259  -7.082 -23.744  0.00  0.00    +0.004 C 
ATOM     14  C   UNL     1      34.634  -7.680 -23.314  0.00  0.00    +0.004 C 
ATOM     15  C   UNL     1      33.026  -7.385 -21.399  0.00  0.00    +0.004 C 
ENDBRANCH   3  12
BRANCH   4  16
ATOM     16  C   UNL     1      33.376 -15.176 -24.584  0.00  0.00    -0.019 C 
BRANCH  16  17
ATOM     17  N   UNL     1      33.377 -15.117 -26.051  0.00  0.00    +0.384 N 
ATOM     18  H   UNL     1      32.501 -14.708 -26.376  0.00  0.00    -0.089 HD
ATOM     19  H   UNL     1      33.471 -16.060 -26.430  0.00  0.00    -0.089 HD
ATOM     20  H   UNL     1      34.158 -14.544 -26.369  0.00  0.00    -0.089 HD
ENDBRANCH  16  17
BRANCH  16  21
ATOM     21  C   UNL     1      34.706 -15.790 -24.065  0.00  0.00    +0.060 C 
ATOM     22  C   UNL     1      34.785 -15.792 -22.532  0.00  0.00    +0.007 C 
BRANCH  21  25
ATOM     23  O   UNL     1      34.360 -17.686 -25.554  0.00  0.00    -0.275 OA
ATOM     24  N   UNL     1      35.652 -17.995 -23.681  0.00  0.00    -0.329 N 
ATOM     25  C   UNL     1      34.881 -17.237 -24.535  0.00  0.00    +0.217 C 
ATOM     26  H   UNL     1      35.829 -18.941 -23.886  0.00  0.00    +0.145 HD
ATOM     27  H   UNL     1      36.025 -17.591 -22.864  0.00  0.00    +0.145 HD
ENDBRANCH  21  25
ENDBRANCH  16  21
ENDBRANCH   4  16
TORSDOF 5
ENDMDL
MODEL 2
REMARK VINA RESULT:      -8.5      8.179     11.294
REMARK  Name = 71666749
REMARK  5 active torsions:
REMARK  status: ('A' for Active; 'I' for Inactive)
REMARK    1  A    between atoms: C_3  and  C_12
REMARK    2  A    between atoms: C_4  and  C_16
REMARK    3  A    between atoms: C_16  and  N_17
REMARK    4  A    between atoms: C_16  and  C_21
REMARK    5  A    between atoms: C_21  and  C_25
REMARK                            x       y       z     vdW  Elec       q    Type
REMARK                         _______ _______ _______ _____ _____    ______ ____
ROOT
ATOM      1  N   UNL     1      35.007 -22.159 -18.292  0.00  0.00    -0.320 N 
ATOM      2  N   UNL     1      32.796 -22.262 -18.487  0.00  0.00    -0.320 N 
ATOM      3  C   UNL     1      34.792 -19.685 -21.056  0.00  0.00    -0.021 C 
ATOM      4  C   UNL     1      33.845 -22.717 -17.837  0.00  0.00    +0.123 C 
ATOM      5  C   UNL     1      34.688 -21.287 -19.300  0.00  0.00    +0.059 C 
ATOM      6  C   UNL     1      35.469 -20.458 -20.107  0.00  0.00    +0.011 C 
ATOM      7  C   UNL     1      33.302 -21.369 -19.403  0.00  0.00    +0.059 C 
ATOM      8  C   UNL     1      33.402 -19.745 -21.182  0.00  0.00    -0.003 C 
ATOM      9  C   UNL     1      32.639 -20.585 -20.361  0.00  0.00    +0.015 C 
ATOM     10  H   UNL     1      35.912 -22.350 -17.954  0.00  0.00    +0.148 HD
ATOM     11  H   UNL     1      31.853 -22.507 -18.347  0.00  0.00    +0.148 HD
ENDROOT
BRANCH   3  12
ATOM     12  C   UNL     1      35.572 -18.778 -21.949  0.00  0.00    +0.019 C 
ATOM     13  C   UNL     1      35.354 -18.998 -23.482  0.00  0.00    +0.004 C 
ATOM     14  C   UNL     1      37.106 -18.942 -21.719  0.00  0.00    +0.004 C 
ATOM     15  C   UNL     1      35.213 -17.283 -21.687  0.00  0.00    +0.004 C 
ENDBRANCH   3  12
BRANCH   4  16
ATOM     16  C   UNL     1      33.844 -23.740 -16.709  0.00  0.00    -0.019 C 
BRANCH  16  17
ATOM     17  N   UNL     1      35.208 -23.940 -16.200  0.00  0.00    +0.384 N 
ATOM     18  H   UNL     1      35.165 -24.341 -15.262  0.00  0.00    -0.089 HD
ATOM     19  H   UNL     1      35.693 -23.044 -16.164  0.00  0.00    -0.089 HD
ATOM     20  H   UNL     1      35.712 -24.575 -16.818  0.00  0.00    -0.089 HD
ENDBRANCH  16  17
BRANCH  16  21
ATOM     21  C   UNL     1      32.881 -23.370 -15.547  0.00  0.00    +0.060 C 
ATOM     22  C   UNL     1      31.423 -23.729 -15.866  0.00  0.00    +0.007 C 
BRANCH  21  25
ATOM     23  O   UNL     1      34.236 -23.798 -13.568  0.00  0.00    -0.275 OA
ATOM     24  N   UNL     1      32.409 -25.135 -13.945  0.00  0.00    -0.329 N 
ATOM     25  C   UNL     1      33.257 -24.094 -14.251  0.00  0.00    +0.217 C 
ATOM     26  H   UNL     1      32.558 -25.670 -13.133  0.00  0.00    +0.145 HD
ATOM     27  H   UNL     1      31.653 -25.346 -14.541  0.00  0.00    +0.145 HD
ENDBRANCH  21  25
ENDBRANCH  16  21
ENDBRANCH   4  16
TORSDOF 5
ENDMDL
MODEL 3
REMARK VINA RESULT:      -8.5     13.622     15.339
REMARK  Name = 71666749
REMARK  5 active torsions:
REMARK  status: ('A' for Active; 'I' for Inactive)
REMARK    1  A    between atoms: C_3  and  C_12
REMARK    2  A    between atoms: C_4  and  C_16
REMARK    3  A    between atoms: C_16  and  N_17
REMARK    4  A    between atoms: C_16  and  C_21
REMARK    5  A    between atoms: C_21  and  C_25
REMARK                            x       y       z     vdW  Elec       q    Type
REMARK                         _______ _______ _______ _____ _____    ______ ____
ROOT
ATOM      1  N   UNL     1      34.674 -23.672 -13.734  0.00  0.00    -0.320 N 
ATOM      2  N   UNL     1      35.618 -23.352 -15.720  0.00  0.00    -0.320 N 
ATOM      3  C   UNL     1      31.470 -23.459 -15.606  0.00  0.00    -0.021 C 
ATOM      4  C   UNL     1      35.838 -23.541 -14.437  0.00  0.00    +0.123 C 
ATOM      5  C   UNL     1      33.633 -23.561 -14.620  0.00  0.00    +0.059 C 
ATOM      6  C   UNL     1      32.249 -23.616 -14.454  0.00  0.00    +0.011 C 
ATOM      7  C   UNL     1      34.249 -23.362 -15.852  0.00  0.00    +0.059 C 
ATOM      8  C   UNL     1      32.060 -23.258 -16.857  0.00  0.00    -0.003 C 
ATOM      9  C   UNL     1      33.452 -23.206 -16.999  0.00  0.00    +0.015 C 
ATOM     10  H   UNL     1      34.596 -23.820 -12.763  0.00  0.00    +0.148 HD
ATOM     11  H   UNL     1      36.288 -23.231 -16.430  0.00  0.00    +0.148 HD
ENDROOT
BRANCH   3  12
ATOM     12  C   UNL     1      29.983 -23.508 -15.494  0.00  0.00    +0.019 C 
ATOM     13  C   UNL     1      29.206 -23.420 -16.848  0.00  0.00    +0.004 C 
ATOM     14  C   UNL     1      29.443 -22.328 -14.626  0.00  0.00    +0.004 C 
ATOM     15  C   UNL     1      29.511 -24.837 -14.828  0.00  0.00    +0.004 C 
ENDBRANCH   3  12
BRANCH   4  16
ATOM     16  C   UNL     1      37.194 -23.614 -13.747  0.00  0.00    -0.019 C 
BRANCH  16  17
ATOM     17  N   UNL     1      37.064 -23.266 -12.326  0.00  0.00    +0.384 N 
ATOM     18  H   UNL     1      36.705 -22.315 -12.240  0.00  0.00    -0.089 HD
ATOM     19  H   UNL     1      37.977 -23.326 -11.875  0.00  0.00    -0.089 HD
ATOM     20  H   UNL     1      36.419 -23.914 -11.874  0.00  0.00    -0.089 HD
ENDBRANCH  16  17
BRANCH  16  21
ATOM     21  C   UNL     1      37.889 -24.996 -13.905  0.00  0.00    +0.060 C 
ATOM     22  C   UNL     1      39.317 -24.993 -13.344  0.00  0.00    +0.007 C 
BRANCH  21  25
ATOM     23  O   UNL     1      36.953 -26.134 -11.965  0.00  0.00    -0.275 OA
ATOM     24  N   UNL     1      36.648 -27.080 -14.034  0.00  0.00    -0.329 N 
ATOM     25  C   UNL     1      37.114 -26.102 -13.183  0.00  0.00    +0.217 C 
ATOM     26  H   UNL     1      36.136 -27.841 -13.676  0.00  0.00    +0.145 HD
ATOM     27  H   UNL     1      36.826 -27.019 -15.000  0.00  0.00    +0.145 HD
ENDBRANCH  21  25
ENDBRANCH  16  21
ENDBRANCH   4  16
TORSDOF 5
ENDMDL
MODEL 4
REMARK VINA RESULT:      -8.4      4.155      6.685
REMARK  Name = 71666749
REMARK  5 active torsions:
REMARK  status: ('A' for Active; 'I' for Inactive)
REMARK    1  A    between atoms: C_3  and  C_12
REMARK    2  A    between atoms: C_4  and  C_16
REMARK    3  A    between atoms: C_16  and  N_17
REMARK    4  A    between atoms: C_16  and  C_21
REMARK    5  A    between atoms: C_21  and  C_25
REMARK                            x       y       z     vdW  Elec       q    Type
REMARK                         _______ _______ _______ _____ _____    ______ ____
ROOT
ATOM      1  N   UNL     1      34.657 -17.907 -21.284  0.00  0.00    -0.320 N 
ATOM      2  N   UNL     1      35.237 -19.142 -23.039  0.00  0.00    -0.320 N 
ATOM      3  C   UNL     1      33.797 -15.328 -23.818  0.00  0.00    -0.021 C 
ATOM      4  C   UNL     1      35.147 -19.104 -21.728  0.00  0.00    +0.123 C 
ATOM      5  C   UNL     1      34.413 -17.121 -22.382  0.00  0.00    +0.059 C 
ATOM      6  C   UNL     1      33.916 -15.824 -22.515  0.00  0.00    +0.011 C 
ATOM      7  C   UNL     1      34.783 -17.914 -23.464  0.00  0.00    +0.059 C 
ATOM      8  C   UNL     1      34.159 -16.100 -24.924  0.00  0.00    -0.003 C 
ATOM      9  C   UNL     1      34.657 -17.400 -24.764  0.00  0.00    +0.015 C 
ATOM     10  H   UNL     1      34.505 -17.655 -20.344  0.00  0.00    +0.148 HD
ATOM     11  H   UNL     1      35.558 -19.887 -23.595  0.00  0.00    +0.148 HD
ENDROOT
BRANCH   3  12
ATOM     12  C   UNL     1      33.271 -13.946 -24.027  0.00  0.00    +0.019 C 
ATOM     13  C   UNL     1      34.328 -12.801 -23.901  0.00  0.00    +0.004 C 
ATOM     14  C   UNL     1      32.159 -13.603 -22.987  0.00  0.00    +0.004 C 
ATOM     15  C   UNL     1      32.652 -13.788 -25.449  0.00  0.00    +0.004 C 
ENDBRANCH   3  12
BRANCH   4  16
ATOM     16  C   UNL     1      35.526 -20.214 -20.756  0.00  0.00    -0.019 C 
BRANCH  16  17
ATOM     17  N   UNL     1      36.716 -19.834 -19.983  0.00  0.00    +0.384 N 
ATOM     18  H   UNL     1      37.507 -19.712 -20.616  0.00  0.00    -0.089 HD
ATOM     19  H   UNL     1      36.932 -20.568 -19.308  0.00  0.00    -0.089 HD
ATOM     20  H   UNL     1      36.537 -18.960 -19.490  0.00  0.00    -0.089 HD
ENDBRANCH  16  17
BRANCH  16  21
ATOM     21  C   UNL     1      34.366 -20.616 -19.802  0.00  0.00    +0.060 C 
ATOM     22  C   UNL     1      33.011 -20.655 -20.522  0.00  0.00    +0.007 C 
BRANCH  21  25
ATOM     23  O   UNL     1      35.630 -22.312 -18.596  0.00  0.00    -0.275 OA
ATOM     24  N   UNL     1      33.546 -22.864 -19.385  0.00  0.00    -0.329 N 
ATOM     25  C   UNL     1      34.598 -21.997 -19.183  0.00  0.00    +0.217 C 
ATOM     26  H   UNL     1      33.588 -23.781 -19.029  0.00  0.00    +0.145 HD
ATOM     27  H   UNL     1      32.751 -22.567 -19.885  0.00  0.00    +0.145 HD
ENDBRANCH  21  25
ENDBRANCH  16  21
ENDBRANCH   4  16
TORSDOF 5
ENDMDL
MODEL 5
REMARK VINA RESULT:      -8.4     14.123     15.939
REMARK  Name = 71666749
REMARK  5 active torsions:
REMARK  status: ('A' for Active; 'I' for Inactive)
REMARK    1  A    between atoms: C_3  and  C_12
REMARK    2  A    between atoms: C_4  and  C_16
REMARK    3  A    between atoms: C_16  and  N_17
REMARK    4  A    between atoms: C_16  and  C_21
REMARK    5  A    between atoms: C_21  and  C_25
REMARK                            x       y       z     vdW  Elec       q    Type
REMARK                         _______ _______ _______ _____ _____    ______ ____
ROOT
ATOM      1  N   UNL     1      35.564 -24.623 -13.178  0.00  0.00    -0.320 N 
ATOM      2  N   UNL     1      36.431 -23.751 -15.029  0.00  0.00    -0.320 N 
ATOM      3  C   UNL     1      32.290 -23.922 -14.792  0.00  0.00    -0.021 C 
ATOM      4  C   UNL     1      36.700 -24.290 -13.861  0.00  0.00    +0.123 C 
ATOM      5  C   UNL     1      34.490 -24.277 -13.958  0.00  0.00    +0.059 C 
ATOM      6  C   UNL     1      33.112 -24.388 -13.761  0.00  0.00    +0.011 C 
ATOM      7  C   UNL     1      35.057 -23.735 -15.107  0.00  0.00    +0.059 C 
ATOM      8  C   UNL     1      32.831 -23.373 -15.959  0.00  0.00    -0.003 C 
ATOM      9  C   UNL     1      34.217 -23.272 -16.133  0.00  0.00    +0.015 C 
ATOM     10  H   UNL     1      35.524 -25.037 -12.286  0.00  0.00    +0.148 HD
ATOM     11  H   UNL     1      37.073 -23.430 -15.703  0.00  0.00    +0.148 HD
ENDROOT
BRANCH   3  12
ATOM     12  C   UNL     1      30.808 -24.013 -14.642  0.00  0.00    +0.019 C 
ATOM     13  C   UNL     1      30.302 -24.385 -13.210  0.00  0.00    +0.004 C 
ATOM     14  C   UNL     1      30.211 -25.099 -15.590  0.00  0.00    +0.004 C 
ATOM     15  C   UNL     1      30.121 -22.656 -14.987  0.00  0.00    +0.004 C 
ENDBRANCH   3  12
BRANCH   4  16
ATOM     16  C   UNL     1      38.081 -24.542 -13.271  0.00  0.00    -0.019 C 
BRANCH  16  17
ATOM     17  N   UNL     1      38.054 -24.370 -11.812  0.00  0.00    +0.384 N 
ATOM     18  H   UNL     1      38.946 -23.987 -11.498  0.00  0.00    -0.089 HD
ATOM     19  H   UNL     1      37.897 -25.273 -11.366  0.00  0.00    -0.089 HD
ATOM     20  H   UNL     1      37.302 -23.730 -11.559  0.00  0.00    -0.089 HD
ENDBRANCH  16  17
BRANCH  16  21
ATOM     21  C   UNL     1      38.662 -25.936 -13.641  0.00  0.00    +0.060 C 
ATOM     22  C   UNL     1      37.664 -26.785 -14.441  0.00  0.00    +0.007 C 
BRANCH  21  25
ATOM     23  O   UNL     1      40.987 -26.386 -14.208  0.00  0.00    -0.275 OA
ATOM     24  N   UNL     1      39.795 -24.960 -15.555  0.00  0.00    -0.329 N 
ATOM     25  C   UNL     1      39.935 -25.811 -14.481  0.00  0.00    +0.217 C 
ATOM     26  H   UNL     1      40.553 -24.805 -16.164  0.00  0.00    +0.145 HD
ATOM     27  H   UNL     1      38.936 -24.505 -15.714  0.00  0.00    +0.145 HD
ENDBRANCH  21  25
ENDBRANCH  16  21
ENDBRANCH   4  16
TORSDOF 5
ENDMDL
MODEL 6
REMARK VINA RESULT:      -8.3      8.155     11.463
REMARK  Name = 71666749
REMARK  5 active torsions:
REMARK  status: ('A' for Active; 'I' for Inactive)
REMARK    1  A    between atoms: C_3  and  C_12
REMARK    2  A    between atoms: C_4  and  C_16
REMARK    3  A    between atoms: C_16  and  N_17
REMARK    4  A    between atoms: C_16  and  C_21
REMARK    5  A    between atoms: C_21  and  C_25
REMARK                            x       y       z     vdW  Elec       q    Type
REMARK                         _______ _______ _______ _____ _____    ______ ____
ROOT
ATOM      1  N   UNL     1      32.607 -21.878 -18.671  0.00  0.00    -0.320 N 
ATOM      2  N   UNL     1      34.458 -22.798 -17.855  0.00  0.00    -0.320 N 
ATOM      3  C   UNL     1      34.932 -19.941 -20.829  0.00  0.00    -0.021 C 
ATOM      4  C   UNL     1      33.145 -22.773 -17.789  0.00  0.00    +0.123 C 
ATOM      5  C   UNL     1      33.641 -21.288 -19.352  0.00  0.00    +0.059 C 
ATOM      6  C   UNL     1      33.671 -20.316 -20.354  0.00  0.00    +0.011 C 
ATOM      7  C   UNL     1      34.785 -21.879 -18.825  0.00  0.00    +0.059 C 
ATOM      8  C   UNL     1      36.099 -20.518 -20.319  0.00  0.00    -0.003 C 
ATOM      9  C   UNL     1      36.043 -21.491 -19.313  0.00  0.00    +0.015 C 
ATOM     10  H   UNL     1      31.648 -21.692 -18.795  0.00  0.00    +0.148 HD
ATOM     11  H   UNL     1      35.073 -23.356 -17.326  0.00  0.00    +0.148 HD
ENDROOT
BRANCH   3  12
ATOM     12  C   UNL     1      35.031 -18.907 -21.900  0.00  0.00    +0.019 C 
ATOM     13  C   UNL     1      36.475 -18.385 -22.196  0.00  0.00    +0.004 C 
ATOM     14  C   UNL     1      34.195 -17.639 -21.539  0.00  0.00    +0.004 C 
ATOM     15  C   UNL     1      34.498 -19.452 -23.261  0.00  0.00    +0.004 C 
ENDBRANCH   3  12
BRANCH   4  16
ATOM     16  C   UNL     1      32.263 -23.606 -16.868  0.00  0.00    -0.019 C 
BRANCH  16  17
ATOM     17  N   UNL     1      33.081 -24.290 -15.858  0.00  0.00    +0.384 N 
ATOM     18  H   UNL     1      33.569 -23.598 -15.288  0.00  0.00    -0.089 HD
ATOM     19  H   UNL     1      33.764 -24.890 -16.322  0.00  0.00    -0.089 HD
ATOM     20  H   UNL     1      32.480 -24.858 -15.261  0.00  0.00    -0.089 HD
ENDBRANCH  16  17
BRANCH  16  21
ATOM     21  C   UNL     1      31.138 -22.779 -16.185  0.00  0.00    +0.060 C 
ATOM     22  C   UNL     1      29.754 -23.088 -16.773  0.00  0.00    +0.007 C 
BRANCH  21  25
ATOM     23  O   UNL     1      31.893 -22.630 -13.874  0.00  0.00    -0.275 OA
ATOM     24  N   UNL     1      30.010 -23.863 -14.326  0.00  0.00    -0.329 N 
ATOM     25  C   UNL     1      31.069 -23.056 -14.680  0.00  0.00    +0.217 C 
ATOM     26  H   UNL     1      29.870 -24.106 -13.382  0.00  0.00    +0.145 HD
ATOM     27  H   UNL     1      29.393 -24.198 -15.016  0.00  0.00    +0.145 HD
ENDBRANCH  21  25
ENDBRANCH  16  21
ENDBRANCH   4  16
TORSDOF 5
ENDMDL
MODEL 7
REMARK VINA RESULT:      -8.3      2.908      7.505
REMARK  Name = 71666749
REMARK  5 active torsions:
REMARK  status: ('A' for Active; 'I' for Inactive)
REMARK    1  A    between atoms: C_3  and  C_12
REMARK    2  A    between atoms: C_4  and  C_16
REMARK    3  A    between atoms: C_16  and  N_17
REMARK    4  A    between atoms: C_16  and  C_21
REMARK    5  A    between atoms: C_21  and  C_25
REMARK                            x       y       z     vdW  Elec       q    Type
REMARK                         _______ _______ _______ _____ _____    ______ ____
ROOT
ATOM      1  N   UNL     1      33.842 -13.398 -22.933  0.00  0.00    -0.320 N 
ATOM      2  N   UNL     1      33.321 -13.404 -25.093  0.00  0.00    -0.320 N 
ATOM      3  C   UNL     1      34.626 -16.992 -23.464  0.00  0.00    -0.021 C 
ATOM      4  C   UNL     1      33.399 -12.673 -24.004  0.00  0.00    +0.123 C 
ATOM      5  C   UNL     1      34.065 -14.682 -23.360  0.00  0.00    +0.059 C 
ATOM      6  C   UNL     1      34.515 -15.826 -22.699  0.00  0.00    +0.011 C 
ATOM      7  C   UNL     1      33.733 -14.660 -24.711  0.00  0.00    +0.059 C 
ATOM      8  C   UNL     1      34.301 -17.001 -24.823  0.00  0.00    -0.003 C 
ATOM      9  C   UNL     1      33.851 -15.840 -25.464  0.00  0.00    +0.015 C 
ATOM     10  H   UNL     1      33.976 -13.058 -22.019  0.00  0.00    +0.148 HD
ATOM     11  H   UNL     1      33.032 -13.115 -25.989  0.00  0.00    +0.148 HD
ENDROOT
BRANCH   3  12
ATOM     12  C   UNL     1      35.102 -18.249 -22.814  0.00  0.00    +0.019 C 
ATOM     13  C   UNL     1      36.586 -18.229 -22.324  0.00  0.00    +0.004 C 
ATOM     14  C   UNL     1      35.001 -19.462 -23.791  0.00  0.00    +0.004 C 
ATOM     15  C   UNL     1      34.251 -18.588 -21.552  0.00  0.00    +0.004 C 
ENDBRANCH   3  12
BRANCH   4  16
ATOM     16  C   UNL     1      33.055 -11.195 -23.872  0.00  0.00    -0.019 C 
BRANCH  16  17
ATOM     17  N   UNL     1      32.301 -10.954 -22.634  0.00  0.00    +0.384 N 
ATOM     18  H   UNL     1      31.534 -10.308 -22.824  0.00  0.00    -0.089 HD
ATOM     19  H   UNL     1      32.920 -10.548 -21.932  0.00  0.00    -0.089 HD
ATOM     20  H   UNL     1      31.925 -11.835 -22.287  0.00  0.00    -0.089 HD
ENDBRANCH  16  17
BRANCH  16  21
ATOM     21  C   UNL     1      34.300 -10.267 -23.938  0.00  0.00    +0.060 C 
ATOM     22  C   UNL     1      35.034 -10.376 -25.282  0.00  0.00    +0.007 C 
BRANCH  21  25
ATOM     23  O   UNL     1      32.759  -8.388 -23.765  0.00  0.00    -0.275 OA
ATOM     24  N   UNL     1      35.008  -7.972 -23.576  0.00  0.00    -0.329 N 
ATOM     25  C   UNL     1      33.918  -8.797 -23.742  0.00  0.00    +0.217 C 
ATOM     26  H   UNL     1      34.879  -7.005 -23.442  0.00  0.00    +0.145 HD
ATOM     27  H   UNL     1      35.918  -8.348 -23.590  0.00  0.00    +0.145 HD
ENDBRANCH  21  25
ENDBRANCH  16  21
ENDBRANCH   4  16
TORSDOF 5
ENDMDL
MODEL 8
REMARK VINA RESULT:      -8.2      1.221      1.807
REMARK  Name = 71666749
REMARK  5 active torsions:
REMARK  status: ('A' for Active; 'I' for Inactive)
REMARK    1  A    between atoms: C_3  and  C_12
REMARK    2  A    between atoms: C_4  and  C_16
REMARK    3  A    between atoms: C_16  and  N_17
REMARK    4  A    between atoms: C_16  and  C_21
REMARK    5  A    between atoms: C_21  and  C_25
REMARK                            x       y       z     vdW  Elec       q    Type
REMARK                         _______ _______ _______ _____ _____    ______ ____
ROOT
ATOM      1  N   UNL     1      34.180 -12.231 -23.820  0.00  0.00    -0.320 N 
ATOM      2  N   UNL     1      32.574 -13.193 -22.623  0.00  0.00    -0.320 N 
ATOM      3  C   UNL     1      32.321  -9.084 -23.151  0.00  0.00    -0.021 C 
ATOM      4  C   UNL     1      33.681 -13.394 -23.303  0.00  0.00    +0.123 C 
ATOM      5  C   UNL     1      33.340 -11.213 -23.449  0.00  0.00    +0.059 C 
ATOM      6  C   UNL     1      33.365  -9.839 -23.696  0.00  0.00    +0.011 C 
ATOM      7  C   UNL     1      32.346 -11.839 -22.704  0.00  0.00    +0.059 C 
ATOM      8  C   UNL     1      31.310  -9.684 -22.396  0.00  0.00    -0.003 C 
ATOM      9  C   UNL     1      31.306 -11.065 -22.163  0.00  0.00    +0.015 C 
ATOM     10  H   UNL     1      34.998 -12.142 -24.362  0.00  0.00    +0.148 HD
ATOM     11  H   UNL     1      32.027 -13.866 -22.157  0.00  0.00    +0.148 HD
ENDROOT
BRANCH   3  12
ATOM     12  C   UNL     1      32.291  -7.609 -23.379  0.00  0.00    +0.019 C 
ATOM     13  C   UNL     1      33.554  -7.015 -24.084  0.00  0.00    +0.004 C 
ATOM     14  C   UNL     1      32.162  -6.832 -22.032  0.00  0.00    +0.004 C 
ATOM     15  C   UNL     1      31.083  -7.202 -24.277  0.00  0.00    +0.004 C 
ENDBRANCH   3  12
BRANCH   4  16
ATOM     16  C   UNL     1      34.381 -14.728 -23.531  0.00  0.00    -0.019 C 
BRANCH  16  17
ATOM     17  N   UNL     1      34.622 -15.405 -22.250  0.00  0.00    +0.384 N 
ATOM     18  H   UNL     1      35.490 -15.060 -21.841  0.00  0.00    -0.089 HD
ATOM     19  H   UNL     1      34.696 -16.411 -22.406  0.00  0.00    -0.089 HD
ATOM     20  H   UNL     1      33.848 -15.217 -21.614  0.00  0.00    -0.089 HD
ENDBRANCH  16  17
BRANCH  16  21
ATOM     21  C   UNL     1      33.611 -15.665 -24.503  0.00  0.00    +0.060 C 
ATOM     22  C   UNL     1      33.096 -14.919 -25.742  0.00  0.00    +0.007 C 
BRANCH  21  25
ATOM     23  O   UNL     1      35.160 -16.766 -26.026  0.00  0.00    -0.275 OA
ATOM     24  N   UNL     1      34.436 -17.927 -24.183  0.00  0.00    -0.329 N 
ATOM     25  C   UNL     1      34.494 -16.815 -24.995  0.00  0.00    +0.217 C 
ATOM     26  H   UNL     1      34.965 -18.727 -24.405  0.00  0.00    +0.145 HD
ATOM     27  H   UNL     1      33.866 -17.923 -23.381  0.00  0.00    +0.145 HD
ENDBRANCH  21  25
ENDBRANCH  16  21
ENDBRANCH   4  16
TORSDOF 5
ENDMDL
MODEL 9
REMARK VINA RESULT:      -8.2      1.647      2.539
REMARK  Name = 71666749
REMARK  5 active torsions:
REMARK  status: ('A' for Active; 'I' for Inactive)
REMARK    1  A    between atoms: C_3  and  C_12
REMARK    2  A    between atoms: C_4  and  C_16
REMARK    3  A    between atoms: C_16  and  N_17
REMARK    4  A    between atoms: C_16  and  C_21
REMARK    5  A    between atoms: C_21  and  C_25
REMARK                            x       y       z     vdW  Elec       q    Type
REMARK                         _______ _______ _______ _____ _____    ______ ____
ROOT
ATOM      1  N   UNL     1      32.337 -12.085 -22.808  0.00  0.00    -0.320 N 
ATOM      2  N   UNL     1      34.254 -12.386 -23.892  0.00  0.00    -0.320 N 
ATOM      3  C   UNL     1      32.880  -8.484 -23.551  0.00  0.00    -0.021 C 
ATOM      4  C   UNL     1      33.272 -12.979 -23.249  0.00  0.00    +0.123 C 
ATOM      5  C   UNL     1      32.741 -10.832 -23.193  0.00  0.00    +0.059 C 
ATOM      6  C   UNL     1      32.178  -9.568 -23.013  0.00  0.00    +0.011 C 
ATOM      7  C   UNL     1      33.939 -11.047 -23.867  0.00  0.00    +0.059 C 
ATOM      8  C   UNL     1      34.085  -8.668 -24.234  0.00  0.00    -0.003 C 
ATOM      9  C   UNL     1      34.631  -9.947 -24.401  0.00  0.00    +0.015 C 
ATOM     10  H   UNL     1      31.519 -12.302 -22.305  0.00  0.00    +0.148 HD
ATOM     11  H   UNL     1      35.042 -12.809 -24.303  0.00  0.00    +0.148 HD
ENDROOT
BRANCH   3  12
ATOM     12  C   UNL     1      32.329  -7.106 -23.392  0.00  0.00    +0.019 C 
ATOM     13  C   UNL     1      32.493  -6.479 -21.969  0.00  0.00    +0.004 C 
ATOM     14  C   UNL     1      30.797  -7.073 -23.688  0.00  0.00    +0.004 C 
ATOM     15  C   UNL     1      33.020  -6.106 -24.370  0.00  0.00    +0.004 C 
ENDBRANCH   3  12
BRANCH   4  16
ATOM     16  C   UNL     1      33.126 -14.472 -22.986  0.00  0.00    -0.019 C 
BRANCH  16  17
ATOM     17  N   UNL     1      33.494 -15.241 -24.182  0.00  0.00    +0.384 N 
ATOM     18  H   UNL     1      32.956 -14.905 -24.982  0.00  0.00    -0.089 HD
ATOM     19  H   UNL     1      33.291 -16.229 -24.028  0.00  0.00    -0.089 HD
ATOM     20  H   UNL     1      34.490 -15.125 -24.369  0.00  0.00    -0.089 HD
ENDBRANCH  16  17
BRANCH  16  21
ATOM     21  C   UNL     1      33.942 -14.961 -21.756  0.00  0.00    +0.060 C 
ATOM     22  C   UNL     1      33.058 -15.165 -20.518  0.00  0.00    +0.007 C 
BRANCH  21  25
ATOM     23  O   UNL     1      35.611 -16.398 -22.796  0.00  0.00    -0.275 OA
ATOM     24  N   UNL     1      34.073 -17.358 -21.388  0.00  0.00    -0.329 N 
ATOM     25  C   UNL     1      34.649 -16.289 -22.039  0.00  0.00    +0.217 C 
ATOM     26  H   UNL     1      34.447 -18.262 -21.499  0.00  0.00    +0.145 HD
ATOM     27  H   UNL     1      33.287 -17.219 -20.812  0.00  0.00    +0.145 HD
ENDBRANCH  21  25
ENDBRANCH  16  21
ENDBRANCH   4  16
TORSDOF 5
ENDMDL
