MODEL 1
REMARK VINA RESULT:      -9.4      0.000      0.000
REMARK  Name = 5282242
REMARK  8 active torsions:
REMARK  status: ('A' for Active; 'I' for Inactive)
REMARK    1  A    between atoms: N_2  and  CA_9
REMARK    2  A    between atoms: C_3  and  C_18
REMARK    3  A    between atoms: CA_11  and  C_15
REMARK    4  A    between atoms: C_15  and  O_16
REMARK    5  A    between atoms: C_18  and  C_23
REMARK    6  A    between atoms: C_19  and  C_28
REMARK    7  A    between atoms: C_28  and  C_30
REMARK    8  A    between atoms: C_30  and  O_31
REMARK                            x       y       z     vdW  Elec       q    Type
REMARK                         _______ _______ _______ _____ _____    ______ ____
ROOT
ATOM      1  O   UNK A   0      35.362 -24.553 -15.972  0.00  0.00    -0.270 OA
ATOM      2  N   MET A   1      35.100 -22.423 -15.090  0.00  0.00    -0.293 N 
ATOM      3  C   UNK A   0      34.690 -23.538 -15.805  0.00  0.00    +0.248 C 
ATOM      4  H   MET A   1      34.487 -21.657 -15.012  0.00  0.00    +0.150 HD
ENDROOT
BRANCH   2   9
ATOM      5  SD  MET A   1      35.237 -24.094 -12.509  0.00  0.00    -0.114 S 
ATOM      6  O   MET A   1      38.050 -23.335 -16.166  0.00  0.00    -0.273 OA
ATOM      7  N   MET A   1      37.443 -24.063 -14.011  0.00  0.00    -0.242 N 
ATOM      8  CE  MET A   1      36.656 -23.179 -13.169  0.00  0.00    +0.155 C 
ATOM      9  CA  MET A   1      36.422 -22.345 -14.441  0.00  0.00    +0.179 C 
ATOM     10  C   MET A   1      37.480 -23.271 -15.102  0.00  0.00    +0.251 C 
ATOM     11  CA  MET A   1      37.892 -25.270 -13.600  0.00  0.00    +0.127 C 
ATOM     12  CG  MET A   1      36.270 -25.339 -11.652  0.00  0.00    +0.087 C 
ATOM     13  CB  MET A   1      37.400 -25.870 -12.503  0.00  0.00    +0.007 C 
BRANCH  11  15
ATOM     14  OXT MET A   1      40.037 -26.201 -14.028  0.00  0.00    -0.244 OA
ATOM     15  C   MET A   1      38.894 -25.986 -14.391  0.00  0.00    +0.352 C 
BRANCH  15  16
ATOM     16  O   MET A   1      38.356 -26.364 -15.570  0.00  0.00    -0.476 OA
ATOM     17  H   MET A   1      38.357 -27.268 -15.818  0.00  0.00    +0.295 HD
ENDBRANCH  15  16
ENDBRANCH  11  15
ENDBRANCH   2   9
BRANCH   3  18
ATOM     18  C   UNK A   0      33.338 -23.402 -16.444  0.00  0.00    +0.076 C 
ATOM     19  C   UNK A   0      33.284 -22.856 -17.676  0.00  0.00    -0.008 C 
BRANCH  18  23
ATOM     20  S   UNK A   0      30.711 -24.650 -13.826  0.00  0.00    -0.060 S 
ATOM     21  N   UNK A   0      30.950 -23.578 -16.167  0.00  0.00    -0.385 NA
ATOM     22  N   UNK A   0      28.726 -23.949 -15.454  0.00  0.00    -0.328 N 
ATOM     23  C   UNK A   0      32.201 -23.786 -15.652  0.00  0.00    +0.127 C 
ATOM     24  C   UNK A   0      32.294 -24.350 -14.414  0.00  0.00    +0.125 C 
ATOM     25  C   UNK A   0      30.074 -23.999 -15.282  0.00  0.00    +0.204 C 
ATOM     26  H   UNK A   0      28.127 -24.283 -14.747  0.00  0.00    +0.145 HD
ATOM     27  H   UNK A   0      28.349 -23.579 -16.284  0.00  0.00    +0.145 HD
ENDBRANCH  18  23
BRANCH  19  28
ATOM     28  C   UNK A   0      34.453 -22.445 -18.525  0.00  0.00    +0.136 C 
BRANCH  28  30
ATOM     29  O   UNK A   0      34.684 -20.586 -20.090  0.00  0.00    -0.250 OA
ATOM     30  C   UNK A   0      34.010 -21.485 -19.608  0.00  0.00    +0.318 C 
BRANCH  30  31
ATOM     31  O   UNK A   0      32.730 -21.738 -19.995  0.00  0.00    -0.480 OA
ATOM     32  H   UNK A   0      32.014 -21.387 -19.503  0.00  0.00    +0.295 HD
ENDBRANCH  30  31
ENDBRANCH  28  30
ENDBRANCH  19  28
ENDBRANCH   3  18
TORSDOF 8
ENDMDL
MODEL 2
REMARK VINA RESULT:      -9.3      1.306      1.402
REMARK  Name = 5282242
REMARK  8 active torsions:
REMARK  status: ('A' for Active; 'I' for Inactive)
REMARK    1  A    between atoms: N_2  and  CA_9
REMARK    2  A    between atoms: C_3  and  C_18
REMARK    3  A    between atoms: CA_11  and  C_15
REMARK    4  A    between atoms: C_15  and  O_16
REMARK    5  A    between atoms: C_18  and  C_23
REMARK    6  A    between atoms: C_19  and  C_28
REMARK    7  A    between atoms: C_28  and  C_30
REMARK    8  A    between atoms: C_30  and  O_31
REMARK                            x       y       z     vdW  Elec       q    Type
REMARK                         _______ _______ _______ _____ _____    ______ ____
ROOT
ATOM      1  O   UNK A   0      35.954 -22.377 -17.308  0.00  0.00    -0.270 OA
ATOM      2  N   MET A   1      35.163 -22.776 -15.164  0.00  0.00    -0.293 N 
ATOM      3  C   UNK A   0      35.050 -22.706 -16.544  0.00  0.00    +0.248 C 
ATOM      4  H   MET A   1      34.379 -23.051 -14.637  0.00  0.00    +0.150 HD
ENDROOT
BRANCH   2   9
ATOM      5  SD  MET A   1      35.466 -24.350 -12.537  0.00  0.00    -0.114 S 
ATOM      6  O   MET A   1      38.278 -23.168 -16.081  0.00  0.00    -0.273 OA
ATOM      7  N   MET A   1      37.703 -23.954 -13.937  0.00  0.00    -0.242 N 
ATOM      8  CE  MET A   1      36.732 -23.209 -13.155  0.00  0.00    +0.155 C 
ATOM      9  CA  MET A   1      36.417 -22.453 -14.458  0.00  0.00    +0.179 C 
ATOM     10  C   MET A   1      37.653 -23.188 -15.046  0.00  0.00    +0.251 C 
ATOM     11  CA  MET A   1      38.338 -25.054 -13.474  0.00  0.00    +0.127 C 
ATOM     12  CG  MET A   1      36.659 -25.377 -11.601  0.00  0.00    +0.087 C 
ATOM     13  CB  MET A   1      37.906 -25.713 -12.385  0.00  0.00    +0.007 C 
BRANCH  11  15
ATOM     14  OXT MET A   1      40.572 -25.046 -14.284  0.00  0.00    -0.244 OA
ATOM     15  C   MET A   1      39.488 -25.595 -14.200  0.00  0.00    +0.352 C 
BRANCH  15  16
ATOM     16  O   MET A   1      39.160 -26.782 -14.752  0.00  0.00    -0.476 OA
ATOM     17  H   MET A   1      39.644 -27.109 -15.485  0.00  0.00    +0.295 HD
ENDBRANCH  15  16
ENDBRANCH  11  15
ENDBRANCH   2   9
BRANCH   3  18
ATOM     18  C   UNK A   0      33.677 -23.011 -17.070  0.00  0.00    +0.076 C 
ATOM     19  C   UNK A   0      33.453 -22.801 -18.383  0.00  0.00    -0.008 C 
BRANCH  18  23
ATOM     20  S   UNK A   0      30.561 -23.710 -14.809  0.00  0.00    -0.060 S 
ATOM     21  N   UNK A   0      33.054 -24.309 -15.137  0.00  0.00    -0.385 NA
ATOM     22  N   UNK A   0      31.995 -25.376 -13.311  0.00  0.00    -0.328 N 
ATOM     23  C   UNK A   0      32.687 -23.421 -16.111  0.00  0.00    +0.127 C 
ATOM     24  C   UNK A   0      31.398 -22.976 -16.113  0.00  0.00    +0.125 C 
ATOM     25  C   UNK A   0      32.002 -24.539 -14.383  0.00  0.00    +0.204 C 
ATOM     26  H   UNK A   0      31.169 -25.501 -12.789  0.00  0.00    +0.145 HD
ATOM     27  H   UNK A   0      32.815 -25.856 -13.057  0.00  0.00    +0.145 HD
ENDBRANCH  18  23
BRANCH  19  28
ATOM     28  C   UNK A   0      34.465 -22.373 -19.407  0.00  0.00    +0.136 C 
BRANCH  28  30
ATOM     29  O   UNK A   0      35.005 -20.131 -20.209  0.00  0.00    -0.250 OA
ATOM     30  C   UNK A   0      34.173 -20.967 -19.886  0.00  0.00    +0.318 C 
BRANCH  30  31
ATOM     31  O   UNK A   0      32.834 -20.727 -19.913  0.00  0.00    -0.480 OA
ATOM     32  H   UNK A   0      32.334 -20.949 -20.673  0.00  0.00    +0.295 HD
ENDBRANCH  30  31
ENDBRANCH  28  30
ENDBRANCH  19  28
ENDBRANCH   3  18
TORSDOF 8
ENDMDL
MODEL 3
REMARK VINA RESULT:      -9.1      3.383      7.189
REMARK  Name = 5282242
REMARK  8 active torsions:
REMARK  status: ('A' for Active; 'I' for Inactive)
REMARK    1  A    between atoms: N_2  and  CA_9
REMARK    2  A    between atoms: C_3  and  C_18
REMARK    3  A    between atoms: CA_11  and  C_15
REMARK    4  A    between atoms: C_15  and  O_16
REMARK    5  A    between atoms: C_18  and  C_23
REMARK    6  A    between atoms: C_19  and  C_28
REMARK    7  A    between atoms: C_28  and  C_30
REMARK    8  A    between atoms: C_30  and  O_31
REMARK                            x       y       z     vdW  Elec       q    Type
REMARK                         _______ _______ _______ _____ _____    ______ ____
ROOT
ATOM      1  O   UNK A   0      33.734 -24.171 -18.514  0.00  0.00    -0.270 OA
ATOM      2  N   MET A   1      34.986 -22.250 -18.164  0.00  0.00    -0.293 N 
ATOM      3  C   UNK A   0      34.198 -23.317 -17.762  0.00  0.00    +0.248 C 
ATOM      4  H   MET A   1      35.311 -21.617 -17.484  0.00  0.00    +0.150 HD
ENDROOT
BRANCH   2   9
ATOM      5  SD  MET A   1      32.656 -21.102 -19.814  0.00  0.00    -0.114 S 
ATOM      6  O   MET A   1      37.250 -20.295 -19.487  0.00  0.00    -0.273 OA
ATOM      7  N   MET A   1      35.089 -20.184 -20.415  0.00  0.00    -0.242 N 
ATOM      8  CE  MET A   1      34.303 -21.402 -20.509  0.00  0.00    +0.155 C 
ATOM      9  CA  MET A   1      35.354 -22.029 -19.575  0.00  0.00    +0.179 C 
ATOM     10  C   MET A   1      36.161 -20.720 -19.796  0.00  0.00    +0.251 C 
ATOM     11  CA  MET A   1      34.661 -18.990 -20.883  0.00  0.00    +0.127 C 
ATOM     12  CG  MET A   1      32.252 -19.770 -21.004  0.00  0.00    +0.087 C 
ATOM     13  CB  MET A   1      33.372 -18.775 -21.195  0.00  0.00    +0.007 C 
BRANCH  11  15
ATOM     14  OXT MET A   1      35.470 -16.800 -20.434  0.00  0.00    -0.244 OA
ATOM     15  C   MET A   1      35.598 -17.871 -20.999  0.00  0.00    +0.352 C 
BRANCH  15  16
ATOM     16  O   MET A   1      36.613 -18.213 -21.822  0.00  0.00    -0.476 OA
ATOM     17  H   MET A   1      36.744 -17.747 -22.625  0.00  0.00    +0.295 HD
ENDBRANCH  15  16
ENDBRANCH  11  15
ENDBRANCH   2   9
BRANCH   3  18
ATOM     18  C   UNK A   0      33.881 -23.336 -16.295  0.00  0.00    +0.076 C 
ATOM     19  C   UNK A   0      32.615 -23.048 -15.928  0.00  0.00    -0.008 C 
BRANCH  18  23
ATOM     20  S   UNK A   0      36.401 -23.846 -13.346  0.00  0.00    -0.060 S 
ATOM     21  N   UNK A   0      36.192 -23.909 -15.922  0.00  0.00    -0.385 NA
ATOM     22  N   UNK A   0      38.339 -24.422 -15.075  0.00  0.00    -0.328 N 
ATOM     23  C   UNK A   0      34.975 -23.574 -15.393  0.00  0.00    +0.127 C 
ATOM     24  C   UNK A   0      34.873 -23.486 -14.036  0.00  0.00    +0.125 C 
ATOM     25  C   UNK A   0      37.032 -24.080 -14.925  0.00  0.00    +0.204 C 
ATOM     26  H   UNK A   0      38.913 -24.533 -14.282  0.00  0.00    +0.145 HD
ATOM     27  H   UNK A   0      38.713 -24.557 -15.975  0.00  0.00    +0.145 HD
ENDBRANCH  18  23
BRANCH  19  28
ATOM     28  C   UNK A   0      31.453 -22.794 -16.846  0.00  0.00    +0.136 C 
BRANCH  28  30
ATOM     29  O   UNK A   0      30.004 -23.283 -14.944  0.00  0.00    -0.250 OA
ATOM     30  C   UNK A   0      30.149 -22.854 -16.080  0.00  0.00    +0.318 C 
BRANCH  30  31
ATOM     31  O   UNK A   0      29.120 -22.367 -16.824  0.00  0.00    -0.480 OA
ATOM     32  H   UNK A   0      28.331 -22.864 -16.913  0.00  0.00    +0.295 HD
ENDBRANCH  30  31
ENDBRANCH  28  30
ENDBRANCH  19  28
ENDBRANCH   3  18
TORSDOF 8
ENDMDL
MODEL 4
REMARK VINA RESULT:      -9.1      2.805      6.758
REMARK  Name = 5282242
REMARK  8 active torsions:
REMARK  status: ('A' for Active; 'I' for Inactive)
REMARK    1  A    between atoms: N_2  and  CA_9
REMARK    2  A    between atoms: C_3  and  C_18
REMARK    3  A    between atoms: CA_11  and  C_15
REMARK    4  A    between atoms: C_15  and  O_16
REMARK    5  A    between atoms: C_18  and  C_23
REMARK    6  A    between atoms: C_19  and  C_28
REMARK    7  A    between atoms: C_28  and  C_30
REMARK    8  A    between atoms: C_30  and  O_31
REMARK                            x       y       z     vdW  Elec       q    Type
REMARK                         _______ _______ _______ _____ _____    ______ ____
ROOT
ATOM      1  O   UNK A   0      33.803 -24.075 -18.379  0.00  0.00    -0.270 OA
ATOM      2  N   MET A   1      35.030 -22.127 -18.092  0.00  0.00    -0.293 N 
ATOM      3  C   UNK A   0      34.252 -23.188 -17.657  0.00  0.00    +0.248 C 
ATOM      4  H   MET A   1      35.344 -21.466 -17.434  0.00  0.00    +0.150 HD
ENDROOT
BRANCH   2   9
ATOM      5  SD  MET A   1      32.695 -21.080 -19.801  0.00  0.00    -0.114 S 
ATOM      6  O   MET A   1      37.272 -20.187 -19.474  0.00  0.00    -0.273 OA
ATOM      7  N   MET A   1      35.117 -20.146 -20.420  0.00  0.00    -0.242 N 
ATOM      8  CE  MET A   1      34.351 -21.380 -20.473  0.00  0.00    +0.155 C 
ATOM      9  CA  MET A   1      35.405 -21.953 -19.508  0.00  0.00    +0.179 C 
ATOM     10  C   MET A   1      36.192 -20.641 -19.774  0.00  0.00    +0.251 C 
ATOM     11  CA  MET A   1      34.673 -18.978 -20.935  0.00  0.00    +0.127 C 
ATOM     12  CG  MET A   1      32.277 -19.801 -21.043  0.00  0.00    +0.087 C 
ATOM     13  CB  MET A   1      33.382 -18.796 -21.264  0.00  0.00    +0.007 C 
BRANCH  11  15
ATOM     14  OXT MET A   1      35.461 -16.771 -20.538  0.00  0.00    -0.244 OA
ATOM     15  C   MET A   1      35.593 -17.849 -21.088  0.00  0.00    +0.352 C 
BRANCH  15  16
ATOM     16  O   MET A   1      36.596 -18.192 -21.924  0.00  0.00    -0.476 OA
ATOM     17  H   MET A   1      36.436 -18.787 -22.631  0.00  0.00    +0.295 HD
ENDBRANCH  15  16
ENDBRANCH  11  15
ENDBRANCH   2   9
BRANCH   3  18
ATOM     18  C   UNK A   0      33.925 -23.156 -16.192  0.00  0.00    +0.076 C 
ATOM     19  C   UNK A   0      34.957 -23.091 -15.325  0.00  0.00    -0.008 C 
BRANCH  18  23
ATOM     20  S   UNK A   0      30.395 -23.799 -14.631  0.00  0.00    -0.060 S 
ATOM     21  N   UNK A   0      31.593 -22.817 -16.701  0.00  0.00    -0.385 NA
ATOM     22  N   UNK A   0      29.233 -22.700 -16.757  0.00  0.00    -0.328 N 
ATOM     23  C   UNK A   0      32.539 -23.285 -15.830  0.00  0.00    +0.127 C 
ATOM     24  C   UNK A   0      32.109 -23.848 -14.665  0.00  0.00    +0.125 C 
ATOM     25  C   UNK A   0      30.411 -23.036 -16.169  0.00  0.00    +0.204 C 
ATOM     26  H   UNK A   0      28.381 -22.895 -16.300  0.00  0.00    +0.145 HD
ATOM     27  H   UNK A   0      29.229 -22.263 -17.638  0.00  0.00    +0.145 HD
ENDBRANCH  18  23
BRANCH  19  28
ATOM     28  C   UNK A   0      36.412 -22.958 -15.673  0.00  0.00    +0.136 C 
BRANCH  28  30
ATOM     29  O   UNK A   0      38.072 -23.940 -14.178  0.00  0.00    -0.250 OA
ATOM     30  C   UNK A   0      37.213 -24.073 -15.039  0.00  0.00    +0.318 C 
BRANCH  30  31
ATOM     31  O   UNK A   0      36.865 -25.283 -15.555  0.00  0.00    -0.480 OA
ATOM     32  H   UNK A   0      36.299 -25.852 -15.072  0.00  0.00    +0.295 HD
ENDBRANCH  30  31
ENDBRANCH  28  30
ENDBRANCH  19  28
ENDBRANCH   3  18
TORSDOF 8
ENDMDL
MODEL 5
REMARK VINA RESULT:      -9.0      3.316      4.615
REMARK  Name = 5282242
REMARK  8 active torsions:
REMARK  status: ('A' for Active; 'I' for Inactive)
REMARK    1  A    between atoms: N_2  and  CA_9
REMARK    2  A    between atoms: C_3  and  C_18
REMARK    3  A    between atoms: CA_11  and  C_15
REMARK    4  A    between atoms: C_15  and  O_16
REMARK    5  A    between atoms: C_18  and  C_23
REMARK    6  A    between atoms: C_19  and  C_28
REMARK    7  A    between atoms: C_28  and  C_30
REMARK    8  A    between atoms: C_30  and  O_31
REMARK                            x       y       z     vdW  Elec       q    Type
REMARK                         _______ _______ _______ _____ _____    ______ ____
ROOT
ATOM      1  O   UNK A   0      31.994 -23.588 -14.212  0.00  0.00    -0.270 OA
ATOM      2  N   MET A   1      33.929 -24.502 -15.110  0.00  0.00    -0.293 N 
ATOM      3  C   UNK A   0      32.768 -23.746 -15.154  0.00  0.00    +0.248 C 
ATOM      4  H   MET A   1      34.485 -24.566 -15.919  0.00  0.00    +0.150 HD
ENDROOT
BRANCH   2   9
ATOM      5  SD  MET A   1      36.745 -25.710 -15.396  0.00  0.00    -0.114 S 
ATOM      6  O   MET A   1      34.409 -23.403 -12.066  0.00  0.00    -0.273 OA
ATOM      7  N   MET A   1      36.130 -24.712 -12.998  0.00  0.00    -0.242 N 
ATOM      8  CE  MET A   1      35.775 -25.820 -13.869  0.00  0.00    +0.155 C 
ATOM      9  CA  MET A   1      34.361 -25.213 -13.892  0.00  0.00    +0.179 C 
ATOM     10  C   MET A   1      34.879 -24.259 -12.780  0.00  0.00    +0.251 C 
ATOM     11  CA  MET A   1      37.405 -24.423 -12.652  0.00  0.00    +0.127 C 
ATOM     12  CG  MET A   1      38.358 -25.826 -14.537  0.00  0.00    +0.087 C 
ATOM     13  CB  MET A   1      38.452 -24.943 -13.315  0.00  0.00    +0.007 C 
BRANCH  11  15
ATOM     14  OXT MET A   1      38.459 -22.548 -11.642  0.00  0.00    -0.244 OA
ATOM     15  C   MET A   1      37.671 -23.473 -11.571  0.00  0.00    +0.352 C 
BRANCH  15  16
ATOM     16  O   MET A   1      36.914 -23.784 -10.497  0.00  0.00    -0.476 OA
ATOM     17  H   MET A   1      36.355 -23.136 -10.114  0.00  0.00    +0.295 HD
ENDBRANCH  15  16
ENDBRANCH  11  15
ENDBRANCH   2   9
BRANCH   3  18
ATOM     18  C   UNK A   0      32.466 -23.152 -16.499  0.00  0.00    +0.076 C 
ATOM     19  C   UNK A   0      31.175 -23.114 -16.887  0.00  0.00    -0.008 C 
BRANCH  18  23
ATOM     20  S   UNK A   0      35.070 -22.041 -19.201  0.00  0.00    -0.060 S 
ATOM     21  N   UNK A   0      34.810 -22.623 -16.696  0.00  0.00    -0.385 NA
ATOM     22  N   UNK A   0      36.997 -22.025 -17.367  0.00  0.00    -0.328 N 
ATOM     23  C   UNK A   0      33.590 -22.749 -17.302  0.00  0.00    +0.127 C 
ATOM     24  C   UNK A   0      33.512 -22.485 -18.637  0.00  0.00    +0.125 C 
ATOM     25  C   UNK A   0      35.678 -22.249 -17.610  0.00  0.00    +0.204 C 
ATOM     26  H   UNK A   0      37.592 -21.746 -18.102  0.00  0.00    +0.145 HD
ATOM     27  H   UNK A   0      37.357 -22.141 -16.460  0.00  0.00    +0.145 HD
ENDBRANCH  18  23
BRANCH  19  28
ATOM     28  C   UNK A   0      29.983 -23.527 -16.072  0.00  0.00    +0.136 C 
BRANCH  28  30
ATOM     29  O   UNK A   0      27.942 -24.136 -17.265  0.00  0.00    -0.250 OA
ATOM     30  C   UNK A   0      28.703 -23.278 -16.841  0.00  0.00    +0.318 C 
BRANCH  30  31
ATOM     31  O   UNK A   0      28.489 -21.947 -17.020  0.00  0.00    -0.480 OA
ATOM     32  H   UNK A   0      27.707 -21.550 -16.690  0.00  0.00    +0.295 HD
ENDBRANCH  30  31
ENDBRANCH  28  30
ENDBRANCH  19  28
ENDBRANCH   3  18
TORSDOF 8
ENDMDL
MODEL 6
REMARK VINA RESULT:      -8.9     11.735     14.760
REMARK  Name = 5282242
REMARK  8 active torsions:
REMARK  status: ('A' for Active; 'I' for Inactive)
REMARK    1  A    between atoms: N_2  and  CA_9
REMARK    2  A    between atoms: C_3  and  C_18
REMARK    3  A    between atoms: CA_11  and  C_15
REMARK    4  A    between atoms: C_15  and  O_16
REMARK    5  A    between atoms: C_18  and  C_23
REMARK    6  A    between atoms: C_19  and  C_28
REMARK    7  A    between atoms: C_28  and  C_30
REMARK    8  A    between atoms: C_30  and  O_31
REMARK                            x       y       z     vdW  Elec       q    Type
REMARK                         _______ _______ _______ _____ _____    ______ ____
ROOT
ATOM      1  O   UNK A   0      30.572 -10.727 -22.336  0.00  0.00    -0.270 OA
ATOM      2  N   MET A   1      32.575 -11.880 -22.535  0.00  0.00    -0.293 N 
ATOM      3  C   UNK A   0      31.788 -10.740 -22.515  0.00  0.00    +0.248 C 
ATOM      4  H   MET A   1      33.543 -11.787 -22.686  0.00  0.00    +0.150 HD
ENDROOT
BRANCH   2   9
ATOM      5  SD  MET A   1      33.669 -13.910 -24.574  0.00  0.00    -0.114 S 
ATOM      6  O   MET A   1      32.777 -13.917 -19.984  0.00  0.00    -0.273 OA
ATOM      7  N   MET A   1      33.267 -14.827 -22.100  0.00  0.00    -0.242 N 
ATOM      8  CE  MET A   1      32.514 -14.364 -23.253  0.00  0.00    +0.155 C 
ATOM      9  CA  MET A   1      32.013 -13.230 -22.340  0.00  0.00    +0.179 C 
ATOM     10  C   MET A   1      32.697 -14.014 -21.187  0.00  0.00    +0.251 C 
ATOM     11  CA  MET A   1      34.206 -15.796 -22.171  0.00  0.00    +0.127 C 
ATOM     12  CG  MET A   1      34.401 -15.584 -24.690  0.00  0.00    +0.087 C 
ATOM     13  CB  MET A   1      34.725 -16.192 -23.346  0.00  0.00    +0.007 C 
BRANCH  11  15
ATOM     14  OXT MET A   1      34.864 -17.594 -20.763  0.00  0.00    -0.244 OA
ATOM     15  C   MET A   1      34.731 -16.398 -20.944  0.00  0.00    +0.352 C 
BRANCH  15  16
ATOM     16  O   MET A   1      35.039 -15.426 -20.059  0.00  0.00    -0.476 OA
ATOM     17  H   MET A   1      34.390 -15.116 -19.457  0.00  0.00    +0.295 HD
ENDBRANCH  15  16
ENDBRANCH  11  15
ENDBRANCH   2   9
BRANCH   3  18
ATOM     18  C   UNK A   0      32.533  -9.467 -22.796  0.00  0.00    +0.076 C 
ATOM     19  C   UNK A   0      33.415  -9.475 -23.817  0.00  0.00    -0.008 C 
BRANCH  18  23
ATOM     20  S   UNK A   0      32.248  -6.865 -19.887  0.00  0.00    -0.060 S 
ATOM     21  N   UNK A   0      31.652  -7.264 -22.371  0.00  0.00    -0.385 NA
ATOM     22  N   UNK A   0      30.968  -5.177 -21.496  0.00  0.00    -0.328 N 
ATOM     23  C   UNK A   0      32.309  -8.367 -21.897  0.00  0.00    +0.127 C 
ATOM     24  C   UNK A   0      32.712  -8.357 -20.595  0.00  0.00    +0.125 C 
ATOM     25  C   UNK A   0      31.561  -6.395 -21.389  0.00  0.00    +0.204 C 
ATOM     26  H   UNK A   0      30.935  -4.574 -20.717  0.00  0.00    +0.145 HD
ATOM     27  H   UNK A   0      30.570  -4.896 -22.351  0.00  0.00    +0.145 HD
ENDBRANCH  18  23
BRANCH  19  28
ATOM     28  C   UNK A   0      33.671 -10.607 -24.770  0.00  0.00    +0.136 C 
BRANCH  28  30
ATOM     29  O   UNK A   0      35.376 -10.791 -26.507  0.00  0.00    -0.250 OA
ATOM     30  C   UNK A   0      35.059 -10.497 -25.363  0.00  0.00    +0.318 C 
BRANCH  30  31
ATOM     31  O   UNK A   0      35.947 -10.023 -24.449  0.00  0.00    -0.480 OA
ATOM     32  H   UNK A   0      36.868 -10.106 -24.604  0.00  0.00    +0.295 HD
ENDBRANCH  30  31
ENDBRANCH  28  30
ENDBRANCH  19  28
ENDBRANCH   3  18
TORSDOF 8
ENDMDL
MODEL 7
REMARK VINA RESULT:      -8.8     13.982     17.305
REMARK  Name = 5282242
REMARK  8 active torsions:
REMARK  status: ('A' for Active; 'I' for Inactive)
REMARK    1  A    between atoms: N_2  and  CA_9
REMARK    2  A    between atoms: C_3  and  C_18
REMARK    3  A    between atoms: CA_11  and  C_15
REMARK    4  A    between atoms: C_15  and  O_16
REMARK    5  A    between atoms: C_18  and  C_23
REMARK    6  A    between atoms: C_19  and  C_28
REMARK    7  A    between atoms: C_28  and  C_30
REMARK    8  A    between atoms: C_30  and  O_31
REMARK                            x       y       z     vdW  Elec       q    Type
REMARK                         _______ _______ _______ _____ _____    ______ ____
ROOT
ATOM      1  O   UNK A   0      34.786  -8.137 -22.995  0.00  0.00    -0.270 OA
ATOM      2  N   MET A   1      33.315  -9.695 -23.887  0.00  0.00    -0.293 N 
ATOM      3  C   UNK A   0      33.656  -8.461 -23.354  0.00  0.00    +0.248 C 
ATOM      4  H   MET A   1      32.381  -9.859 -24.145  0.00  0.00    +0.150 HD
ENDROOT
BRANCH   2   9
ATOM      5  SD  MET A   1      32.632 -12.220 -22.265  0.00  0.00    -0.114 S 
ATOM      6  O   MET A   1      34.178 -11.327 -26.586  0.00  0.00    -0.273 OA
ATOM      7  N   MET A   1      33.686 -12.623 -24.683  0.00  0.00    -0.242 N 
ATOM      8  CE  MET A   1      34.062 -12.117 -23.374  0.00  0.00    +0.155 C 
ATOM      9  CA  MET A   1      34.306 -10.771 -24.080  0.00  0.00    +0.179 C 
ATOM     10  C   MET A   1      34.098 -11.559 -25.402  0.00  0.00    +0.251 C 
ATOM     11  CA  MET A   1      33.111 -13.832 -24.871  0.00  0.00    +0.127 C 
ATOM     12  CG  MET A   1      32.470 -14.036 -22.427  0.00  0.00    +0.087 C 
ATOM     13  CB  MET A   1      32.572 -14.523 -23.852  0.00  0.00    +0.007 C 
BRANCH  11  15
ATOM     14  OXT MET A   1      33.688 -15.304 -26.646  0.00  0.00    -0.244 OA
ATOM     15  C   MET A   1      33.005 -14.390 -26.220  0.00  0.00    +0.352 C 
BRANCH  15  16
ATOM     16  O   MET A   1      32.042 -13.738 -26.906  0.00  0.00    -0.476 OA
ATOM     17  H   MET A   1      32.253 -12.963 -27.390  0.00  0.00    +0.295 HD
ENDBRANCH  15  16
ENDBRANCH  11  15
ENDBRANCH   2   9
BRANCH   3  18
ATOM     18  C   UNK A   0      32.499  -7.522 -23.176  0.00  0.00    +0.076 C 
ATOM     19  C   UNK A   0      31.608  -7.808 -22.205  0.00  0.00    -0.008 C 
BRANCH  18  23
ATOM     20  S   UNK A   0      32.769  -4.836 -26.009  0.00  0.00    -0.060 S 
ATOM     21  N   UNK A   0      31.339  -5.569 -23.983  0.00  0.00    -0.385 NA
ATOM     22  N   UNK A   0      30.564  -3.645 -25.118  0.00  0.00    -0.328 N 
ATOM     23  C   UNK A   0      32.387  -6.439 -24.115  0.00  0.00    +0.127 C 
ATOM     24  C   UNK A   0      33.268  -6.224 -25.134  0.00  0.00    +0.125 C 
ATOM     25  C   UNK A   0      31.438  -4.671 -24.939  0.00  0.00    +0.204 C 
ATOM     26  H   UNK A   0      30.698  -3.007 -25.857  0.00  0.00    +0.145 HD
ATOM     27  H   UNK A   0      29.797  -3.539 -24.511  0.00  0.00    +0.145 HD
ENDBRANCH  18  23
BRANCH  19  28
ATOM     28  C   UNK A   0      31.697  -8.931 -21.211  0.00  0.00    +0.136 C 
BRANCH  28  30
ATOM     29  O   UNK A   0      32.615  -7.300 -19.644  0.00  0.00    -0.250 OA
ATOM     30  C   UNK A   0      32.369  -8.462 -19.939  0.00  0.00    +0.318 C 
BRANCH  30  31
ATOM     31  O   UNK A   0      32.685  -9.512 -19.134  0.00  0.00    -0.480 OA
ATOM     32  H   UNK A   0      33.541  -9.572 -18.758  0.00  0.00    +0.295 HD
ENDBRANCH  30  31
ENDBRANCH  28  30
ENDBRANCH  19  28
ENDBRANCH   3  18
TORSDOF 8
ENDMDL
MODEL 8
REMARK VINA RESULT:      -8.8      2.569      4.026
REMARK  Name = 5282242
REMARK  8 active torsions:
REMARK  status: ('A' for Active; 'I' for Inactive)
REMARK    1  A    between atoms: N_2  and  CA_9
REMARK    2  A    between atoms: C_3  and  C_18
REMARK    3  A    between atoms: CA_11  and  C_15
REMARK    4  A    between atoms: C_15  and  O_16
REMARK    5  A    between atoms: C_18  and  C_23
REMARK    6  A    between atoms: C_19  and  C_28
REMARK    7  A    between atoms: C_28  and  C_30
REMARK    8  A    between atoms: C_30  and  O_31
REMARK                            x       y       z     vdW  Elec       q    Type
REMARK                         _______ _______ _______ _____ _____    ______ ____
ROOT
ATOM      1  O   UNK A   0      35.654 -24.567 -15.750  0.00  0.00    -0.270 OA
ATOM      2  N   MET A   1      35.614 -22.368 -15.011  0.00  0.00    -0.293 N 
ATOM      3  C   UNK A   0      35.112 -23.466 -15.692  0.00  0.00    +0.248 C 
ATOM      4  H   MET A   1      35.104 -21.527 -15.024  0.00  0.00    +0.150 HD
ENDROOT
BRANCH   2   9
ATOM      5  SD  MET A   1      35.400 -24.028 -12.428  0.00  0.00    -0.114 S 
ATOM      6  O   MET A   1      38.530 -23.575 -15.872  0.00  0.00    -0.273 OA
ATOM      7  N   MET A   1      37.701 -24.225 -13.767  0.00  0.00    -0.242 N 
ATOM      8  CE  MET A   1      36.946 -23.262 -12.983  0.00  0.00    +0.155 C 
ATOM      9  CA  MET A   1      36.888 -22.417 -14.269  0.00  0.00    +0.179 C 
ATOM     10  C   MET A   1      37.894 -23.448 -14.852  0.00  0.00    +0.251 C 
ATOM     11  CA  MET A   1      37.997 -25.468 -13.325  0.00  0.00    +0.127 C 
ATOM     12  CG  MET A   1      36.240 -25.363 -11.500  0.00  0.00    +0.087 C 
ATOM     13  CB  MET A   1      37.370 -26.009 -12.267  0.00  0.00    +0.007 C 
BRANCH  11  15
ATOM     14  OXT MET A   1      40.185 -26.187 -13.913  0.00  0.00    -0.244 OA
ATOM     15  C   MET A   1      38.978 -26.284 -14.042  0.00  0.00    +0.352 C 
BRANCH  15  16
ATOM     16  O   MET A   1      38.338 -27.150 -14.857  0.00  0.00    -0.476 OA
ATOM     17  H   MET A   1      37.402 -27.208 -14.838  0.00  0.00    +0.295 HD
ENDBRANCH  15  16
ENDBRANCH  11  15
ENDBRANCH   2   9
BRANCH   3  18
ATOM     18  C   UNK A   0      33.837 -23.201 -16.439  0.00  0.00    +0.076 C 
ATOM     19  C   UNK A   0      32.688 -23.639 -15.884  0.00  0.00    -0.008 C 
BRANCH  18  23
ATOM     20  S   UNK A   0      33.466 -21.483 -19.935  0.00  0.00    -0.060 S 
ATOM     21  N   UNK A   0      35.205 -22.377 -18.244  0.00  0.00    -0.385 NA
ATOM     22  N   UNK A   0      36.111 -21.449 -20.221  0.00  0.00    -0.328 N 
ATOM     23  C   UNK A   0      33.953 -22.578 -17.729  0.00  0.00    +0.127 C 
ATOM     24  C   UNK A   0      32.886 -22.172 -18.475  0.00  0.00    +0.125 C 
ATOM     25  C   UNK A   0      35.072 -21.800 -19.417  0.00  0.00    +0.204 C 
ATOM     26  H   UNK A   0      35.937 -21.018 -21.090  0.00  0.00    +0.145 HD
ATOM     27  H   UNK A   0      37.036 -21.626 -19.936  0.00  0.00    +0.145 HD
ENDBRANCH  18  23
BRANCH  19  28
ATOM     28  C   UNK A   0      32.535 -24.293 -14.540  0.00  0.00    +0.136 C 
BRANCH  28  30
ATOM     29  O   UNK A   0      30.399 -23.133 -14.315  0.00  0.00    -0.250 OA
ATOM     30  C   UNK A   0      31.154 -24.035 -13.979  0.00  0.00    +0.318 C 
BRANCH  30  31
ATOM     31  O   UNK A   0      30.835 -24.947 -13.021  0.00  0.00    -0.480 OA
ATOM     32  H   UNK A   0      30.906 -25.864 -13.205  0.00  0.00    +0.295 HD
ENDBRANCH  30  31
ENDBRANCH  28  30
ENDBRANCH  19  28
ENDBRANCH   3  18
TORSDOF 8
ENDMDL
MODEL 9
REMARK VINA RESULT:      -8.5     11.115     14.288
REMARK  Name = 5282242
REMARK  8 active torsions:
REMARK  status: ('A' for Active; 'I' for Inactive)
REMARK    1  A    between atoms: N_2  and  CA_9
REMARK    2  A    between atoms: C_3  and  C_18
REMARK    3  A    between atoms: CA_11  and  C_15
REMARK    4  A    between atoms: C_15  and  O_16
REMARK    5  A    between atoms: C_18  and  C_23
REMARK    6  A    between atoms: C_19  and  C_28
REMARK    7  A    between atoms: C_28  and  C_30
REMARK    8  A    between atoms: C_30  and  O_31
REMARK                            x       y       z     vdW  Elec       q    Type
REMARK                         _______ _______ _______ _____ _____    ______ ____
ROOT
ATOM      1  O   UNK A   0      31.315 -11.825 -22.602  0.00  0.00    -0.270 OA
ATOM      2  N   MET A   1      33.379 -12.884 -22.546  0.00  0.00    -0.293 N 
ATOM      3  C   UNK A   0      32.535 -11.803 -22.747  0.00  0.00    +0.248 C 
ATOM      4  H   MET A   1      34.345 -12.765 -22.688  0.00  0.00    +0.150 HD
ENDROOT
BRANCH   2   9
ATOM      5  SD  MET A   1      33.456 -14.942 -24.833  0.00  0.00    -0.114 S 
ATOM      6  O   MET A   1      34.496 -14.954 -20.274  0.00  0.00    -0.273 OA
ATOM      7  N   MET A   1      34.044 -15.864 -22.398  0.00  0.00    -0.242 N 
ATOM      8  CE  MET A   1      32.913 -15.354 -23.153  0.00  0.00    +0.155 C 
ATOM      9  CA  MET A   1      32.879 -14.207 -22.127  0.00  0.00    +0.179 C 
ATOM     10  C   MET A   1      33.932 -15.035 -21.341  0.00  0.00    +0.251 C 
ATOM     11  CA  MET A   1      34.827 -16.877 -22.833  0.00  0.00    +0.127 C 
ATOM     12  CG  MET A   1      33.998 -16.648 -25.218  0.00  0.00    +0.087 C 
ATOM     13  CB  MET A   1      34.807 -17.285 -24.113  0.00  0.00    +0.007 C 
BRANCH  11  15
ATOM     14  OXT MET A   1      35.577 -17.681 -20.726  0.00  0.00    -0.244 OA
ATOM     15  C   MET A   1      35.773 -17.516 -21.917  0.00  0.00    +0.352 C 
BRANCH  15  16
ATOM     16  O   MET A   1      36.880 -17.888 -22.594  0.00  0.00    -0.476 OA
ATOM     17  H   MET A   1      36.948 -17.715 -23.513  0.00  0.00    +0.295 HD
ENDBRANCH  15  16
ENDBRANCH  11  15
ENDBRANCH   2   9
BRANCH   3  18
ATOM     18  C   UNK A   0      33.224 -10.561 -23.233  0.00  0.00    +0.076 C 
ATOM     19  C   UNK A   0      32.995  -9.416 -22.557  0.00  0.00    -0.008 C 
BRANCH  18  23
ATOM     20  S   UNK A   0      35.705 -10.336 -26.250  0.00  0.00    -0.060 S 
ATOM     21  N   UNK A   0      33.688 -11.662 -25.326  0.00  0.00    -0.385 NA
ATOM     22  N   UNK A   0      34.508 -12.407 -27.415  0.00  0.00    -0.328 N 
ATOM     23  C   UNK A   0      34.007 -10.676 -24.433  0.00  0.00    +0.127 C 
ATOM     24  C   UNK A   0      35.054  -9.856 -24.739  0.00  0.00    +0.125 C 
ATOM     25  C   UNK A   0      34.526 -11.580 -26.336  0.00  0.00    +0.204 C 
ATOM     26  H   UNK A   0      35.167 -12.288 -28.137  0.00  0.00    +0.145 HD
ATOM     27  H   UNK A   0      33.836 -13.123 -27.476  0.00  0.00    +0.145 HD
ENDBRANCH  18  23
BRANCH  19  28
ATOM     28  C   UNK A   0      32.182  -9.265 -21.302  0.00  0.00    +0.136 C 
BRANCH  28  30
ATOM     29  O   UNK A   0      31.759  -6.862 -21.291  0.00  0.00    -0.250 OA
ATOM     30  C   UNK A   0      32.271  -7.848 -20.780  0.00  0.00    +0.318 C 
BRANCH  30  31
ATOM     31  O   UNK A   0      33.016  -7.789 -19.643  0.00  0.00    -0.480 OA
ATOM     32  H   UNK A   0      32.786  -7.187 -18.963  0.00  0.00    +0.295 HD
ENDBRANCH  30  31
ENDBRANCH  28  30
ENDBRANCH  19  28
ENDBRANCH   3  18
TORSDOF 8
ENDMDL
