MODEL 1
REMARK VINA RESULT:      -8.8      0.000      0.000
REMARK  Name = 129228
REMARK  3 active torsions:
REMARK  status: ('A' for Active; 'I' for Inactive)
REMARK    1  A    between atoms: N_1  and  C_11
REMARK    2  A    between atoms: C_5  and  C_8
REMARK    3  A    between atoms: C_11  and  C_14
REMARK                            x       y       z     vdW  Elec       q    Type
REMARK                         _______ _______ _______ _____ _____    ______ ____
ROOT
ATOM      1  N   UNL     1      34.798 -19.540 -20.840  0.00  0.00    -0.158 NA
ATOM      2  N   UNL     1      33.501 -19.263 -20.938  0.00  0.00    -0.062 NA
ATOM      3  N   UNL     1      32.861 -20.266 -20.346  0.00  0.00    -0.145 NA
ATOM      4  C   UNL     1      35.053 -20.696 -20.202  0.00  0.00    +0.148 C 
ATOM      5  C   UNL     1      33.797 -21.151 -19.889  0.00  0.00    +0.150 C 
ENDROOT
BRANCH   5   8
ATOM      6  O   UNL     1      34.049 -23.447 -19.428  0.00  0.00    -0.269 OA
ATOM      7  N   UNL     1      32.469 -22.315 -18.211  0.00  0.00    -0.324 N 
ATOM      8  C   UNL     1      33.467 -22.357 -19.197  0.00  0.00    +0.259 C 
ATOM      9  H   UNL     1      32.226 -23.134 -17.721  0.00  0.00    +0.145 HD
ATOM     10  H   UNL     1      32.013 -21.466 -18.008  0.00  0.00    +0.145 HD
ENDBRANCH   5   8
BRANCH   1  11
ATOM     11  C   UNL     1      35.783 -18.612 -21.406  0.00  0.00    +0.127 C 
BRANCH  11  14
ATOM     12  F   UNL     1      35.321 -19.844 -23.904  0.00  0.00    -0.204 F 
ATOM     13  F   UNL     1      35.132 -15.866 -21.318  0.00  0.00    -0.204 F 
ATOM     14  C   UNL     1      35.239 -17.873 -22.582  0.00  0.00    +0.051 C 
ATOM     15  C   UNL     1      35.033 -18.539 -23.790  0.00  0.00    +0.140 C 
ATOM     16  C   UNL     1      34.937 -16.515 -22.474  0.00  0.00    +0.140 C 
ATOM     17  C   UNL     1      34.524 -17.849 -24.890  0.00  0.00    +0.030 C 
ATOM     18  C   UNL     1      34.428 -15.825 -23.573  0.00  0.00    +0.030 C 
ATOM     19  C   UNL     1      34.221 -16.491 -24.782  0.00  0.00    +0.005 C 
ENDBRANCH  11  14
ENDBRANCH   1  11
TORSDOF 3
ENDMDL
MODEL 2
REMARK VINA RESULT:      -8.8      0.032      2.007
REMARK  Name = 129228
REMARK  3 active torsions:
REMARK  status: ('A' for Active; 'I' for Inactive)
REMARK    1  A    between atoms: N_1  and  C_11
REMARK    2  A    between atoms: C_5  and  C_8
REMARK    3  A    between atoms: C_11  and  C_14
REMARK                            x       y       z     vdW  Elec       q    Type
REMARK                         _______ _______ _______ _____ _____    ______ ____
ROOT
ATOM      1  N   UNL     1      34.778 -19.529 -20.832  0.00  0.00    -0.158 NA
ATOM      2  N   UNL     1      33.480 -19.251 -20.918  0.00  0.00    -0.062 NA
ATOM      3  N   UNL     1      32.843 -20.256 -20.328  0.00  0.00    -0.145 NA
ATOM      4  C   UNL     1      35.037 -20.690 -20.204  0.00  0.00    +0.148 C 
ATOM      5  C   UNL     1      33.782 -21.146 -19.884  0.00  0.00    +0.150 C 
ENDROOT
BRANCH   5   8
ATOM      6  O   UNL     1      34.048 -23.441 -19.427  0.00  0.00    -0.269 OA
ATOM      7  N   UNL     1      32.450 -22.324 -18.219  0.00  0.00    -0.324 N 
ATOM      8  C   UNL     1      33.456 -22.355 -19.198  0.00  0.00    +0.259 C 
ATOM      9  H   UNL     1      32.210 -23.146 -17.733  0.00  0.00    +0.145 HD
ATOM     10  H   UNL     1      31.987 -21.479 -18.018  0.00  0.00    +0.145 HD
ENDBRANCH   5   8
BRANCH   1  11
ATOM     11  C   UNL     1      35.760 -18.599 -21.400  0.00  0.00    +0.127 C 
BRANCH  11  14
ATOM     12  F   UNL     1      35.119 -15.849 -21.358  0.00  0.00    -0.204 F 
ATOM     13  F   UNL     1      35.293 -19.871 -23.877  0.00  0.00    -0.204 F 
ATOM     14  C   UNL     1      35.220 -17.877 -22.588  0.00  0.00    +0.051 C 
ATOM     15  C   UNL     1      34.922 -16.517 -22.503  0.00  0.00    +0.140 C 
ATOM     16  C   UNL     1      35.011 -18.564 -23.785  0.00  0.00    +0.140 C 
ATOM     17  C   UNL     1      34.418 -15.843 -23.615  0.00  0.00    +0.030 C 
ATOM     18  C   UNL     1      34.507 -17.889 -24.897  0.00  0.00    +0.030 C 
ATOM     19  C   UNL     1      34.209 -16.528 -24.812  0.00  0.00    +0.005 C 
ENDBRANCH  11  14
ENDBRANCH   1  11
TORSDOF 3
ENDMDL
MODEL 3
REMARK VINA RESULT:      -8.6      3.584      5.924
REMARK  Name = 129228
REMARK  3 active torsions:
REMARK  status: ('A' for Active; 'I' for Inactive)
REMARK    1  A    between atoms: N_1  and  C_11
REMARK    2  A    between atoms: C_5  and  C_8
REMARK    3  A    between atoms: C_11  and  C_14
REMARK                            x       y       z     vdW  Elec       q    Type
REMARK                         _______ _______ _______ _____ _____    ______ ____
ROOT
ATOM      1  N   UNL     1      35.023 -17.585 -21.712  0.00  0.00    -0.158 NA
ATOM      2  N   UNL     1      35.356 -17.122 -20.510  0.00  0.00    -0.062 NA
ATOM      3  N   UNL     1      34.920 -15.867 -20.461  0.00  0.00    -0.145 NA
ATOM      4  C   UNL     1      34.379 -16.684 -22.474  0.00  0.00    +0.148 C 
ATOM      5  C   UNL     1      34.319 -15.584 -21.657  0.00  0.00    +0.150 C 
ENDROOT
BRANCH   5   8
ATOM      6  O   UNL     1      32.802 -13.824 -21.274  0.00  0.00    -0.269 OA
ATOM      7  N   UNL     1      34.230 -13.590 -23.054  0.00  0.00    -0.324 N 
ATOM      8  C   UNL     1      33.734 -14.317 -21.960  0.00  0.00    +0.259 C 
ATOM      9  H   UNL     1      33.841 -12.715 -23.281  0.00  0.00    +0.145 HD
ATOM     10  H   UNL     1      34.968 -13.956 -23.593  0.00  0.00    +0.145 HD
ENDBRANCH   5   8
BRANCH   1  11
ATOM     11  C   UNL     1      35.369 -18.962 -22.081  0.00  0.00    +0.127 C 
BRANCH  11  14
ATOM     12  F   UNL     1      37.335 -20.232 -20.502  0.00  0.00    -0.204 F 
ATOM     13  F   UNL     1      32.714 -19.674 -21.438  0.00  0.00    -0.204 F 
ATOM     14  C   UNL     1      35.033 -19.929 -20.996  0.00  0.00    +0.051 C 
ATOM     15  C   UNL     1      36.051 -20.524 -20.251  0.00  0.00    +0.140 C 
ATOM     16  C   UNL     1      33.699 -20.240 -20.728  0.00  0.00    +0.140 C 
ATOM     17  C   UNL     1      35.737 -21.428 -19.236  0.00  0.00    +0.030 C 
ATOM     18  C   UNL     1      33.385 -21.144 -19.713  0.00  0.00    +0.030 C 
ATOM     19  C   UNL     1      34.404 -21.739 -18.967  0.00  0.00    +0.005 C 
ENDBRANCH  11  14
ENDBRANCH   1  11
TORSDOF 3
ENDMDL
MODEL 4
REMARK VINA RESULT:      -8.6      3.591      5.934
REMARK  Name = 129228
REMARK  3 active torsions:
REMARK  status: ('A' for Active; 'I' for Inactive)
REMARK    1  A    between atoms: N_1  and  C_11
REMARK    2  A    between atoms: C_5  and  C_8
REMARK    3  A    between atoms: C_11  and  C_14
REMARK                            x       y       z     vdW  Elec       q    Type
REMARK                         _______ _______ _______ _____ _____    ______ ____
ROOT
ATOM      1  N   UNL     1      34.952 -17.647 -21.710  0.00  0.00    -0.158 NA
ATOM      2  N   UNL     1      35.341 -17.204 -20.518  0.00  0.00    -0.062 NA
ATOM      3  N   UNL     1      34.949 -15.937 -20.445  0.00  0.00    -0.145 NA
ATOM      4  C   UNL     1      34.313 -16.719 -22.444  0.00  0.00    +0.148 C 
ATOM      5  C   UNL     1      34.318 -15.624 -21.617  0.00  0.00    +0.150 C 
ENDROOT
BRANCH   5   8
ATOM      6  O   UNL     1      32.869 -13.820 -21.174  0.00  0.00    -0.269 OA
ATOM      7  N   UNL     1      34.253 -13.613 -22.992  0.00  0.00    -0.324 N 
ATOM      8  C   UNL     1      33.765 -14.336 -21.891  0.00  0.00    +0.259 C 
ATOM      9  H   UNL     1      33.886 -12.723 -23.198  0.00  0.00    +0.145 HD
ATOM     10  H   UNL     1      34.963 -13.997 -23.555  0.00  0.00    +0.145 HD
ENDBRANCH   5   8
BRANCH   1  11
ATOM     11  C   UNL     1      35.239 -19.031 -22.101  0.00  0.00    +0.127 C 
BRANCH  11  14
ATOM     12  F   UNL     1      32.655 -19.891 -21.355  0.00  0.00    -0.204 F 
ATOM     13  F   UNL     1      37.329 -20.128 -20.550  0.00  0.00    -0.204 F 
ATOM     14  C   UNL     1      34.997 -19.986 -20.981  0.00  0.00    +0.051 C 
ATOM     15  C   UNL     1      33.696 -20.372 -20.661  0.00  0.00    +0.140 C 
ATOM     16  C   UNL     1      36.074 -20.493 -20.252  0.00  0.00    +0.140 C 
ATOM     17  C   UNL     1      33.470 -21.266 -19.614  0.00  0.00    +0.030 C 
ATOM     18  C   UNL     1      35.848 -21.386 -19.204  0.00  0.00    +0.030 C 
ATOM     19  C   UNL     1      34.546 -21.773 -18.885  0.00  0.00    +0.005 C 
ENDBRANCH  11  14
ENDBRANCH   1  11
TORSDOF 3
ENDMDL
MODEL 5
REMARK VINA RESULT:      -8.5      3.478      5.936
REMARK  Name = 129228
REMARK  3 active torsions:
REMARK  status: ('A' for Active; 'I' for Inactive)
REMARK    1  A    between atoms: N_1  and  C_11
REMARK    2  A    between atoms: C_5  and  C_8
REMARK    3  A    between atoms: C_11  and  C_14
REMARK                            x       y       z     vdW  Elec       q    Type
REMARK                         _______ _______ _______ _____ _____    ______ ____
ROOT
ATOM      1  N   UNL     1      35.410 -18.249 -22.555  0.00  0.00    -0.158 NA
ATOM      2  N   UNL     1      35.200 -19.110 -23.547  0.00  0.00    -0.062 NA
ATOM      3  N   UNL     1      34.674 -18.408 -24.545  0.00  0.00    -0.145 NA
ATOM      4  C   UNL     1      35.043 -16.990 -22.852  0.00  0.00    +0.148 C 
ATOM      5  C   UNL     1      34.572 -17.107 -24.136  0.00  0.00    +0.150 C 
ENDROOT
BRANCH   5   8
ATOM      6  O   UNL     1      34.024 -16.142 -26.213  0.00  0.00    -0.269 OA
ATOM      7  N   UNL     1      33.518 -14.920 -24.339  0.00  0.00    -0.324 N 
ATOM      8  C   UNL     1      34.046 -16.064 -24.958  0.00  0.00    +0.259 C 
ATOM      9  H   UNL     1      33.150 -14.189 -24.887  0.00  0.00    +0.145 HD
ATOM     10  H   UNL     1      33.515 -14.849 -23.357  0.00  0.00    +0.145 HD
ENDBRANCH   5   8
BRANCH   1  11
ATOM     11  C   UNL     1      35.991 -18.721 -21.294  0.00  0.00    +0.127 C 
BRANCH  11  14
ATOM     12  F   UNL     1      33.191 -18.528 -20.985  0.00  0.00    -0.204 F 
ATOM     13  F   UNL     1      37.110 -21.129 -20.333  0.00  0.00    -0.204 F 
ATOM     14  C   UNL     1      35.170 -19.802 -20.675  0.00  0.00    +0.051 C 
ATOM     15  C   UNL     1      33.790 -19.646 -20.551  0.00  0.00    +0.140 C 
ATOM     16  C   UNL     1      35.784 -20.969 -20.219  0.00  0.00    +0.140 C 
ATOM     17  C   UNL     1      33.022 -20.656 -19.972  0.00  0.00    +0.030 C 
ATOM     18  C   UNL     1      35.016 -21.980 -19.641  0.00  0.00    +0.030 C 
ATOM     19  C   UNL     1      33.635 -21.824 -19.517  0.00  0.00    +0.005 C 
ENDBRANCH  11  14
ENDBRANCH   1  11
TORSDOF 3
ENDMDL
MODEL 6
REMARK VINA RESULT:      -8.5      3.467      5.792
REMARK  Name = 129228
REMARK  3 active torsions:
REMARK  status: ('A' for Active; 'I' for Inactive)
REMARK    1  A    between atoms: N_1  and  C_11
REMARK    2  A    between atoms: C_5  and  C_8
REMARK    3  A    between atoms: C_11  and  C_14
REMARK                            x       y       z     vdW  Elec       q    Type
REMARK                         _______ _______ _______ _____ _____    ______ ____
ROOT
ATOM      1  N   UNL     1      35.371 -18.267 -22.528  0.00  0.00    -0.158 NA
ATOM      2  N   UNL     1      35.150 -19.132 -23.514  0.00  0.00    -0.062 NA
ATOM      3  N   UNL     1      34.638 -18.430 -24.519  0.00  0.00    -0.145 NA
ATOM      4  C   UNL     1      35.024 -17.005 -22.836  0.00  0.00    +0.148 C 
ATOM      5  C   UNL     1      34.555 -17.124 -24.120  0.00  0.00    +0.150 C 
ENDROOT
BRANCH   5   8
ATOM      6  O   UNL     1      34.042 -16.160 -26.206  0.00  0.00    -0.269 OA
ATOM      7  N   UNL     1      33.521 -14.930 -24.342  0.00  0.00    -0.324 N 
ATOM      8  C   UNL     1      34.048 -16.079 -24.951  0.00  0.00    +0.259 C 
ATOM      9  H   UNL     1      33.166 -14.198 -24.897  0.00  0.00    +0.145 HD
ATOM     10  H   UNL     1      33.506 -14.857 -23.360  0.00  0.00    +0.145 HD
ENDBRANCH   5   8
BRANCH   1  11
ATOM     11  C   UNL     1      35.940 -18.739 -21.262  0.00  0.00    +0.127 C 
BRANCH  11  14
ATOM     12  F   UNL     1      37.054 -21.155 -20.318  0.00  0.00    -0.204 F 
ATOM     13  F   UNL     1      33.140 -18.545 -20.958  0.00  0.00    -0.204 F 
ATOM     14  C   UNL     1      35.117 -19.824 -20.652  0.00  0.00    +0.051 C 
ATOM     15  C   UNL     1      35.728 -20.995 -20.205  0.00  0.00    +0.140 C 
ATOM     16  C   UNL     1      33.736 -19.666 -20.530  0.00  0.00    +0.140 C 
ATOM     17  C   UNL     1      34.959 -22.009 -19.634  0.00  0.00    +0.030 C 
ATOM     18  C   UNL     1      32.967 -20.680 -19.960  0.00  0.00    +0.030 C 
ATOM     19  C   UNL     1      33.578 -21.852 -19.512  0.00  0.00    +0.005 C 
ENDBRANCH  11  14
ENDBRANCH   1  11
TORSDOF 3
ENDMDL
MODEL 7
REMARK VINA RESULT:      -8.4      1.674      2.060
REMARK  Name = 129228
REMARK  3 active torsions:
REMARK  status: ('A' for Active; 'I' for Inactive)
REMARK    1  A    between atoms: N_1  and  C_11
REMARK    2  A    between atoms: C_5  and  C_8
REMARK    3  A    between atoms: C_11  and  C_14
REMARK                            x       y       z     vdW  Elec       q    Type
REMARK                         _______ _______ _______ _____ _____    ______ ____
ROOT
ATOM      1  N   UNL     1      35.646 -19.063 -21.548  0.00  0.00    -0.158 NA
ATOM      2  N   UNL     1      36.482 -19.452 -20.590  0.00  0.00    -0.062 NA
ATOM      3  N   UNL     1      35.801 -20.291 -19.817  0.00  0.00    -0.145 NA
ATOM      4  C   UNL     1      34.423 -19.612 -21.446  0.00  0.00    +0.148 C 
ATOM      5  C   UNL     1      34.537 -20.400 -20.329  0.00  0.00    +0.150 C 
ENDROOT
BRANCH   5   8
ATOM      6  O   UNL     1      32.398 -20.772 -19.416  0.00  0.00    -0.269 OA
ATOM      7  N   UNL     1      33.790 -22.589 -19.563  0.00  0.00    -0.324 N 
ATOM      8  C   UNL     1      33.524 -21.223 -19.749  0.00  0.00    +0.259 C 
ATOM      9  H   UNL     1      33.106 -23.175 -19.166  0.00  0.00    +0.145 HD
ATOM     10  H   UNL     1      34.662 -22.961 -19.831  0.00  0.00    +0.145 HD
ENDBRANCH   5   8
BRANCH   1  11
ATOM     11  C   UNL     1      36.104 -18.122 -22.575  0.00  0.00    +0.127 C 
BRANCH  11  14
ATOM     12  F   UNL     1      35.061 -17.330 -25.077  0.00  0.00    -0.204 F 
ATOM     13  F   UNL     1      35.228 -16.556 -20.394  0.00  0.00    -0.204 F 
ATOM     14  C   UNL     1      35.167 -16.972 -22.732  0.00  0.00    +0.051 C 
ATOM     15  C   UNL     1      34.687 -16.631 -23.996  0.00  0.00    +0.140 C 
ATOM     16  C   UNL     1      34.772 -16.237 -21.614  0.00  0.00    +0.140 C 
ATOM     17  C   UNL     1      33.810 -15.556 -24.143  0.00  0.00    +0.030 C 
ATOM     18  C   UNL     1      33.895 -15.162 -21.760  0.00  0.00    +0.030 C 
ATOM     19  C   UNL     1      33.414 -14.821 -23.025  0.00  0.00    +0.005 C 
ENDBRANCH  11  14
ENDBRANCH   1  11
TORSDOF 3
ENDMDL
MODEL 8
REMARK VINA RESULT:      -8.4      1.666      2.637
REMARK  Name = 129228
REMARK  3 active torsions:
REMARK  status: ('A' for Active; 'I' for Inactive)
REMARK    1  A    between atoms: N_1  and  C_11
REMARK    2  A    between atoms: C_5  and  C_8
REMARK    3  A    between atoms: C_11  and  C_14
REMARK                            x       y       z     vdW  Elec       q    Type
REMARK                         _______ _______ _______ _____ _____    ______ ____
ROOT
ATOM      1  N   UNL     1      35.592 -19.040 -21.603  0.00  0.00    -0.158 NA
ATOM      2  N   UNL     1      36.414 -19.439 -20.637  0.00  0.00    -0.062 NA
ATOM      3  N   UNL     1      35.705 -20.243 -19.852  0.00  0.00    -0.145 NA
ATOM      4  C   UNL     1      34.351 -19.546 -21.494  0.00  0.00    +0.148 C 
ATOM      5  C   UNL     1      34.439 -20.319 -20.363  0.00  0.00    +0.150 C 
ENDROOT
BRANCH   5   8
ATOM      6  O   UNL     1      32.288 -20.606 -19.448  0.00  0.00    -0.269 OA
ATOM      7  N   UNL     1      33.620 -22.469 -19.561  0.00  0.00    -0.324 N 
ATOM      8  C   UNL     1      33.399 -21.099 -19.771  0.00  0.00    +0.259 C 
ATOM      9  H   UNL     1      32.917 -23.025 -19.155  0.00  0.00    +0.145 HD
ATOM     10  H   UNL     1      34.480 -22.873 -19.821  0.00  0.00    +0.145 HD
ENDBRANCH   5   8
BRANCH   1  11
ATOM     11  C   UNL     1      36.081 -18.131 -22.645  0.00  0.00    +0.127 C 
BRANCH  11  14
ATOM     12  F   UNL     1      35.229 -16.468 -20.528  0.00  0.00    -0.204 F 
ATOM     13  F   UNL     1      35.054 -17.419 -25.177  0.00  0.00    -0.204 F 
ATOM     14  C   UNL     1      35.164 -16.972 -22.847  0.00  0.00    +0.051 C 
ATOM     15  C   UNL     1      34.779 -16.188 -21.759  0.00  0.00    +0.140 C 
ATOM     16  C   UNL     1      34.691 -16.672 -24.125  0.00  0.00    +0.140 C 
ATOM     17  C   UNL     1      33.922 -15.104 -21.948  0.00  0.00    +0.030 C 
ATOM     18  C   UNL     1      33.833 -15.588 -24.314  0.00  0.00    +0.030 C 
ATOM     19  C   UNL     1      33.448 -14.804 -23.226  0.00  0.00    +0.005 C 
ENDBRANCH  11  14
ENDBRANCH   1  11
TORSDOF 3
ENDMDL
MODEL 9
REMARK VINA RESULT:      -8.4      6.297      8.137
REMARK  Name = 129228
REMARK  3 active torsions:
REMARK  status: ('A' for Active; 'I' for Inactive)
REMARK    1  A    between atoms: N_1  and  C_11
REMARK    2  A    between atoms: C_5  and  C_8
REMARK    3  A    between atoms: C_11  and  C_14
REMARK                            x       y       z     vdW  Elec       q    Type
REMARK                         _______ _______ _______ _____ _____    ______ ____
ROOT
ATOM      1  N   UNL     1      36.697 -24.212 -15.257  0.00  0.00    -0.158 NA
ATOM      2  N   UNL     1      36.291 -25.451 -15.519  0.00  0.00    -0.062 NA
ATOM      3  N   UNL     1      37.366 -26.225 -15.421  0.00  0.00    -0.145 NA
ATOM      4  C   UNL     1      38.011 -24.125 -14.986  0.00  0.00    +0.148 C 
ATOM      5  C   UNL     1      38.429 -25.428 -15.094  0.00  0.00    +0.150 C 
ENDROOT
BRANCH   5   8
ATOM      6  O   UNL     1      40.581 -26.014 -15.851  0.00  0.00    -0.269 OA
ATOM      7  N   UNL     1      40.154 -26.310 -13.617  0.00  0.00    -0.324 N 
ATOM      8  C   UNL     1      39.755 -25.925 -14.907  0.00  0.00    +0.259 C 
ATOM      9  H   UNL     1      41.064 -26.654 -13.466  0.00  0.00    +0.145 HD
ATOM     10  H   UNL     1      39.524 -26.233 -12.864  0.00  0.00    +0.145 HD
ENDBRANCH   5   8
BRANCH   1  11
ATOM     11  C   UNL     1      35.731 -23.109 -15.285  0.00  0.00    +0.127 C 
BRANCH  11  14
ATOM     12  F   UNL     1      37.488 -21.678 -16.969  0.00  0.00    -0.204 F 
ATOM     13  F   UNL     1      33.241 -23.741 -16.458  0.00  0.00    -0.204 F 
ATOM     14  C   UNL     1      35.374 -22.719 -16.680  0.00  0.00    +0.051 C 
ATOM     15  C   UNL     1      36.286 -22.012 -17.462  0.00  0.00    +0.140 C 
ATOM     16  C   UNL     1      34.126 -23.062 -17.202  0.00  0.00    +0.140 C 
ATOM     17  C   UNL     1      35.953 -21.648 -18.767  0.00  0.00    +0.030 C 
ATOM     18  C   UNL     1      33.792 -22.698 -18.507  0.00  0.00    +0.030 C 
ATOM     19  C   UNL     1      34.705 -21.990 -19.289  0.00  0.00    +0.005 C 
ENDBRANCH  11  14
ENDBRANCH   1  11
TORSDOF 3
ENDMDL
