MODEL 1
REMARK VINA RESULT:     -10.0      0.000      0.000
REMARK  Name = 24798097
REMARK  8 active torsions:
REMARK  status: ('A' for Active; 'I' for Inactive)
REMARK    1  A    between atoms: C_2  and  C_24
REMARK    2  A    between atoms: C_3  and  N_8
REMARK    3  A    between atoms: N_8  and  C_11
REMARK    4  A    between atoms: C_11  and  C_12
REMARK    5  A    between atoms: C_12  and  N_13
REMARK    6  A    between atoms: N_13  and  C_16
REMARK    7  A    between atoms: C_16  and  C_18
REMARK    8  A    between atoms: C_24  and  C_26
REMARK                            x       y       z     vdW  Elec       q    Type
REMARK                         _______ _______ _______ _____ _____    ______ ____
ROOT
ATOM      1  N   UNL     1      33.766 -15.340 -25.857  0.00  0.00    +0.382 N 
ATOM      2  C   UNL     1      33.049 -13.585 -24.417  0.00  0.00    -0.036 C 
ATOM      3  C   UNL     1      33.682 -14.682 -23.558  0.00  0.00    -0.085 C 
ATOM      4  C   UNL     1      32.659 -14.398 -25.649  0.00  0.00    -0.083 C 
ATOM      5  C   UNL     1      34.441 -15.538 -24.568  0.00  0.00    -0.104 C 
ATOM      6  H   UNL     1      34.422 -14.957 -26.538  0.00  0.00    -0.085 HD
ATOM      7  H   UNL     1      33.414 -16.228 -26.215  0.00  0.00    -0.085 HD
ENDROOT
BRANCH   3   8
ATOM      8  N   UNL     1      34.510 -14.219 -22.459  0.00  0.00    +0.382 N 
ATOM      9  H   UNL     1      34.564 -13.202 -22.489  0.00  0.00    -0.085 HD
ATOM     10  H   UNL     1      35.439 -14.630 -22.558  0.00  0.00    -0.085 HD
BRANCH   8  11
ATOM     11  C   UNL     1      33.955 -14.630 -21.176  0.00  0.00    -0.106 C 
BRANCH  11  12
ATOM     12  C   UNL     1      33.648 -16.125 -21.191  0.00  0.00    -0.105 C 
BRANCH  12  13
ATOM     13  N   UNL     1      34.879 -16.893 -21.039  0.00  0.00    +0.385 N 
ATOM     14  H   UNL     1      34.994 -17.149 -20.058  0.00  0.00    -0.084 HD
ATOM     15  H   UNL     1      35.662 -16.319 -21.351  0.00  0.00    -0.084 HD
BRANCH  13  16
ATOM     16  C   UNL     1      34.838 -18.103 -21.847  0.00  0.00    -0.054 C 
BRANCH  16  18
ATOM     17 CL   UNL     1      33.718 -22.983 -18.510  0.00  0.00    -0.082 Cl
ATOM     18  C   UNL     1      34.557 -19.325 -21.012  0.00  0.00    -0.044 C 
ATOM     19  C   UNL     1      35.614 -20.100 -20.532  0.00  0.00    -0.005 C 
ATOM     20  C   UNL     1      33.242 -19.682 -20.717  0.00  0.00    -0.005 C 
ATOM     21  C   UNL     1      35.355 -21.230 -19.758  0.00  0.00    +0.011 C 
ATOM     22  C   UNL     1      32.982 -20.812 -19.943  0.00  0.00    +0.011 C 
ATOM     23  C   UNL     1      34.039 -21.586 -19.464  0.00  0.00    +0.058 C 
ENDBRANCH  16  18
ENDBRANCH  13  16
ENDBRANCH  12  13
ENDBRANCH  11  12
ENDBRANCH   8  11
ENDBRANCH   3   8
BRANCH   2  24
ATOM     24  C   UNL     1      33.997 -12.435 -24.775  0.00  0.00    +0.051 C 
BRANCH  24  26
ATOM     25  N   UNL     1      32.664 -11.280 -23.102  0.00  0.00    -0.396 NA
ATOM     26  C   UNL     1      33.650 -11.182 -24.022  0.00  0.00    +0.092 C 
ATOM     27  C   UNL     1      34.340 -10.013 -24.299  0.00  0.00    +0.077 C 
ATOM     28  C   UNL     1      33.996  -8.870 -23.584  0.00  0.00    -0.033 C 
ATOM     29  C   UNL     1      32.358 -10.150 -22.427  0.00  0.00    +0.176 C 
ATOM     30  C   UNL     1      32.987  -8.931 -22.629  0.00  0.00    +0.039 C 
ATOM     31  C   UNL     1      34.706  -7.586 -23.840  0.00  0.00    +0.027 C 
ATOM     32  N   UNL     1      31.331 -10.196 -21.452  0.00  0.00    -0.333 N 
ATOM     33  H   UNL     1      30.858 -11.041 -21.276  0.00  0.00    +0.145 HD
ATOM     34  H   UNL     1      31.092  -9.385 -20.949  0.00  0.00    +0.145 HD
ENDBRANCH  24  26
ENDBRANCH   2  24
TORSDOF 8
ENDMDL
MODEL 2
REMARK VINA RESULT:      -9.9      6.987     12.344
REMARK  Name = 24798097
REMARK  8 active torsions:
REMARK  status: ('A' for Active; 'I' for Inactive)
REMARK    1  A    between atoms: C_2  and  C_24
REMARK    2  A    between atoms: C_3  and  N_8
REMARK    3  A    between atoms: N_8  and  C_11
REMARK    4  A    between atoms: C_11  and  C_12
REMARK    5  A    between atoms: C_12  and  N_13
REMARK    6  A    between atoms: N_13  and  C_16
REMARK    7  A    between atoms: C_16  and  C_18
REMARK    8  A    between atoms: C_24  and  C_26
REMARK                            x       y       z     vdW  Elec       q    Type
REMARK                         _______ _______ _______ _____ _____    ______ ____
ROOT
ATOM      1  N   UNL     1      37.882 -25.859 -13.213  0.00  0.00    +0.382 N 
ATOM      2  C   UNL     1      36.332 -24.247 -14.029  0.00  0.00    -0.036 C 
ATOM      3  C   UNL     1      37.725 -23.875 -14.541  0.00  0.00    -0.085 C 
ATOM      4  C   UNL     1      36.709 -25.078 -12.804  0.00  0.00    -0.083 C 
ATOM      5  C   UNL     1      38.545 -25.142 -14.310  0.00  0.00    -0.104 C 
ATOM      6  H   UNL     1      37.590 -26.784 -13.530  0.00  0.00    -0.085 HD
ATOM      7  H   UNL     1      38.522 -25.976 -12.427  0.00  0.00    -0.085 HD
ENDROOT
BRANCH   3   8
ATOM      8  N   UNL     1      37.782 -23.395 -15.911  0.00  0.00    +0.382 N 
ATOM      9  H   UNL     1      37.273 -24.043 -16.511  0.00  0.00    -0.085 HD
ATOM     10  H   UNL     1      38.760 -23.338 -16.194  0.00  0.00    -0.085 HD
BRANCH   8  11
ATOM     11  C   UNL     1      37.187 -22.070 -16.027  0.00  0.00    -0.106 C 
BRANCH  11  12
ATOM     12  C   UNL     1      37.151 -21.636 -17.489  0.00  0.00    -0.105 C 
BRANCH  12  13
ATOM     13  N   UNL     1      35.794 -21.748 -18.013  0.00  0.00    +0.385 N 
ATOM     14  H   UNL     1      35.272 -20.906 -17.772  0.00  0.00    -0.084 HD
ATOM     15  H   UNL     1      35.352 -22.571 -17.602  0.00  0.00    -0.084 HD
BRANCH  13  16
ATOM     16  C   UNL     1      35.809 -21.903 -19.461  0.00  0.00    -0.054 C 
BRANCH  16  18
ATOM     17 CL   UNL     1      34.321 -16.799 -22.277  0.00  0.00    -0.082 Cl
ATOM     18  C   UNL     1      35.436 -20.625 -20.165  0.00  0.00    -0.044 C 
ATOM     19  C   UNL     1      36.433 -19.738 -20.575  0.00  0.00    -0.005 C 
ATOM     20  C   UNL     1      34.096 -20.328 -20.409  0.00  0.00    -0.005 C 
ATOM     21  C   UNL     1      36.088 -18.556 -21.228  0.00  0.00    +0.011 C 
ATOM     22  C   UNL     1      33.751 -19.145 -21.063  0.00  0.00    +0.011 C 
ATOM     23  C   UNL     1      34.747 -18.259 -21.472  0.00  0.00    +0.058 C 
ENDBRANCH  16  18
ENDBRANCH  13  16
ENDBRANCH  12  13
ENDBRANCH  11  12
ENDBRANCH   8  11
ENDBRANCH   3   8
BRANCH   2  24
ATOM     24  C   UNL     1      35.486 -25.052 -15.021  0.00  0.00    +0.051 C 
BRANCH  24  26
ATOM     25  N   UNL     1      33.999 -23.866 -16.534  0.00  0.00    -0.396 NA
ATOM     26  C   UNL     1      34.172 -24.379 -15.295  0.00  0.00    +0.092 C 
ATOM     27  C   UNL     1      33.219 -24.317 -14.291  0.00  0.00    +0.077 C 
ATOM     28  C   UNL     1      32.012 -23.688 -14.578  0.00  0.00    -0.033 C 
ATOM     29  C   UNL     1      32.814 -23.263 -16.776  0.00  0.00    +0.176 C 
ATOM     30  C   UNL     1      31.797 -23.148 -15.841  0.00  0.00    +0.039 C 
ATOM     31  C   UNL     1      30.951 -23.594 -13.534  0.00  0.00    +0.027 C 
ATOM     32  N   UNL     1      32.581 -22.707 -18.058  0.00  0.00    -0.333 N 
ATOM     33  H   UNL     1      33.276 -22.766 -18.753  0.00  0.00    +0.145 HD
ATOM     34  H   UNL     1      31.725 -22.264 -18.255  0.00  0.00    +0.145 HD
ENDBRANCH  24  26
ENDBRANCH   2  24
TORSDOF 8
ENDMDL
MODEL 3
REMARK VINA RESULT:      -9.8      7.214     12.682
REMARK  Name = 24798097
REMARK  8 active torsions:
REMARK  status: ('A' for Active; 'I' for Inactive)
REMARK    1  A    between atoms: C_2  and  C_24
REMARK    2  A    between atoms: C_3  and  N_8
REMARK    3  A    between atoms: N_8  and  C_11
REMARK    4  A    between atoms: C_11  and  C_12
REMARK    5  A    between atoms: C_12  and  N_13
REMARK    6  A    between atoms: N_13  and  C_16
REMARK    7  A    between atoms: C_16  and  C_18
REMARK    8  A    between atoms: C_24  and  C_26
REMARK                            x       y       z     vdW  Elec       q    Type
REMARK                         _______ _______ _______ _____ _____    ______ ____
ROOT
ATOM      1  N   UNL     1      37.535 -24.401 -11.745  0.00  0.00    +0.382 N 
ATOM      2  C   UNL     1      35.953 -23.513 -13.287  0.00  0.00    -0.036 C 
ATOM      3  C   UNL     1      37.347 -23.395 -13.908  0.00  0.00    -0.085 C 
ATOM      4  C   UNL     1      36.323 -23.575 -11.806  0.00  0.00    -0.083 C 
ATOM      5  C   UNL     1      38.204 -24.322 -13.050  0.00  0.00    -0.104 C 
ATOM      6  H   UNL     1      37.285 -25.369 -11.541  0.00  0.00    -0.085 HD
ATOM      7  H   UNL     1      38.155 -24.067 -11.007  0.00  0.00    -0.085 HD
ENDROOT
BRANCH   3   8
ATOM      8  N   UNL     1      37.427 -23.688 -15.328  0.00  0.00    +0.382 N 
ATOM      9  H   UNL     1      36.558 -24.127 -15.626  0.00  0.00    -0.085 HD
ATOM     10  H   UNL     1      38.217 -24.314 -15.485  0.00  0.00    -0.085 HD
BRANCH   8  11
ATOM     11  C   UNL     1      37.639 -22.472 -16.102  0.00  0.00    -0.106 C 
BRANCH  11  12
ATOM     12  C   UNL     1      36.353 -22.077 -16.823  0.00  0.00    -0.105 C 
BRANCH  12  13
ATOM     13  N   UNL     1      36.590 -21.987 -18.260  0.00  0.00    +0.385 N 
ATOM     14  H   UNL     1      37.185 -22.762 -18.550  0.00  0.00    -0.084 HD
ATOM     15  H   UNL     1      37.043 -21.095 -18.461  0.00  0.00    -0.084 HD
BRANCH  13  16
ATOM     16  C   UNL     1      35.335 -22.048 -18.997  0.00  0.00    -0.054 C 
BRANCH  16  18
ATOM     17 CL   UNL     1      34.592 -17.248 -22.548  0.00  0.00    -0.082 Cl
ATOM     18  C   UNL     1      35.150 -20.847 -19.886  0.00  0.00    -0.044 C 
ATOM     19  C   UNL     1      33.867 -20.462 -20.280  0.00  0.00    -0.005 C 
ATOM     20  C   UNL     1      36.258 -20.118 -20.315  0.00  0.00    -0.005 C 
ATOM     21  C   UNL     1      33.695 -19.349 -21.102  0.00  0.00    +0.011 C 
ATOM     22  C   UNL     1      36.086 -19.005 -21.138  0.00  0.00    +0.011 C 
ATOM     23  C   UNL     1      34.804 -18.621 -21.531  0.00  0.00    +0.058 C 
ENDBRANCH  16  18
ENDBRANCH  13  16
ENDBRANCH  12  13
ENDBRANCH  11  12
ENDBRANCH   8  11
ENDBRANCH   3   8
BRANCH   2  24
ATOM     24  C   UNL     1      35.166 -24.751 -13.727  0.00  0.00    +0.051 C 
BRANCH  24  26
ATOM     25  N   UNL     1      32.760 -24.713 -13.384  0.00  0.00    -0.396 NA
ATOM     26  C   UNL     1      33.788 -24.387 -14.200  0.00  0.00    +0.092 C 
ATOM     27  C   UNL     1      33.637 -23.748 -15.420  0.00  0.00    +0.077 C 
ATOM     28  C   UNL     1      32.347 -23.423 -15.829  0.00  0.00    -0.033 C 
ATOM     29  C   UNL     1      31.523 -24.381 -13.815  0.00  0.00    +0.176 C 
ATOM     30  C   UNL     1      31.265 -23.743 -15.017  0.00  0.00    +0.039 C 
ATOM     31  C   UNL     1      32.128 -22.734 -17.132  0.00  0.00    +0.027 C 
ATOM     32  N   UNL     1      30.409 -24.701 -12.999  0.00  0.00    -0.333 N 
ATOM     33  H   UNL     1      30.546 -25.155 -12.136  0.00  0.00    +0.145 HD
ATOM     34  H   UNL     1      29.500 -24.469 -13.294  0.00  0.00    +0.145 HD
ENDBRANCH  24  26
ENDBRANCH   2  24
TORSDOF 8
ENDMDL
MODEL 4
REMARK VINA RESULT:      -9.7      1.139      1.851
REMARK  Name = 24798097
REMARK  8 active torsions:
REMARK  status: ('A' for Active; 'I' for Inactive)
REMARK    1  A    between atoms: C_2  and  C_24
REMARK    2  A    between atoms: C_3  and  N_8
REMARK    3  A    between atoms: N_8  and  C_11
REMARK    4  A    between atoms: C_11  and  C_12
REMARK    5  A    between atoms: C_12  and  N_13
REMARK    6  A    between atoms: N_13  and  C_16
REMARK    7  A    between atoms: C_16  and  C_18
REMARK    8  A    between atoms: C_24  and  C_26
REMARK                            x       y       z     vdW  Elec       q    Type
REMARK                         _______ _______ _______ _____ _____    ______ ____
ROOT
ATOM      1  N   UNL     1      33.814 -15.304 -26.166  0.00  0.00    +0.382 N 
ATOM      2  C   UNL     1      32.914 -14.021 -24.374  0.00  0.00    -0.036 C 
ATOM      3  C   UNL     1      33.557 -15.280 -23.787  0.00  0.00    -0.085 C 
ATOM      4  C   UNL     1      32.644 -14.497 -25.800  0.00  0.00    -0.083 C 
ATOM      5  C   UNL     1      34.422 -15.808 -24.928  0.00  0.00    -0.104 C 
ATOM      6  H   UNL     1      34.487 -14.730 -26.674  0.00  0.00    -0.085 HD
ATOM      7  H   UNL     1      33.536 -16.081 -26.766  0.00  0.00    -0.085 HD
ENDROOT
BRANCH   3   8
ATOM      8  N   UNL     1      34.291 -15.089 -22.549  0.00  0.00    +0.382 N 
ATOM      9  H   UNL     1      34.188 -14.121 -22.246  0.00  0.00    -0.085 HD
ATOM     10  H   UNL     1      35.273 -15.309 -22.717  0.00  0.00    -0.085 HD
BRANCH   8  11
ATOM     11  C   UNL     1      33.791 -15.972 -21.502  0.00  0.00    -0.106 C 
BRANCH  11  12
ATOM     12  C   UNL     1      34.945 -16.747 -20.872  0.00  0.00    -0.105 C 
BRANCH  12  13
ATOM     13  N   UNL     1      35.565 -17.619 -21.863  0.00  0.00    +0.385 N 
ATOM     14  H   UNL     1      36.391 -18.055 -21.455  0.00  0.00    -0.084 HD
ATOM     15  H   UNL     1      35.824 -17.058 -22.676  0.00  0.00    -0.084 HD
BRANCH  13  16
ATOM     16  C   UNL     1      34.639 -18.658 -22.292  0.00  0.00    -0.054 C 
BRANCH  16  18
ATOM     17 CL   UNL     1      33.840 -22.835 -18.036  0.00  0.00    -0.082 Cl
ATOM     18  C   UNL     1      34.439 -19.704 -21.227  0.00  0.00    -0.044 C 
ATOM     19  C   UNL     1      35.540 -20.373 -20.691  0.00  0.00    -0.005 C 
ATOM     20  C   UNL     1      33.154 -20.003 -20.776  0.00  0.00    -0.005 C 
ATOM     21  C   UNL     1      35.355 -21.340 -19.704  0.00  0.00    +0.011 C 
ATOM     22  C   UNL     1      32.968 -20.970 -19.789  0.00  0.00    +0.011 C 
ATOM     23  C   UNL     1      34.069 -21.639 -19.253  0.00  0.00    +0.058 C 
ENDBRANCH  16  18
ENDBRANCH  13  16
ENDBRANCH  12  13
ENDBRANCH  11  12
ENDBRANCH   8  11
ENDBRANCH   3   8
BRANCH   2  24
ATOM     24  C   UNL     1      33.813 -12.781 -24.351  0.00  0.00    +0.051 C 
BRANCH  24  26
ATOM     25  N   UNL     1      33.529 -10.404 -23.932  0.00  0.00    -0.396 NA
ATOM     26  C   UNL     1      33.185 -11.661 -23.572  0.00  0.00    +0.092 C 
ATOM     27  C   UNL     1      32.302 -11.960 -22.546  0.00  0.00    +0.077 C 
ATOM     28  C   UNL     1      31.737 -10.900 -21.845  0.00  0.00    -0.033 C 
ATOM     29  C   UNL     1      32.959  -9.400 -23.228  0.00  0.00    +0.176 C 
ATOM     30  C   UNL     1      32.066  -9.593 -22.186  0.00  0.00    +0.039 C 
ATOM     31  C   UNL     1      30.781 -11.165 -20.733  0.00  0.00    +0.027 C 
ATOM     32  N   UNL     1      33.286  -8.063 -23.563  0.00  0.00    -0.333 N 
ATOM     33  H   UNL     1      33.916  -7.880 -24.297  0.00  0.00    +0.145 HD
ATOM     34  H   UNL     1      32.882  -7.317 -23.064  0.00  0.00    +0.145 HD
ENDBRANCH  24  26
ENDBRANCH   2  24
TORSDOF 8
ENDMDL
MODEL 5
REMARK VINA RESULT:      -9.7      1.426      2.644
REMARK  Name = 24798097
REMARK  8 active torsions:
REMARK  status: ('A' for Active; 'I' for Inactive)
REMARK    1  A    between atoms: C_2  and  C_24
REMARK    2  A    between atoms: C_3  and  N_8
REMARK    3  A    between atoms: N_8  and  C_11
REMARK    4  A    between atoms: C_11  and  C_12
REMARK    5  A    between atoms: C_12  and  N_13
REMARK    6  A    between atoms: N_13  and  C_16
REMARK    7  A    between atoms: C_16  and  C_18
REMARK    8  A    between atoms: C_24  and  C_26
REMARK                            x       y       z     vdW  Elec       q    Type
REMARK                         _______ _______ _______ _____ _____    ______ ____
ROOT
ATOM      1  N   UNL     1      32.285 -15.733 -20.588  0.00  0.00    +0.382 N 
ATOM      2  C   UNL     1      33.631 -14.092 -21.666  0.00  0.00    -0.036 C 
ATOM      3  C   UNL     1      34.321 -15.450 -21.813  0.00  0.00    -0.085 C 
ATOM      4  C   UNL     1      32.774 -14.358 -20.431  0.00  0.00    -0.083 C 
ATOM      5  C   UNL     1      33.224 -16.452 -21.458  0.00  0.00    -0.104 C 
ATOM      6  H   UNL     1      31.357 -15.725 -21.011  0.00  0.00    -0.085 HD
ATOM      7  H   UNL     1      32.219 -16.193 -19.679  0.00  0.00    -0.085 HD
ENDROOT
BRANCH   3   8
ATOM      8  N   UNL     1      34.936 -15.705 -23.104  0.00  0.00    +0.382 N 
ATOM      9  H   UNL     1      35.936 -15.848 -22.973  0.00  0.00    -0.085 HD
ATOM     10  H   UNL     1      34.764 -14.902 -23.708  0.00  0.00    -0.085 HD
BRANCH   8  11
ATOM     11  C   UNL     1      34.363 -16.889 -23.732  0.00  0.00    -0.106 C 
BRANCH  11  12
ATOM     12  C   UNL     1      35.411 -17.994 -23.825  0.00  0.00    -0.105 C 
BRANCH  12  13
ATOM     13  N   UNL     1      35.014 -19.133 -23.005  0.00  0.00    +0.385 N 
ATOM     14  H   UNL     1      35.281 -19.996 -23.479  0.00  0.00    -0.084 HD
ATOM     15  H   UNL     1      34.003 -19.101 -22.867  0.00  0.00    -0.084 HD
BRANCH  13  16
ATOM     16  C   UNL     1      35.662 -19.085 -21.702  0.00  0.00    -0.054 C 
BRANCH  16  18
ATOM     17 CL   UNL     1      33.281 -23.067 -17.871  0.00  0.00    -0.082 Cl
ATOM     18  C   UNL     1      35.067 -20.081 -20.742  0.00  0.00    -0.044 C 
ATOM     19  C   UNL     1      33.682 -20.147 -20.575  0.00  0.00    -0.005 C 
ATOM     20  C   UNL     1      35.897 -20.939 -20.022  0.00  0.00    -0.005 C 
ATOM     21  C   UNL     1      33.130 -21.070 -19.688  0.00  0.00    +0.011 C 
ATOM     22  C   UNL     1      35.345 -21.863 -19.135  0.00  0.00    +0.011 C 
ATOM     23  C   UNL     1      33.962 -21.928 -18.968  0.00  0.00    +0.058 C 
ENDBRANCH  16  18
ENDBRANCH  13  16
ENDBRANCH  12  13
ENDBRANCH  11  12
ENDBRANCH   8  11
ENDBRANCH   3   8
BRANCH   2  24
ATOM     24  C   UNL     1      32.777 -13.682 -22.870  0.00  0.00    +0.051 C 
BRANCH  24  26
ATOM     25  N   UNL     1      32.302 -11.305 -22.694  0.00  0.00    -0.396 NA
ATOM     26  C   UNL     1      33.053 -12.263 -23.281  0.00  0.00    +0.092 C 
ATOM     27  C   UNL     1      34.040 -12.009 -24.220  0.00  0.00    +0.077 C 
ATOM     28  C   UNL     1      34.271 -10.685 -24.578  0.00  0.00    -0.033 C 
ATOM     29  C   UNL     1      32.555 -10.030 -23.067  0.00  0.00    +0.176 C 
ATOM     30  C   UNL     1      33.519  -9.671 -23.995  0.00  0.00    +0.039 C 
ATOM     31  C   UNL     1      35.323 -10.355 -25.582  0.00  0.00    +0.027 C 
ATOM     32  N   UNL     1      31.797  -8.986 -22.482  0.00  0.00    -0.333 N 
ATOM     33  H   UNL     1      31.101  -9.196 -21.818  0.00  0.00    +0.145 HD
ATOM     34  H   UNL     1      31.965  -8.051 -22.740  0.00  0.00    +0.145 HD
ENDBRANCH  24  26
ENDBRANCH   2  24
TORSDOF 8
ENDMDL
MODEL 6
REMARK VINA RESULT:      -9.7      1.879      3.159
REMARK  Name = 24798097
REMARK  8 active torsions:
REMARK  status: ('A' for Active; 'I' for Inactive)
REMARK    1  A    between atoms: C_2  and  C_24
REMARK    2  A    between atoms: C_3  and  N_8
REMARK    3  A    between atoms: N_8  and  C_11
REMARK    4  A    between atoms: C_11  and  C_12
REMARK    5  A    between atoms: C_12  and  N_13
REMARK    6  A    between atoms: N_13  and  C_16
REMARK    7  A    between atoms: C_16  and  C_18
REMARK    8  A    between atoms: C_24  and  C_26
REMARK                            x       y       z     vdW  Elec       q    Type
REMARK                         _______ _______ _______ _____ _____    ______ ____
ROOT
ATOM      1  N   UNL     1      32.333 -15.593 -20.329  0.00  0.00    +0.382 N 
ATOM      2  C   UNL     1      33.495 -14.064 -21.736  0.00  0.00    -0.036 C 
ATOM      3  C   UNL     1      34.173 -15.431 -21.850  0.00  0.00    -0.085 C 
ATOM      4  C   UNL     1      32.823 -14.210 -20.372  0.00  0.00    -0.083 C 
ATOM      5  C   UNL     1      33.150 -16.392 -21.251  0.00  0.00    -0.104 C 
ATOM      6  H   UNL     1      31.355 -15.624 -20.616  0.00  0.00    -0.085 HD
ATOM      7  H   UNL     1      32.402 -15.964 -19.381  0.00  0.00    -0.085 HD
ENDROOT
BRANCH   3   8
ATOM      8  N   UNL     1      34.604 -15.808 -23.185  0.00  0.00    +0.382 N 
ATOM      9  H   UNL     1      35.075 -15.015 -23.618  0.00  0.00    -0.085 HD
ATOM     10  H   UNL     1      33.782 -16.077 -23.726  0.00  0.00    -0.085 HD
BRANCH   8  11
ATOM     11  C   UNL     1      35.520 -16.941 -23.138  0.00  0.00    -0.106 C 
BRANCH  11  12
ATOM     12  C   UNL     1      34.979 -18.089 -23.984  0.00  0.00    -0.105 C 
BRANCH  12  13
ATOM     13  N   UNL     1      34.900 -19.308 -23.185  0.00  0.00    +0.385 N 
ATOM     14  H   UNL     1      35.433 -20.045 -23.647  0.00  0.00    -0.084 HD
ATOM     15  H   UNL     1      33.920 -19.578 -23.098  0.00  0.00    -0.084 HD
BRANCH  13  16
ATOM     16  C   UNL     1      35.443 -19.090 -21.852  0.00  0.00    -0.054 C 
BRANCH  16  18
ATOM     17 CL   UNL     1      33.239 -23.020 -17.865  0.00  0.00    -0.082 Cl
ATOM     18  C   UNL     1      34.891 -20.074 -20.855  0.00  0.00    -0.044 C 
ATOM     19  C   UNL     1      35.751 -20.949 -20.189  0.00  0.00    -0.005 C 
ATOM     20  C   UNL     1      33.521 -20.111 -20.595  0.00  0.00    -0.005 C 
ATOM     21  C   UNL     1      35.240 -21.860 -19.265  0.00  0.00    +0.011 C 
ATOM     22  C   UNL     1      33.011 -21.021 -19.670  0.00  0.00    +0.011 C 
ATOM     23  C   UNL     1      33.870 -21.895 -19.005  0.00  0.00    +0.058 C 
ENDBRANCH  16  18
ENDBRANCH  13  16
ENDBRANCH  12  13
ENDBRANCH  11  12
ENDBRANCH   8  11
ENDBRANCH   3   8
BRANCH   2  24
ATOM     24  C   UNL     1      32.476 -13.768 -22.841  0.00  0.00    +0.051 C 
BRANCH  24  26
ATOM     25  N   UNL     1      33.059 -13.540 -25.189  0.00  0.00    -0.396 NA
ATOM     26  C   UNL     1      33.092 -12.978 -23.960  0.00  0.00    +0.092 C 
ATOM     27  C   UNL     1      33.652 -11.740 -23.688  0.00  0.00    +0.077 C 
ATOM     28  C   UNL     1      34.214 -11.034 -24.747  0.00  0.00    -0.033 C 
ATOM     29  C   UNL     1      33.614 -12.824 -26.193  0.00  0.00    +0.176 C 
ATOM     30  C   UNL     1      34.199 -11.579 -26.026  0.00  0.00    +0.039 C 
ATOM     31  C   UNL     1      34.828  -9.697 -24.510  0.00  0.00    +0.027 C 
ATOM     32  N   UNL     1      33.607 -13.367 -27.501  0.00  0.00    -0.333 N 
ATOM     33  H   UNL     1      33.202 -14.249 -27.666  0.00  0.00    +0.145 HD
ATOM     34  H   UNL     1      34.005 -12.862 -28.246  0.00  0.00    +0.145 HD
ENDBRANCH  24  26
ENDBRANCH   2  24
TORSDOF 8
ENDMDL
MODEL 7
REMARK VINA RESULT:      -9.4      3.763      9.645
REMARK  Name = 24798097
REMARK  8 active torsions:
REMARK  status: ('A' for Active; 'I' for Inactive)
REMARK    1  A    between atoms: C_2  and  C_24
REMARK    2  A    between atoms: C_3  and  N_8
REMARK    3  A    between atoms: N_8  and  C_11
REMARK    4  A    between atoms: C_11  and  C_12
REMARK    5  A    between atoms: C_12  and  N_13
REMARK    6  A    between atoms: N_13  and  C_16
REMARK    7  A    between atoms: C_16  and  C_18
REMARK    8  A    between atoms: C_24  and  C_26
REMARK                            x       y       z     vdW  Elec       q    Type
REMARK                         _______ _______ _______ _____ _____    ______ ____
ROOT
ATOM      1  N   UNL     1      34.208 -17.961 -25.154  0.00  0.00    +0.382 N 
ATOM      2  C   UNL     1      35.217 -17.258 -23.115  0.00  0.00    -0.036 C 
ATOM      3  C   UNL     1      34.970 -16.020 -23.979  0.00  0.00    -0.085 C 
ATOM      4  C   UNL     1      35.254 -18.338 -24.195  0.00  0.00    -0.083 C 
ATOM      5  C   UNL     1      33.993 -16.513 -25.044  0.00  0.00    -0.104 C 
ATOM      6  H   UNL     1      33.344 -18.458 -24.937  0.00  0.00    -0.085 HD
ATOM      7  H   UNL     1      34.491 -18.207 -26.103  0.00  0.00    -0.085 HD
ENDROOT
BRANCH   3   8
ATOM      8  N   UNL     1      34.502 -14.843 -23.270  0.00  0.00    +0.382 N 
ATOM      9  H   UNL     1      35.213 -14.115 -23.328  0.00  0.00    -0.085 HD
ATOM     10  H   UNL     1      34.330 -15.098 -22.297  0.00  0.00    -0.085 HD
BRANCH   8  11
ATOM     11  C   UNL     1      33.259 -14.345 -23.845  0.00  0.00    -0.106 C 
BRANCH  11  12
ATOM     12  C   UNL     1      33.531 -13.102 -24.687  0.00  0.00    -0.105 C 
BRANCH  12  13
ATOM     13  N   UNL     1      34.207 -12.088 -23.884  0.00  0.00    +0.385 N 
ATOM     14  H   UNL     1      35.138 -12.423 -23.638  0.00  0.00    -0.084 HD
ATOM     15  H   UNL     1      33.656 -11.919 -23.042  0.00  0.00    -0.084 HD
BRANCH  13  16
ATOM     16  C   UNL     1      34.327 -10.839 -24.621  0.00  0.00    -0.054 C 
BRANCH  16  18
ATOM     17 CL   UNL     1      32.203  -6.174 -21.470  0.00  0.00    -0.082 Cl
ATOM     18  C   UNL     1      33.796  -9.670 -23.833  0.00  0.00    -0.044 C 
ATOM     19  C   UNL     1      32.588  -9.786 -23.143  0.00  0.00    -0.005 C 
ATOM     20  C   UNL     1      34.510  -8.474 -23.790  0.00  0.00    -0.005 C 
ATOM     21  C   UNL     1      32.096  -8.705 -22.412  0.00  0.00    +0.011 C 
ATOM     22  C   UNL     1      34.018  -7.393 -23.060  0.00  0.00    +0.011 C 
ATOM     23  C   UNL     1      32.811  -7.509 -22.371  0.00  0.00    +0.058 C 
ENDBRANCH  16  18
ENDBRANCH  13  16
ENDBRANCH  12  13
ENDBRANCH  11  12
ENDBRANCH   8  11
ENDBRANCH   3   8
BRANCH   2  24
ATOM     24  C   UNL     1      34.126 -17.534 -22.076  0.00  0.00    +0.051 C 
BRANCH  24  26
ATOM     25  N   UNL     1      33.353 -19.513 -20.895  0.00  0.00    -0.396 NA
ATOM     26  C   UNL     1      34.418 -18.779 -21.289  0.00  0.00    +0.092 C 
ATOM     27  C   UNL     1      35.734 -19.112 -21.010  0.00  0.00    +0.077 C 
ATOM     28  C   UNL     1      35.971 -20.272 -20.279  0.00  0.00    -0.033 C 
ATOM     29  C   UNL     1      33.622 -20.633 -20.188  0.00  0.00    +0.176 C 
ATOM     30  C   UNL     1      34.901 -21.052 -19.857  0.00  0.00    +0.039 C 
ATOM     31  C   UNL     1      37.368 -20.677 -19.953  0.00  0.00    +0.027 C 
ATOM     32  N   UNL     1      32.542 -21.438 -19.750  0.00  0.00    -0.333 N 
ATOM     33  H   UNL     1      31.617 -21.178 -19.963  0.00  0.00    +0.145 HD
ATOM     34  H   UNL     1      32.716 -22.258 -19.234  0.00  0.00    +0.145 HD
ENDBRANCH  24  26
ENDBRANCH   2  24
TORSDOF 8
ENDMDL
MODEL 8
REMARK VINA RESULT:      -9.4      4.669      8.093
REMARK  Name = 24798097
REMARK  8 active torsions:
REMARK  status: ('A' for Active; 'I' for Inactive)
REMARK    1  A    between atoms: C_2  and  C_24
REMARK    2  A    between atoms: C_3  and  N_8
REMARK    3  A    between atoms: N_8  and  C_11
REMARK    4  A    between atoms: C_11  and  C_12
REMARK    5  A    between atoms: C_12  and  N_13
REMARK    6  A    between atoms: N_13  and  C_16
REMARK    7  A    between atoms: C_16  and  C_18
REMARK    8  A    between atoms: C_24  and  C_26
REMARK                            x       y       z     vdW  Elec       q    Type
REMARK                         _______ _______ _______ _____ _____    ______ ____
ROOT
ATOM      1  N   UNL     1      33.130 -22.361 -19.972  0.00  0.00    +0.382 N 
ATOM      2  C   UNL     1      34.608 -20.538 -19.568  0.00  0.00    -0.036 C 
ATOM      3  C   UNL     1      35.009 -21.694 -18.648  0.00  0.00    -0.085 C 
ATOM      4  C   UNL     1      33.148 -20.900 -19.833  0.00  0.00    -0.083 C 
ATOM      5  C   UNL     1      34.289 -22.899 -19.248  0.00  0.00    -0.104 C 
ATOM      6  H   UNL     1      33.188 -22.617 -20.957  0.00  0.00    -0.085 HD
ATOM      7  H   UNL     1      32.265 -22.743 -19.590  0.00  0.00    -0.085 HD
ENDROOT
BRANCH   3   8
ATOM      8  N   UNL     1      36.437 -21.899 -18.485  0.00  0.00    +0.382 N 
ATOM      9  H   UNL     1      36.937 -21.259 -19.100  0.00  0.00    -0.085 HD
ATOM     10  H   UNL     1      36.654 -22.867 -18.722  0.00  0.00    -0.085 HD
BRANCH   8  11
ATOM     11  C   UNL     1      36.847 -21.655 -17.107  0.00  0.00    -0.106 C 
BRANCH  11  12
ATOM     12  C   UNL     1      36.467 -22.843 -16.228  0.00  0.00    -0.105 C 
BRANCH  12  13
ATOM     13  N   UNL     1      35.395 -22.468 -15.312  0.00  0.00    +0.385 N 
ATOM     14  H   UNL     1      34.787 -21.789 -15.769  0.00  0.00    -0.084 HD
ATOM     15  H   UNL     1      35.810 -22.065 -14.472  0.00  0.00    -0.084 HD
BRANCH  13  16
ATOM     16  C   UNL     1      34.608 -23.632 -14.930  0.00  0.00    -0.054 C 
BRANCH  16  18
ATOM     17 CL   UNL     1      28.705 -22.652 -15.559  0.00  0.00    -0.082 Cl
ATOM     18  C   UNL     1      33.131 -23.386 -15.087  0.00  0.00    -0.044 C 
ATOM     19  C   UNL     1      32.582 -23.223 -16.360  0.00  0.00    -0.005 C 
ATOM     20  C   UNL     1      32.310 -23.321 -13.961  0.00  0.00    -0.005 C 
ATOM     21  C   UNL     1      31.214 -22.997 -16.506  0.00  0.00    +0.011 C 
ATOM     22  C   UNL     1      30.942 -23.095 -14.107  0.00  0.00    +0.011 C 
ATOM     23  C   UNL     1      30.394 -22.933 -15.379  0.00  0.00    +0.058 C 
ENDBRANCH  16  18
ENDBRANCH  13  16
ENDBRANCH  12  13
ENDBRANCH  11  12
ENDBRANCH   8  11
ENDBRANCH   3   8
BRANCH   2  24
ATOM     24  C   UNL     1      35.415 -20.454 -20.867  0.00  0.00    +0.051 C 
BRANCH  24  26
ATOM     25  N   UNL     1      35.101 -18.044 -20.828  0.00  0.00    -0.396 NA
ATOM     26  C   UNL     1      35.163 -19.161 -21.588  0.00  0.00    +0.092 C 
ATOM     27  C   UNL     1      35.009 -19.171 -22.966  0.00  0.00    +0.077 C 
ATOM     28  C   UNL     1      34.778 -17.957 -23.603  0.00  0.00    -0.033 C 
ATOM     29  C   UNL     1      34.876 -16.883 -21.483  0.00  0.00    +0.176 C 
ATOM     30  C   UNL     1      34.708 -16.787 -22.855  0.00  0.00    +0.039 C 
ATOM     31  C   UNL     1      34.606 -17.910 -25.083  0.00  0.00    +0.027 C 
ATOM     32  N   UNL     1      34.801 -15.683 -20.734  0.00  0.00    -0.333 N 
ATOM     33  H   UNL     1      34.914 -15.705 -19.757  0.00  0.00    +0.145 HD
ATOM     34  H   UNL     1      34.637 -14.827 -21.191  0.00  0.00    +0.145 HD
ENDBRANCH  24  26
ENDBRANCH   2  24
TORSDOF 8
ENDMDL
MODEL 9
REMARK VINA RESULT:      -9.4      3.767      9.527
REMARK  Name = 24798097
REMARK  8 active torsions:
REMARK  status: ('A' for Active; 'I' for Inactive)
REMARK    1  A    between atoms: C_2  and  C_24
REMARK    2  A    between atoms: C_3  and  N_8
REMARK    3  A    between atoms: N_8  and  C_11
REMARK    4  A    between atoms: C_11  and  C_12
REMARK    5  A    between atoms: C_12  and  N_13
REMARK    6  A    between atoms: N_13  and  C_16
REMARK    7  A    between atoms: C_16  and  C_18
REMARK    8  A    between atoms: C_24  and  C_26
REMARK                            x       y       z     vdW  Elec       q    Type
REMARK                         _______ _______ _______ _____ _____    ______ ____
ROOT
ATOM      1  N   UNL     1      34.403 -17.475 -24.775  0.00  0.00    +0.382 N 
ATOM      2  C   UNL     1      35.137 -18.075 -22.591  0.00  0.00    -0.036 C 
ATOM      3  C   UNL     1      35.186 -16.550 -22.711  0.00  0.00    -0.085 C 
ATOM      4  C   UNL     1      35.224 -18.464 -24.066  0.00  0.00    -0.083 C 
ATOM      5  C   UNL     1      34.347 -16.259 -23.953  0.00  0.00    -0.104 C 
ATOM      6  H   UNL     1      33.462 -17.842 -24.917  0.00  0.00    -0.085 HD
ATOM      7  H   UNL     1      34.808 -17.267 -25.689  0.00  0.00    -0.085 HD
ENDROOT
BRANCH   3   8
ATOM      8  N   UNL     1      34.750 -15.815 -21.538  0.00  0.00    +0.382 N 
ATOM      9  H   UNL     1      35.532 -15.727 -20.891  0.00  0.00    -0.085 HD
ATOM     10  H   UNL     1      33.981 -16.325 -21.103  0.00  0.00    -0.085 HD
BRANCH   8  11
ATOM     11  C   UNL     1      34.277 -14.484 -21.899  0.00  0.00    -0.106 C 
BRANCH  11  12
ATOM     12  C   UNL     1      32.820 -14.312 -21.480  0.00  0.00    -0.105 C 
BRANCH  12  13
ATOM     13  N   UNL     1      32.315 -13.022 -21.936  0.00  0.00    +0.385 N 
ATOM     14  H   UNL     1      32.682 -12.287 -21.331  0.00  0.00    -0.084 HD
ATOM     15  H   UNL     1      31.296 -13.038 -21.898  0.00  0.00    -0.084 HD
BRANCH  13  16
ATOM     16  C   UNL     1      32.725 -12.760 -23.308  0.00  0.00    -0.054 C 
BRANCH  16  18
ATOM     17 CL   UNL     1      34.691  -7.117 -24.016  0.00  0.00    -0.082 Cl
ATOM     18  C   UNL     1      33.217 -11.347 -23.486  0.00  0.00    -0.044 C 
ATOM     19  C   UNL     1      32.573 -10.297 -22.830  0.00  0.00    -0.005 C 
ATOM     20  C   UNL     1      34.316 -11.089 -24.305  0.00  0.00    -0.005 C 
ATOM     21  C   UNL     1      33.029  -8.989 -22.993  0.00  0.00    +0.011 C 
ATOM     22  C   UNL     1      34.772  -9.781 -24.468  0.00  0.00    +0.011 C 
ATOM     23  C   UNL     1      34.129  -8.731 -23.812  0.00  0.00    +0.058 C 
ENDBRANCH  16  18
ENDBRANCH  13  16
ENDBRANCH  12  13
ENDBRANCH  11  12
ENDBRANCH   8  11
ENDBRANCH   3   8
BRANCH   2  24
ATOM     24  C   UNL     1      33.864 -18.619 -21.936  0.00  0.00    +0.051 C 
BRANCH  24  26
ATOM     25  N   UNL     1      33.121 -20.283 -20.327  0.00  0.00    -0.396 NA
ATOM     26  C   UNL     1      34.173 -19.726 -20.969  0.00  0.00    +0.092 C 
ATOM     27  C   UNL     1      35.490 -20.116 -20.783  0.00  0.00    +0.077 C 
ATOM     28  C   UNL     1      35.743 -21.144 -19.881  0.00  0.00    -0.033 C 
ATOM     29  C   UNL     1      33.406 -21.279 -19.459  0.00  0.00    +0.176 C 
ATOM     30  C   UNL     1      34.687 -21.742 -19.202  0.00  0.00    +0.039 C 
ATOM     31  C   UNL     1      37.141 -21.603 -19.644  0.00  0.00    +0.027 C 
ATOM     32  N   UNL     1      32.340 -21.898 -18.760  0.00  0.00    -0.333 N 
ATOM     33  H   UNL     1      31.414 -21.600 -18.912  0.00  0.00    +0.145 HD
ATOM     34  H   UNL     1      32.526 -22.625 -18.123  0.00  0.00    +0.145 HD
ENDBRANCH  24  26
ENDBRANCH   2  24
TORSDOF 8
ENDMDL
