MODEL 1
REMARK VINA RESULT:      -9.5      0.000      0.000
REMARK  Name = 9865442
REMARK  5 active torsions:
REMARK  status: ('A' for Active; 'I' for Inactive)
REMARK    1  A    between atoms: C_6  and  O_21
REMARK    2  A    between atoms: C_6  and  C_26
REMARK    3  A    between atoms: C_8  and  O_23
REMARK    4  A    between atoms: C_26  and  O_27
REMARK    5  A    between atoms: O_27  and  C_29
REMARK                            x       y       z     vdW  Elec       q    Type
REMARK                         _______ _______ _______ _____ _____    ______ ____
ROOT
ATOM      1  O   UNL     1      39.753 -26.574 -14.616  0.00  0.00    -0.287 OA
ATOM      2  C   UNL     1      32.059 -23.669 -14.806  0.00  0.00    +0.035 C 
ATOM      3  C   UNL     1      33.157 -23.553 -15.887  0.00  0.00    +0.003 C 
ATOM      4  C   UNL     1      34.544 -23.215 -15.321  0.00  0.00    +0.003 C 
ATOM      5  C   UNL     1      34.975 -24.352 -14.328  0.00  0.00    +0.034 C 
ATOM      6  C   UNL     1      30.832 -23.942 -15.719  0.00  0.00    +0.177 C 
ATOM      7  C   UNL     1      32.465 -24.813 -13.856  0.00  0.00    +0.032 C 
ATOM      8  C   UNL     1      33.877 -24.633 -13.254  0.00  0.00    +0.111 C 
ATOM      9  C   UNL     1      32.535 -22.621 -16.925  0.00  0.00    +0.003 C 
ATOM     10  C   UNL     1      36.442 -24.143 -13.782  0.00  0.00    +0.036 C 
ATOM     11  C   UNL     1      31.040 -23.001 -16.927  0.00  0.00    +0.038 C 
ATOM     12  C   UNL     1      35.566 -23.056 -16.461  0.00  0.00    +0.004 C 
ATOM     13  C   UNL     1      31.836 -22.350 -14.016  0.00  0.00    +0.003 C 
ATOM     14  C   UNL     1      36.984 -22.847 -15.944  0.00  0.00    +0.022 C 
ATOM     15  C   UNL     1      37.360 -23.956 -14.996  0.00  0.00    -0.038 C 
ATOM     16  C   UNL     1      36.603 -22.909 -12.865  0.00  0.00    +0.009 C 
ATOM     17  C   UNL     1      36.866 -25.346 -12.952  0.00  0.00    -0.020 C 
ATOM     18  C   UNL     1      38.416 -24.741 -15.259  0.00  0.00    +0.034 C 
ATOM     19  C   UNL     1      37.916 -26.132 -13.210  0.00  0.00    +0.038 C 
ATOM     20  C   UNL     1      38.775 -25.871 -14.380  0.00  0.00    +0.195 C 
ENDROOT
BRANCH   6  21
ATOM     21  O   UNL     1      30.814 -25.294 -16.171  0.00  0.00    -0.376 OA
ATOM     22  H   UNL     1      31.470 -25.809 -15.674  0.00  0.00    +0.211 HD
ENDBRANCH   6  21
BRANCH   8  23
ATOM     23  O   UNL     1      33.847 -23.610 -12.268  0.00  0.00    -0.384 OA
ATOM     24  H   UNL     1      33.300 -23.898 -11.521  0.00  0.00    +0.210 HD
ENDBRANCH   8  23
BRANCH   6  26
ATOM     25  O   UNL     1      28.961 -24.605 -14.356  0.00  0.00    -0.247 OA
ATOM     26  C   UNL     1      29.504 -23.756 -15.051  0.00  0.00    +0.342 C 
BRANCH  26  27
ATOM     27  O   UNL     1      29.018 -22.516 -15.340  0.00  0.00    -0.429 OA
BRANCH  27  29
ATOM     28 CL   UNL     1      27.563 -22.738 -17.496  0.00  0.00    -0.063 Cl
ATOM     29  C   UNL     1      27.647 -22.472 -15.745  0.00  0.00    +0.304 C 
ENDBRANCH  27  29
ENDBRANCH  26  27
ENDBRANCH   6  26
TORSDOF 5
ENDMDL
MODEL 2
REMARK VINA RESULT:      -9.0     10.532     13.065
REMARK  Name = 9865442
REMARK  5 active torsions:
REMARK  status: ('A' for Active; 'I' for Inactive)
REMARK    1  A    between atoms: C_6  and  O_21
REMARK    2  A    between atoms: C_6  and  C_26
REMARK    3  A    between atoms: C_8  and  O_23
REMARK    4  A    between atoms: C_26  and  O_27
REMARK    5  A    between atoms: O_27  and  C_29
REMARK                            x       y       z     vdW  Elec       q    Type
REMARK                         _______ _______ _______ _____ _____    ______ ____
ROOT
ATOM      1  O   UNL     1      34.822 -10.076 -26.155  0.00  0.00    -0.287 OA
ATOM      2  C   UNL     1      34.758 -17.358 -22.332  0.00  0.00    +0.035 C 
ATOM      3  C   UNL     1      34.660 -17.067 -23.846  0.00  0.00    +0.003 C 
ATOM      4  C   UNL     1      33.731 -15.894 -24.188  0.00  0.00    +0.003 C 
ATOM      5  C   UNL     1      34.277 -14.597 -23.490  0.00  0.00    +0.034 C 
ATOM      6  C   UNL     1      35.693 -18.599 -22.371  0.00  0.00    +0.177 C 
ATOM      7  C   UNL     1      35.333 -16.098 -21.655  0.00  0.00    +0.032 C 
ATOM      8  C   UNL     1      34.524 -14.818 -21.964  0.00  0.00    +0.111 C 
ATOM      9  C   UNL     1      34.372 -18.439 -24.452  0.00  0.00    +0.003 C 
ATOM     10  C   UNL     1      33.444 -13.314 -23.879  0.00  0.00    +0.036 C 
ATOM     11  C   UNL     1      35.187 -19.417 -23.582  0.00  0.00    +0.038 C 
ATOM     12  C   UNL     1      33.639 -15.707 -25.713  0.00  0.00    +0.004 C 
ATOM     13  C   UNL     1      33.397 -17.754 -21.695  0.00  0.00    +0.003 C 
ATOM     14  C   UNL     1      32.831 -14.474 -26.098  0.00  0.00    +0.022 C 
ATOM     15  C   UNL     1      33.385 -13.253 -25.410  0.00  0.00    -0.038 C 
ATOM     16  C   UNL     1      31.994 -13.318 -23.343  0.00  0.00    +0.009 C 
ATOM     17  C   UNL     1      34.104 -12.069 -23.306  0.00  0.00    -0.020 C 
ATOM     18  C   UNL     1      33.831 -12.215 -26.133  0.00  0.00    +0.034 C 
ATOM     19  C   UNL     1      34.553 -11.032 -24.021  0.00  0.00    +0.038 C 
ATOM     20  C   UNL     1      34.432 -11.030 -25.489  0.00  0.00    +0.195 C 
ENDROOT
BRANCH   6  21
ATOM     21  O   UNL     1      37.048 -18.218 -22.592  0.00  0.00    -0.376 OA
ATOM     22  H   UNL     1      37.636 -18.941 -22.320  0.00  0.00    +0.211 HD
ENDBRANCH   6  21
BRANCH   8  23
ATOM     23  O   UNL     1      33.300 -14.843 -21.242  0.00  0.00    -0.384 OA
ATOM     24  H   UNL     1      33.189 -14.006 -20.765  0.00  0.00    +0.210 HD
ENDBRANCH   8  23
BRANCH   6  26
ATOM     25  O   UNL     1      36.422 -19.103 -20.132  0.00  0.00    -0.247 OA
ATOM     26  C   UNL     1      35.731 -19.392 -21.101  0.00  0.00    +0.342 C 
BRANCH  26  27
ATOM     27  O   UNL     1      34.889 -20.459 -21.203  0.00  0.00    -0.429 OA
BRANCH  27  29
ATOM     28 CL   UNL     1      32.760 -20.627 -19.700  0.00  0.00    -0.063 Cl
ATOM     29  C   UNL     1      34.467 -21.030 -19.961  0.00  0.00    +0.304 C 
ENDBRANCH  27  29
ENDBRANCH  26  27
ENDBRANCH   6  26
TORSDOF 5
ENDMDL
MODEL 3
REMARK VINA RESULT:      -7.6     14.472     16.549
REMARK  Name = 9865442
REMARK  5 active torsions:
REMARK  status: ('A' for Active; 'I' for Inactive)
REMARK    1  A    between atoms: C_6  and  O_21
REMARK    2  A    between atoms: C_6  and  C_26
REMARK    3  A    between atoms: C_8  and  O_23
REMARK    4  A    between atoms: C_26  and  O_27
REMARK    5  A    between atoms: O_27  and  C_29
REMARK                            x       y       z     vdW  Elec       q    Type
REMARK                         _______ _______ _______ _____ _____    ______ ____
ROOT
ATOM      1  O   UNL     1      34.939 -16.376 -20.476  0.00  0.00    -0.287 OA
ATOM      2  C   UNL     1      33.294  -8.971 -23.655  0.00  0.00    +0.035 C 
ATOM      3  C   UNL     1      32.892  -9.534 -22.274  0.00  0.00    +0.003 C 
ATOM      4  C   UNL     1      32.398 -10.988 -22.323  0.00  0.00    +0.003 C 
ATOM      5  C   UNL     1      33.550 -11.893 -22.887  0.00  0.00    +0.034 C 
ATOM      6  C   UNL     1      33.662  -7.519 -23.239  0.00  0.00    +0.177 C 
ATOM      7  C   UNL     1      34.453  -9.837 -24.188  0.00  0.00    +0.032 C 
ATOM      8  C   UNL     1      34.113 -11.344 -24.236  0.00  0.00    +0.111 C 
ATOM      9  C   UNL     1      31.967  -8.459 -21.708  0.00  0.00    +0.003 C 
ATOM     10  C   UNL     1      33.168 -13.426 -22.868  0.00  0.00    +0.036 C 
ATOM     11  C   UNL     1      32.577  -7.133 -22.207  0.00  0.00    +0.038 C 
ATOM     12  C   UNL     1      31.959 -11.454 -20.923  0.00  0.00    +0.004 C 
ATOM     13  C   UNL     1      32.117  -8.938 -24.670  0.00  0.00    +0.003 C 
ATOM     14  C   UNL     1      31.583 -12.930 -20.896  0.00  0.00    +0.022 C 
ATOM     15  C   UNL     1      32.712 -13.765 -21.444  0.00  0.00    -0.038 C 
ATOM     16  C   UNL     1      32.028 -13.803 -23.840  0.00  0.00    +0.009 C 
ATOM     17  C   UNL     1      34.369 -14.267 -23.275  0.00  0.00    -0.020 C 
ATOM     18  C   UNL     1      33.285 -14.709 -20.682  0.00  0.00    +0.034 C 
ATOM     19  C   UNL     1      34.946 -15.207 -22.520  0.00  0.00    +0.038 C 
ATOM     20  C   UNL     1      34.431 -15.503 -21.171  0.00  0.00    +0.195 C 
ENDROOT
BRANCH   6  21
ATOM     21  O   UNL     1      34.944  -7.468 -22.619  0.00  0.00    -0.376 OA
ATOM     22  H   UNL     1      35.534  -8.111 -23.043  0.00  0.00    +0.211 HD
ENDBRANCH   6  21
BRANCH   8  23
ATOM     23  O   UNL     1      33.217 -11.596 -25.310  0.00  0.00    -0.384 OA
ATOM     24  H   UNL     1      33.695 -12.033 -26.033  0.00  0.00    +0.210 HD
ENDBRANCH   8  23
BRANCH   6  26
ATOM     25  O   UNL     1      34.665  -6.553 -25.204  0.00  0.00    -0.247 OA
ATOM     26  C   UNL     1      33.761  -6.550 -24.378  0.00  0.00    +0.342 C 
BRANCH  26  27
ATOM     27  O   UNL     1      32.702  -5.692 -24.340  0.00  0.00    -0.429 OA
BRANCH  27  29
ATOM     28 CL   UNL     1      31.121  -3.834 -25.270  0.00  0.00    -0.063 Cl
ATOM     29  C   UNL     1      32.458  -4.966 -25.548  0.00  0.00    +0.304 C 
ENDBRANCH  27  29
ENDBRANCH  26  27
ENDBRANCH   6  26
TORSDOF 5
ENDMDL
MODEL 4
REMARK VINA RESULT:      -7.4     14.238     16.845
REMARK  Name = 9865442
REMARK  5 active torsions:
REMARK  status: ('A' for Active; 'I' for Inactive)
REMARK    1  A    between atoms: C_6  and  O_21
REMARK    2  A    between atoms: C_6  and  C_26
REMARK    3  A    between atoms: C_8  and  O_23
REMARK    4  A    between atoms: C_26  and  O_27
REMARK    5  A    between atoms: O_27  and  C_29
REMARK                            x       y       z     vdW  Elec       q    Type
REMARK                         _______ _______ _______ _____ _____    ______ ____
ROOT
ATOM      1  O   UNL     1      30.670  -4.679 -23.968  0.00  0.00    -0.287 OA
ATOM      2  C   UNL     1      33.352 -12.437 -23.446  0.00  0.00    +0.035 C 
ATOM      3  C   UNL     1      32.315 -11.717 -22.555  0.00  0.00    +0.003 C 
ATOM      4  C   UNL     1      32.723 -10.287 -22.170  0.00  0.00    +0.003 C 
ATOM      5  C   UNL     1      32.892  -9.440 -23.481  0.00  0.00    +0.034 C 
ATOM      6  C   UNL     1      32.659 -13.822 -23.572  0.00  0.00    +0.177 C 
ATOM      7  C   UNL     1      33.486 -11.624 -24.749  0.00  0.00    +0.032 C 
ATOM      8  C   UNL     1      33.838 -10.139 -24.507  0.00  0.00    +0.111 C 
ATOM      9  C   UNL     1      32.036 -12.730 -21.447  0.00  0.00    +0.003 C 
ATOM     10  C   UNL     1      33.203  -7.922 -23.174  0.00  0.00    +0.036 C 
ATOM     11  C   UNL     1      32.098 -14.097 -22.158  0.00  0.00    +0.038 C 
ATOM     12  C   UNL     1      31.672  -9.662 -21.235  0.00  0.00    +0.004 C 
ATOM     13  C   UNL     1      34.735 -12.609 -22.759  0.00  0.00    +0.003 C 
ATOM     14  C   UNL     1      31.967  -8.199 -20.928  0.00  0.00    +0.022 C 
ATOM     15  C   UNL     1      32.122  -7.420 -22.209  0.00  0.00    -0.038 C 
ATOM     16  C   UNL     1      34.581  -7.681 -22.518  0.00  0.00    +0.009 C 
ATOM     17  C   UNL     1      33.202  -7.118 -24.465  0.00  0.00    -0.020 C 
ATOM     18  C   UNL     1      31.312  -6.383 -22.471  0.00  0.00    +0.034 C 
ATOM     19  C   UNL     1      32.396  -6.085 -24.733  0.00  0.00    +0.038 C 
ATOM     20  C   UNL     1      31.402  -5.637 -23.742  0.00  0.00    +0.195 C 
ENDROOT
BRANCH   6  21
ATOM     21  O   UNL     1      31.585 -13.779 -24.508  0.00  0.00    -0.376 OA
ATOM     22  H   UNL     1      31.798 -13.152 -25.217  0.00  0.00    +0.211 HD
ENDBRANCH   6  21
BRANCH   8  23
ATOM     23  O   UNL     1      35.199 -10.032 -24.111  0.00  0.00    -0.384 OA
ATOM     24  H   UNL     1      35.248  -9.628 -23.231  0.00  0.00    +0.210 HD
ENDBRANCH   8  23
BRANCH   6  26
ATOM     25  O   UNL     1      33.915 -15.025 -25.238  0.00  0.00    -0.247 OA
ATOM     26  C   UNL     1      33.546 -14.920 -24.076  0.00  0.00    +0.342 C 
BRANCH  26  27
ATOM     27  O   UNL     1      33.866 -15.756 -23.047  0.00  0.00    -0.429 OA
BRANCH  27  29
ATOM     28 CL   UNL     1      34.918 -18.011 -23.839  0.00  0.00    -0.063 Cl
ATOM     29  C   UNL     1      35.142 -16.393 -23.148  0.00  0.00    +0.304 C 
ENDBRANCH  27  29
ENDBRANCH  26  27
ENDBRANCH   6  26
TORSDOF 5
ENDMDL
MODEL 5
REMARK VINA RESULT:      -7.3      3.859      7.086
REMARK  Name = 9865442
REMARK  5 active torsions:
REMARK  status: ('A' for Active; 'I' for Inactive)
REMARK    1  A    between atoms: C_6  and  O_21
REMARK    2  A    between atoms: C_6  and  C_26
REMARK    3  A    between atoms: C_8  and  O_23
REMARK    4  A    between atoms: C_26  and  O_27
REMARK    5  A    between atoms: O_27  and  C_29
REMARK                            x       y       z     vdW  Elec       q    Type
REMARK                         _______ _______ _______ _____ _____    ______ ____
ROOT
ATOM      1  O   UNL     1      33.488 -18.349 -21.256  0.00  0.00    -0.287 OA
ATOM      2  C   UNL     1      35.527 -23.651 -15.307  0.00  0.00    +0.035 C 
ATOM      3  C   UNL     1      36.438 -22.655 -16.060  0.00  0.00    +0.003 C 
ATOM      4  C   UNL     1      36.176 -22.606 -17.572  0.00  0.00    +0.003 C 
ATOM      5  C   UNL     1      34.688 -22.163 -17.812  0.00  0.00    +0.034 C 
ATOM      6  C   UNL     1      36.102 -23.485 -13.872  0.00  0.00    +0.177 C 
ATOM      7  C   UNL     1      34.070 -23.190 -15.511  0.00  0.00    +0.032 C 
ATOM      8  C   UNL     1      33.683 -23.038 -16.999  0.00  0.00    +0.111 C 
ATOM      9  C   UNL     1      37.837 -23.011 -15.564  0.00  0.00    +0.003 C 
ATOM     10  C   UNL     1      34.361 -21.976 -19.346  0.00  0.00    +0.036 C 
ATOM     11  C   UNL     1      37.630 -23.391 -14.084  0.00  0.00    +0.038 C 
ATOM     12  C   UNL     1      37.160 -21.641 -18.257  0.00  0.00    +0.004 C 
ATOM     13  C   UNL     1      35.711 -25.122 -15.772  0.00  0.00    +0.003 C 
ATOM     14  C   UNL     1      36.856 -21.459 -19.739  0.00  0.00    +0.022 C 
ATOM     15  C   UNL     1      35.423 -21.035 -19.928  0.00  0.00    -0.038 C 
ATOM     16  C   UNL     1      34.386 -23.290 -20.160  0.00  0.00    +0.009 C 
ATOM     17  C   UNL     1      32.964 -21.399 -19.515  0.00  0.00    -0.020 C 
ATOM     18  C   UNL     1      35.137 -19.873 -20.535  0.00  0.00    +0.034 C 
ATOM     19  C   UNL     1      32.672 -20.242 -20.117  0.00  0.00    +0.038 C 
ATOM     20  C   UNL     1      33.744 -19.404 -20.684  0.00  0.00    +0.195 C 
ENDROOT
BRANCH   6  21
ATOM     21  O   UNL     1      35.634 -22.284 -13.264  0.00  0.00    -0.376 OA
ATOM     22  H   UNL     1      34.675 -22.341 -13.130  0.00  0.00    +0.211 HD
ENDBRANCH   6  21
BRANCH   8  23
ATOM     23  O   UNL     1      33.527 -24.324 -17.584  0.00  0.00    -0.384 OA
ATOM     24  H   UNL     1      34.207 -24.921 -17.236  0.00  0.00    +0.210 HD
ENDBRANCH   8  23
BRANCH   6  26
ATOM     25  O   UNL     1      34.550 -24.813 -12.597  0.00  0.00    -0.247 OA
ATOM     26  C   UNL     1      35.707 -24.565 -12.913  0.00  0.00    +0.342 C 
BRANCH  26  27
ATOM     27  O   UNL     1      36.822 -25.209 -12.466  0.00  0.00    -0.429 OA
BRANCH  27  29
ATOM     28 CL   UNL     1      38.442 -26.483 -14.069  0.00  0.00    -0.063 Cl
ATOM     29  C   UNL     1      37.029 -26.520 -12.999  0.00  0.00    +0.304 C 
ENDBRANCH  27  29
ENDBRANCH  26  27
ENDBRANCH   6  26
TORSDOF 5
ENDMDL
MODEL 6
REMARK VINA RESULT:      -6.8      3.380      6.504
REMARK  Name = 9865442
REMARK  5 active torsions:
REMARK  status: ('A' for Active; 'I' for Inactive)
REMARK    1  A    between atoms: C_6  and  O_21
REMARK    2  A    between atoms: C_6  and  C_26
REMARK    3  A    between atoms: C_8  and  O_23
REMARK    4  A    between atoms: C_26  and  O_27
REMARK    5  A    between atoms: O_27  and  C_29
REMARK                            x       y       z     vdW  Elec       q    Type
REMARK                         _______ _______ _______ _____ _____    ______ ____
ROOT
ATOM      1  O   UNL     1      33.747 -18.165 -21.469  0.00  0.00    -0.287 OA
ATOM      2  C   UNL     1      35.174 -23.616 -15.477  0.00  0.00    +0.035 C 
ATOM      3  C   UNL     1      36.150 -22.591 -16.096  0.00  0.00    +0.003 C 
ATOM      4  C   UNL     1      36.059 -22.500 -17.626  0.00  0.00    +0.003 C 
ATOM      5  C   UNL     1      34.602 -22.065 -18.019  0.00  0.00    +0.034 C 
ATOM      6  C   UNL     1      35.582 -23.486 -13.983  0.00  0.00    +0.177 C 
ATOM      7  C   UNL     1      33.743 -23.164 -15.831  0.00  0.00    +0.032 C 
ATOM      8  C   UNL     1      33.523 -22.972 -17.349  0.00  0.00    +0.111 C 
ATOM      9  C   UNL     1      37.490 -22.948 -15.456  0.00  0.00    +0.003 C 
ATOM     10  C   UNL     1      34.447 -21.837 -19.574  0.00  0.00    +0.036 C 
ATOM     11  C   UNL     1      37.123 -23.372 -14.019  0.00  0.00    +0.038 C 
ATOM     12  C   UNL     1      37.101 -21.507 -18.169  0.00  0.00    +0.004 C 
ATOM     13  C   UNL     1      35.427 -25.072 -15.960  0.00  0.00    +0.003 C 
ATOM     14  C   UNL     1      36.963 -21.285 -19.670  0.00  0.00    +0.022 C 
ATOM     15  C   UNL     1      35.555 -20.870 -20.008  0.00  0.00    -0.038 C 
ATOM     16  C   UNL     1      34.579 -23.126 -20.416  0.00  0.00    +0.009 C 
ATOM     17  C   UNL     1      33.070 -21.268 -19.883  0.00  0.00    -0.020 C 
ATOM     18  C   UNL     1      35.324 -19.693 -20.611  0.00  0.00    +0.034 C 
ATOM     19  C   UNL     1      32.833 -20.097 -20.482  0.00  0.00    +0.038 C 
ATOM     20  C   UNL     1      33.951 -19.233 -20.901  0.00  0.00    +0.195 C 
ENDROOT
BRANCH   6  21
ATOM     21  O   UNL     1      35.034 -22.307 -13.399  0.00  0.00    -0.376 OA
ATOM     22  H   UNL     1      35.380 -22.203 -12.498  0.00  0.00    +0.211 HD
ENDBRANCH   6  21
BRANCH   8  23
ATOM     23  O   UNL     1      33.450 -24.242 -17.982  0.00  0.00    -0.384 OA
ATOM     24  H   UNL     1      32.805 -24.798 -17.518  0.00  0.00    +0.210 HD
ENDBRANCH   8  23
BRANCH   6  26
ATOM     25  O   UNL     1      35.764 -25.578 -12.805  0.00  0.00    -0.247 OA
ATOM     26  C   UNL     1      35.095 -24.598 -13.104  0.00  0.00    +0.342 C 
BRANCH  26  27
ATOM     27  O   UNL     1      33.819 -24.336 -12.704  0.00  0.00    -0.429 OA
BRANCH  27  29
ATOM     28 CL   UNL     1      31.319 -24.049 -13.403  0.00  0.00    -0.063 Cl
ATOM     29  C   UNL     1      32.796 -25.031 -13.422  0.00  0.00    +0.304 C 
ENDBRANCH  27  29
ENDBRANCH  26  27
ENDBRANCH   6  26
TORSDOF 5
ENDMDL
MODEL 7
REMARK VINA RESULT:      -6.8      3.011      7.376
REMARK  Name = 9865442
REMARK  5 active torsions:
REMARK  status: ('A' for Active; 'I' for Inactive)
REMARK    1  A    between atoms: C_6  and  O_21
REMARK    2  A    between atoms: C_6  and  C_26
REMARK    3  A    between atoms: C_8  and  O_23
REMARK    4  A    between atoms: C_26  and  O_27
REMARK    5  A    between atoms: O_27  and  C_29
REMARK                            x       y       z     vdW  Elec       q    Type
REMARK                         _______ _______ _______ _____ _____    ______ ____
ROOT
ATOM      1  O   UNL     1      27.761 -21.623 -15.487  0.00  0.00    -0.287 OA
ATOM      2  C   UNL     1      35.452 -24.150 -14.032  0.00  0.00    +0.035 C 
ATOM      3  C   UNL     1      34.953 -23.164 -15.111  0.00  0.00    +0.003 C 
ATOM      4  C   UNL     1      33.662 -23.618 -15.809  0.00  0.00    +0.003 C 
ATOM      5  C   UNL     1      32.528 -23.756 -14.732  0.00  0.00    +0.034 C 
ATOM      6  C   UNL     1      36.758 -23.423 -13.608  0.00  0.00    +0.177 C 
ATOM      7  C   UNL     1      34.353 -24.252 -12.955  0.00  0.00    +0.032 C 
ATOM      8  C   UNL     1      32.973 -24.646 -13.529  0.00  0.00    +0.111 C 
ATOM      9  C   UNL     1      36.198 -22.905 -15.956  0.00  0.00    +0.003 C 
ATOM     10  C   UNL     1      31.132 -24.111 -15.378  0.00  0.00    +0.036 C 
ATOM     11  C   UNL     1      37.356 -22.909 -14.938  0.00  0.00    +0.038 C 
ATOM     12  C   UNL     1      33.265 -22.617 -16.909  0.00  0.00    +0.004 C 
ATOM     13  C   UNL     1      35.801 -25.554 -14.599  0.00  0.00    +0.003 C 
ATOM     14  C   UNL     1      31.922 -22.956 -17.543  0.00  0.00    +0.022 C 
ATOM     15  C   UNL     1      30.862 -23.080 -16.480  0.00  0.00    -0.038 C 
ATOM     16  C   UNL     1      31.072 -25.519 -16.014  0.00  0.00    +0.009 C 
ATOM     17  C   UNL     1      30.042 -24.079 -14.317  0.00  0.00    -0.020 C 
ATOM     18  C   UNL     1      29.782 -22.283 -16.507  0.00  0.00    +0.034 C 
ATOM     19  C   UNL     1      28.966 -23.287 -14.337  0.00  0.00    +0.038 C 
ATOM     20  C   UNL     1      28.755 -22.341 -15.448  0.00  0.00    +0.195 C 
ENDROOT
BRANCH   6  21
ATOM     21  O   UNL     1      36.479 -22.314 -12.756  0.00  0.00    -0.376 OA
ATOM     22  H   UNL     1      37.300 -22.019 -12.331  0.00  0.00    +0.211 HD
ENDBRANCH   6  21
BRANCH   8  23
ATOM     23  O   UNL     1      32.981 -26.023 -13.882  0.00  0.00    -0.384 OA
ATOM     24  H   UNL     1      32.206 -26.220 -14.431  0.00  0.00    +0.210 HD
ENDBRANCH   8  23
BRANCH   6  26
ATOM     25  O   UNL     1      37.454 -24.766 -11.734  0.00  0.00    -0.247 OA
ATOM     26  C   UNL     1      37.715 -24.265 -12.820  0.00  0.00    +0.342 C 
BRANCH  26  27
ATOM     27  O   UNL     1      38.890 -24.378 -13.501  0.00  0.00    -0.429 OA
BRANCH  27  29
ATOM     28 CL   UNL     1      40.515 -25.740 -15.026  0.00  0.00    -0.063 Cl
ATOM     29  C   UNL     1      39.379 -25.713 -13.665  0.00  0.00    +0.304 C 
ENDBRANCH  27  29
ENDBRANCH  26  27
ENDBRANCH   6  26
TORSDOF 5
ENDMDL
