MODEL 1
REMARK VINA RESULT:      -9.9      0.000      0.000
REMARK  Name = 446515
REMARK  7 active torsions:
REMARK  status: ('A' for Active; 'I' for Inactive)
REMARK    1  A    between atoms: N_3  and  C_20
REMARK    2  A    between atoms: C_5  and  C_10
REMARK    3  A    between atoms: C_6  and  C_13
REMARK    4  A    between atoms: C_13  and  C_14
REMARK    5  A    between atoms: C_20  and  O_21
REMARK    6  A    between atoms: O_21  and  C_22
REMARK    7  A    between atoms: C_22  and  C_23
REMARK                            x       y       z     vdW  Elec       q    Type
REMARK                         _______ _______ _______ _____ _____    ______ ____
ROOT
ATOM      1  O   UNL     1      37.513 -25.806 -11.955  0.00  0.00    -0.267 OA
ATOM      2  O   UNL     1      36.249 -26.894 -16.208  0.00  0.00    -0.246 OA
ATOM      3  N   UNL     1      35.258 -25.023 -15.218  0.00  0.00    -0.259 N 
ATOM      4  N   UNL     1      36.874 -26.319 -14.094  0.00  0.00    -0.275 N 
ATOM      5  C   UNL     1      35.909 -24.385 -12.993  0.00  0.00    +0.046 A 
ATOM      6  C   UNL     1      35.156 -24.182 -14.098  0.00  0.00    +0.048 A 
ATOM      7  C   UNL     1      36.838 -25.552 -12.949  0.00  0.00    +0.258 A 
ATOM      8  C   UNL     1      36.127 -26.126 -15.250  0.00  0.00    +0.332 A 
ATOM      9  H   UNL     1      37.493 -27.084 -14.092  0.00  0.00    +0.173 HD
ENDROOT
BRANCH   5  10
ATOM     10  C   UNL     1      35.928 -23.515 -11.766  0.00  0.00    +0.028 C 
ATOM     11  C   UNL     1      35.600 -24.345 -10.531  0.00  0.00    +0.005 C 
ATOM     12  C   UNL     1      37.280 -22.824 -11.620  0.00  0.00    +0.005 C 
ENDBRANCH   5  10
BRANCH   6  13
ATOM     13  C   UNL     1      34.154 -23.051 -14.180  0.00  0.00    +0.070 C 
BRANCH  13  14
ATOM     14  C   UNL     1      32.743 -23.553 -14.168  0.00  0.00    -0.016 C 
ATOM     15  C   UNL     1      32.435 -24.734 -13.499  0.00  0.00    -0.004 C 
ATOM     16  C   UNL     1      31.748 -22.835 -14.826  0.00  0.00    -0.004 C 
ATOM     17  C   UNL     1      31.119 -25.201 -13.488  0.00  0.00    -0.000 C 
ATOM     18  C   UNL     1      30.434 -23.302 -14.814  0.00  0.00    -0.000 C 
ATOM     19  C   UNL     1      30.120 -24.485 -14.146  0.00  0.00    -0.000 C 
ENDBRANCH  13  14
ENDBRANCH   6  13
BRANCH   3  20
ATOM     20  C   UNL     1      34.431 -24.739 -16.393  0.00  0.00    +0.259 C 
BRANCH  20  21
ATOM     21  O   UNL     1      34.879 -23.526 -16.980  0.00  0.00    -0.327 OA
BRANCH  21  22
ATOM     22  C   UNL     1      33.876 -22.944 -17.802  0.00  0.00    +0.171 C 
BRANCH  22  23
ATOM     23  C   UNL     1      34.523 -21.988 -18.760  0.00  0.00    +0.007 C 
ATOM     24  C   UNL     1      35.907 -21.855 -18.773  0.00  0.00    -0.002 C 
ATOM     25  C   UNL     1      33.732 -21.242 -19.627  0.00  0.00    -0.002 C 
ATOM     26  C   UNL     1      36.508 -20.967 -19.665  0.00  0.00    -0.000 C 
ATOM     27  C   UNL     1      34.333 -20.353 -20.518  0.00  0.00    -0.000 C 
ATOM     28  C   UNL     1      35.720 -20.216 -20.537  0.00  0.00    -0.000 C 
ENDBRANCH  22  23
ENDBRANCH  21  22
ENDBRANCH  20  21
ENDBRANCH   3  20
TORSDOF 7
ENDMDL
MODEL 2
REMARK VINA RESULT:      -9.8      2.593      4.686
REMARK  Name = 446515
REMARK  7 active torsions:
REMARK  status: ('A' for Active; 'I' for Inactive)
REMARK    1  A    between atoms: N_3  and  C_20
REMARK    2  A    between atoms: C_5  and  C_10
REMARK    3  A    between atoms: C_6  and  C_13
REMARK    4  A    between atoms: C_13  and  C_14
REMARK    5  A    between atoms: C_20  and  O_21
REMARK    6  A    between atoms: O_21  and  C_22
REMARK    7  A    between atoms: C_22  and  C_23
REMARK                            x       y       z     vdW  Elec       q    Type
REMARK                         _______ _______ _______ _____ _____    ______ ____
ROOT
ATOM      1  O   UNL     1      30.806 -23.747 -15.890  0.00  0.00    -0.267 OA
ATOM      2  O   UNL     1      33.635 -22.868 -19.368  0.00  0.00    -0.246 OA
ATOM      3  N   UNL     1      34.524 -22.861 -17.206  0.00  0.00    -0.259 N 
ATOM      4  N   UNL     1      32.250 -23.320 -17.617  0.00  0.00    -0.275 N 
ATOM      5  C   UNL     1      33.089 -23.349 -15.340  0.00  0.00    +0.046 A 
ATOM      6  C   UNL     1      34.307 -23.024 -15.829  0.00  0.00    +0.048 A 
ATOM      7  C   UNL     1      31.942 -23.495 -16.284  0.00  0.00    +0.258 A 
ATOM      8  C   UNL     1      33.494 -23.005 -18.150  0.00  0.00    +0.332 A 
ATOM      9  H   UNL     1      31.511 -23.430 -18.257  0.00  0.00    +0.173 HD
ENDROOT
BRANCH   5  10
ATOM     10  C   UNL     1      32.757 -23.609 -13.897  0.00  0.00    +0.028 C 
ATOM     11  C   UNL     1      31.542 -22.787 -13.483  0.00  0.00    +0.005 C 
ATOM     12  C   UNL     1      32.519 -25.097 -13.662  0.00  0.00    +0.005 C 
ENDBRANCH   5  10
BRANCH   6  13
ATOM     13  C   UNL     1      35.495 -22.805 -14.918  0.00  0.00    +0.070 C 
BRANCH  13  14
ATOM     14  C   UNL     1      36.044 -24.095 -14.394  0.00  0.00    -0.016 C 
ATOM     15  C   UNL     1      36.240 -25.166 -15.262  0.00  0.00    -0.004 C 
ATOM     16  C   UNL     1      36.356 -24.217 -13.043  0.00  0.00    -0.004 C 
ATOM     17  C   UNL     1      36.752 -26.370 -14.774  0.00  0.00    -0.000 C 
ATOM     18  C   UNL     1      36.868 -25.420 -12.555  0.00  0.00    -0.000 C 
ATOM     19  C   UNL     1      37.065 -26.496 -13.421  0.00  0.00    -0.000 C 
ENDBRANCH  13  14
ENDBRANCH   6  13
BRANCH   3  20
ATOM     20  C   UNL     1      35.872 -22.531 -17.675  0.00  0.00    +0.259 C 
BRANCH  20  21
ATOM     21  O   UNL     1      35.847 -21.232 -18.248  0.00  0.00    -0.327 OA
BRANCH  21  22
ATOM     22  C   UNL     1      36.537 -21.197 -19.490  0.00  0.00    +0.171 C 
BRANCH  22  23
ATOM     23  C   UNL     1      35.896 -20.171 -20.378  0.00  0.00    +0.007 C 
ATOM     24  C   UNL     1      34.520 -20.193 -20.573  0.00  0.00    -0.002 C 
ATOM     25  C   UNL     1      36.685 -19.209 -20.998  0.00  0.00    -0.002 C 
ATOM     26  C   UNL     1      33.924 -19.240 -21.399  0.00  0.00    -0.000 C 
ATOM     27  C   UNL     1      36.089 -18.255 -21.824  0.00  0.00    -0.000 C 
ATOM     28  C   UNL     1      34.709 -18.271 -22.024  0.00  0.00    -0.000 C 
ENDBRANCH  22  23
ENDBRANCH  21  22
ENDBRANCH  20  21
ENDBRANCH   3  20
TORSDOF 7
ENDMDL
MODEL 3
REMARK VINA RESULT:      -9.3      1.908      2.821
REMARK  Name = 446515
REMARK  7 active torsions:
REMARK  status: ('A' for Active; 'I' for Inactive)
REMARK    1  A    between atoms: N_3  and  C_20
REMARK    2  A    between atoms: C_5  and  C_10
REMARK    3  A    between atoms: C_6  and  C_13
REMARK    4  A    between atoms: C_13  and  C_14
REMARK    5  A    between atoms: C_20  and  O_21
REMARK    6  A    between atoms: O_21  and  C_22
REMARK    7  A    between atoms: C_22  and  C_23
REMARK                            x       y       z     vdW  Elec       q    Type
REMARK                         _______ _______ _______ _____ _____    ______ ____
ROOT
ATOM      1  O   UNL     1      38.417 -23.891 -13.838  0.00  0.00    -0.267 OA
ATOM      2  O   UNL     1      37.064 -21.034 -17.136  0.00  0.00    -0.246 OA
ATOM      3  N   UNL     1      35.630 -22.783 -16.549  0.00  0.00    -0.259 N 
ATOM      4  N   UNL     1      37.707 -22.463 -15.483  0.00  0.00    -0.275 N 
ATOM      5  C   UNL     1      36.275 -24.298 -14.798  0.00  0.00    +0.046 A 
ATOM      6  C   UNL     1      35.388 -23.903 -15.739  0.00  0.00    +0.048 A 
ATOM      7  C   UNL     1      37.557 -23.550 -14.648  0.00  0.00    +0.258 A 
ATOM      8  C   UNL     1      36.806 -22.022 -16.445  0.00  0.00    +0.332 A 
ATOM      9  H   UNL     1      38.538 -21.945 -15.388  0.00  0.00    +0.173 HD
ENDROOT
BRANCH   5  10
ATOM     10  C   UNL     1      36.093 -25.439 -13.835  0.00  0.00    +0.028 C 
ATOM     11  C   UNL     1      37.159 -26.501 -14.075  0.00  0.00    +0.005 C 
ATOM     12  C   UNL     1      36.131 -24.937 -12.396  0.00  0.00    +0.005 C 
ENDBRANCH   5  10
BRANCH   6  13
ATOM     13  C   UNL     1      34.097 -24.656 -15.979  0.00  0.00    +0.070 C 
BRANCH  13  14
ATOM     14  C   UNL     1      32.924 -23.966 -15.356  0.00  0.00    -0.016 C 
ATOM     15  C   UNL     1      31.877 -23.520 -16.158  0.00  0.00    -0.004 C 
ATOM     16  C   UNL     1      32.886 -23.773 -13.977  0.00  0.00    -0.004 C 
ATOM     17  C   UNL     1      30.783 -22.877 -15.577  0.00  0.00    -0.000 C 
ATOM     18  C   UNL     1      31.792 -23.131 -13.397  0.00  0.00    -0.000 C 
ATOM     19  C   UNL     1      30.741 -22.682 -14.197  0.00  0.00    -0.000 C 
ENDBRANCH  13  14
ENDBRANCH   6  13
BRANCH   3  20
ATOM     20  C   UNL     1      34.620 -22.393 -17.536  0.00  0.00    +0.259 C 
BRANCH  20  21
ATOM     21  O   UNL     1      35.214 -22.414 -18.825  0.00  0.00    -0.327 OA
BRANCH  21  22
ATOM     22  C   UNL     1      34.296 -22.001 -19.829  0.00  0.00    +0.171 C 
BRANCH  22  23
ATOM     23  C   UNL     1      34.728 -20.671 -20.371  0.00  0.00    +0.007 C 
ATOM     24  C   UNL     1      36.080 -20.349 -20.412  0.00  0.00    -0.002 C 
ATOM     25  C   UNL     1      33.771 -19.771 -20.827  0.00  0.00    -0.002 C 
ATOM     26  C   UNL     1      36.481 -19.112 -20.916  0.00  0.00    -0.000 C 
ATOM     27  C   UNL     1      34.172 -18.534 -21.331  0.00  0.00    -0.000 C 
ATOM     28  C   UNL     1      35.527 -18.204 -21.375  0.00  0.00    -0.000 C 
ENDBRANCH  22  23
ENDBRANCH  21  22
ENDBRANCH  20  21
ENDBRANCH   3  20
TORSDOF 7
ENDMDL
MODEL 4
REMARK VINA RESULT:      -9.2     11.495     15.737
REMARK  Name = 446515
REMARK  7 active torsions:
REMARK  status: ('A' for Active; 'I' for Inactive)
REMARK    1  A    between atoms: N_3  and  C_20
REMARK    2  A    between atoms: C_5  and  C_10
REMARK    3  A    between atoms: C_6  and  C_13
REMARK    4  A    between atoms: C_13  and  C_14
REMARK    5  A    between atoms: C_20  and  O_21
REMARK    6  A    between atoms: O_21  and  C_22
REMARK    7  A    between atoms: C_22  and  C_23
REMARK                            x       y       z     vdW  Elec       q    Type
REMARK                         _______ _______ _______ _____ _____    ______ ____
ROOT
ATOM      1  O   UNL     1      34.554  -6.573 -23.927  0.00  0.00    -0.267 OA
ATOM      2  O   UNL     1      35.454 -10.824 -25.337  0.00  0.00    -0.246 OA
ATOM      3  N   UNL     1      33.438 -10.448 -24.218  0.00  0.00    -0.259 N 
ATOM      4  N   UNL     1      34.972  -8.710 -24.638  0.00  0.00    -0.275 N 
ATOM      5  C   UNL     1      32.896  -8.224 -23.481  0.00  0.00    +0.046 A 
ATOM      6  C   UNL     1      32.582  -9.536 -23.580  0.00  0.00    +0.048 A 
ATOM      7  C   UNL     1      34.200  -7.746 -24.027  0.00  0.00    +0.258 A 
ATOM      8  C   UNL     1      34.669 -10.060 -24.771  0.00  0.00    +0.332 A 
ATOM      9  H   UNL     1      35.829  -8.412 -25.020  0.00  0.00    +0.173 HD
ENDROOT
BRANCH   5  10
ATOM     10  C   UNL     1      32.031  -7.152 -22.878  0.00  0.00    +0.028 C 
ATOM     11  C   UNL     1      32.730  -6.531 -21.675  0.00  0.00    +0.005 C 
ATOM     12  C   UNL     1      31.686  -6.093 -23.920  0.00  0.00    +0.005 C 
ENDBRANCH   5  10
BRANCH   6  13
ATOM     13  C   UNL     1      31.302 -10.092 -22.994  0.00  0.00    +0.070 C 
BRANCH  13  14
ATOM     14  C   UNL     1      31.472 -10.496 -21.562  0.00  0.00    -0.016 C 
ATOM     15  C   UNL     1      31.527  -9.522 -20.570  0.00  0.00    -0.004 C 
ATOM     16  C   UNL     1      31.574 -11.845 -21.231  0.00  0.00    -0.004 C 
ATOM     17  C   UNL     1      31.685  -9.898 -19.236  0.00  0.00    -0.000 C 
ATOM     18  C   UNL     1      31.731 -12.222 -19.898  0.00  0.00    -0.000 C 
ATOM     19  C   UNL     1      31.787 -11.248 -18.900  0.00  0.00    -0.000 C 
ENDBRANCH  13  14
ENDBRANCH   6  13
BRANCH   3  20
ATOM     20  C   UNL     1      33.031 -11.852 -24.311  0.00  0.00    +0.259 C 
BRANCH  20  21
ATOM     21  O   UNL     1      33.914 -12.633 -23.519  0.00  0.00    -0.327 OA
BRANCH  21  22
ATOM     22  C   UNL     1      34.082 -13.937 -24.059  0.00  0.00    +0.171 C 
BRANCH  22  23
ATOM     23  C   UNL     1      34.380 -14.895 -22.943  0.00  0.00    +0.007 C 
ATOM     24  C   UNL     1      34.143 -14.514 -21.627  0.00  0.00    -0.002 C 
ATOM     25  C   UNL     1      34.891 -16.154 -23.235  0.00  0.00    -0.002 C 
ATOM     26  C   UNL     1      34.420 -15.405 -20.589  0.00  0.00    -0.000 C 
ATOM     27  C   UNL     1      35.168 -17.045 -22.198  0.00  0.00    -0.000 C 
ATOM     28  C   UNL     1      34.932 -16.670 -20.875  0.00  0.00    -0.000 C 
ENDBRANCH  22  23
ENDBRANCH  21  22
ENDBRANCH  20  21
ENDBRANCH   3  20
TORSDOF 7
ENDMDL
MODEL 5
REMARK VINA RESULT:      -8.9     11.332     15.893
REMARK  Name = 446515
REMARK  7 active torsions:
REMARK  status: ('A' for Active; 'I' for Inactive)
REMARK    1  A    between atoms: N_3  and  C_20
REMARK    2  A    between atoms: C_5  and  C_10
REMARK    3  A    between atoms: C_6  and  C_13
REMARK    4  A    between atoms: C_13  and  C_14
REMARK    5  A    between atoms: C_20  and  O_21
REMARK    6  A    between atoms: O_21  and  C_22
REMARK    7  A    between atoms: C_22  and  C_23
REMARK                            x       y       z     vdW  Elec       q    Type
REMARK                         _______ _______ _______ _____ _____    ______ ____
ROOT
ATOM      1  O   UNL     1      32.692  -6.670 -19.437  0.00  0.00    -0.267 OA
ATOM      2  O   UNL     1      31.741 -11.102 -18.868  0.00  0.00    -0.246 OA
ATOM      3  N   UNL     1      31.718 -10.250 -21.044  0.00  0.00    -0.259 N 
ATOM      4  N   UNL     1      32.228  -8.899 -19.182  0.00  0.00    -0.275 N 
ATOM      5  C   UNL     1      32.242  -7.932 -21.407  0.00  0.00    +0.046 A 
ATOM      6  C   UNL     1      31.889  -9.144 -21.891  0.00  0.00    +0.048 A 
ATOM      7  C   UNL     1      32.413  -7.759 -19.935  0.00  0.00    +0.258 A 
ATOM      8  C   UNL     1      31.884 -10.161 -19.652  0.00  0.00    +0.332 A 
ATOM      9  H   UNL     1      32.353  -8.810 -18.210  0.00  0.00    +0.173 HD
ENDROOT
BRANCH   5  10
ATOM     10  C   UNL     1      32.513  -6.699 -22.224  0.00  0.00    +0.028 C 
ATOM     11  C   UNL     1      33.841  -6.840 -22.960  0.00  0.00    +0.005 C 
ATOM     12  C   UNL     1      31.370  -6.441 -23.200  0.00  0.00    +0.005 C 
ENDBRANCH   5  10
BRANCH   6  13
ATOM     13  C   UNL     1      31.644  -9.368 -23.368  0.00  0.00    +0.070 C 
BRANCH  13  14
ATOM     14  C   UNL     1      32.860  -9.899 -24.062  0.00  0.00    -0.016 C 
ATOM     15  C   UNL     1      32.789 -11.100 -24.761  0.00  0.00    -0.004 C 
ATOM     16  C   UNL     1      34.056  -9.186 -24.004  0.00  0.00    -0.004 C 
ATOM     17  C   UNL     1      33.923 -11.594 -25.408  0.00  0.00    -0.000 C 
ATOM     18  C   UNL     1      35.188  -9.680 -24.651  0.00  0.00    -0.000 C 
ATOM     19  C   UNL     1      35.122 -10.884 -25.352  0.00  0.00    -0.000 C 
ENDBRANCH  13  14
ENDBRANCH   6  13
BRANCH   3  20
ATOM     20  C   UNL     1      31.356 -11.541 -21.632  0.00  0.00    +0.259 C 
BRANCH  20  21
ATOM     21  O   UNL     1      32.517 -12.357 -21.685  0.00  0.00    -0.327 OA
BRANCH  21  22
ATOM     22  C   UNL     1      32.288 -13.629 -21.093  0.00  0.00    +0.171 C 
BRANCH  22  23
ATOM     23  C   UNL     1      33.280 -14.611 -21.642  0.00  0.00    +0.007 C 
ATOM     24  C   UNL     1      33.727 -14.479 -22.952  0.00  0.00    -0.002 C 
ATOM     25  C   UNL     1      33.743 -15.645 -20.836  0.00  0.00    -0.002 C 
ATOM     26  C   UNL     1      34.649 -15.393 -23.463  0.00  0.00    -0.000 C 
ATOM     27  C   UNL     1      34.665 -16.559 -21.347  0.00  0.00    -0.000 C 
ATOM     28  C   UNL     1      35.118 -16.432 -22.660  0.00  0.00    -0.000 C 
ENDBRANCH  22  23
ENDBRANCH  21  22
ENDBRANCH  20  21
ENDBRANCH   3  20
TORSDOF 7
ENDMDL
MODEL 6
REMARK VINA RESULT:      -8.7      2.648      6.026
REMARK  Name = 446515
REMARK  7 active torsions:
REMARK  status: ('A' for Active; 'I' for Inactive)
REMARK    1  A    between atoms: N_3  and  C_20
REMARK    2  A    between atoms: C_5  and  C_10
REMARK    3  A    between atoms: C_6  and  C_13
REMARK    4  A    between atoms: C_13  and  C_14
REMARK    5  A    between atoms: C_20  and  O_21
REMARK    6  A    between atoms: O_21  and  C_22
REMARK    7  A    between atoms: C_22  and  C_23
REMARK                            x       y       z     vdW  Elec       q    Type
REMARK                         _______ _______ _______ _____ _____    ______ ____
ROOT
ATOM      1  O   UNL     1      36.037 -21.951 -18.564  0.00  0.00    -0.267 OA
ATOM      2  O   UNL     1      32.039 -23.682 -17.188  0.00  0.00    -0.246 OA
ATOM      3  N   UNL     1      33.743 -23.474 -15.602  0.00  0.00    -0.259 N 
ATOM      4  N   UNL     1      34.037 -22.806 -17.843  0.00  0.00    -0.275 N 
ATOM      5  C   UNL     1      35.858 -22.540 -16.262  0.00  0.00    +0.046 A 
ATOM      6  C   UNL     1      35.060 -23.080 -15.314  0.00  0.00    +0.048 A 
ATOM      7  C   UNL     1      35.340 -22.397 -17.654  0.00  0.00    +0.258 A 
ATOM      8  C   UNL     1      33.187 -23.348 -16.886  0.00  0.00    +0.332 A 
ATOM      9  H   UNL     1      33.671 -22.704 -18.751  0.00  0.00    +0.173 HD
ENDROOT
BRANCH   5  10
ATOM     10  C   UNL     1      37.256 -22.027 -16.052  0.00  0.00    +0.028 C 
ATOM     11  C   UNL     1      38.269 -23.116 -16.384  0.00  0.00    +0.005 C 
ATOM     12  C   UNL     1      37.500 -20.777 -16.891  0.00  0.00    +0.005 C 
ENDBRANCH   5  10
BRANCH   6  13
ATOM     13  C   UNL     1      35.547 -23.305 -13.899  0.00  0.00    +0.070 C 
BRANCH  13  14
ATOM     14  C   UNL     1      36.584 -24.383 -13.830  0.00  0.00    -0.016 C 
ATOM     15  C   UNL     1      37.710 -24.210 -13.030  0.00  0.00    -0.004 C 
ATOM     16  C   UNL     1      36.416 -25.554 -14.566  0.00  0.00    -0.004 C 
ATOM     17  C   UNL     1      38.676 -25.215 -12.965  0.00  0.00    -0.000 C 
ATOM     18  C   UNL     1      37.381 -26.558 -14.500  0.00  0.00    -0.000 C 
ATOM     19  C   UNL     1      38.511 -26.388 -13.701  0.00  0.00    -0.000 C 
ENDBRANCH  13  14
ENDBRANCH   6  13
BRANCH   3  20
ATOM     20  C   UNL     1      32.922 -24.033 -14.527  0.00  0.00    +0.259 C 
BRANCH  20  21
ATOM     21  O   UNL     1      32.087 -23.006 -14.012  0.00  0.00    -0.327 OA
BRANCH  21  22
ATOM     22  C   UNL     1      30.838 -23.521 -13.573  0.00  0.00    +0.171 C 
BRANCH  22  23
ATOM     23  C   UNL     1      29.884 -23.548 -14.731  0.00  0.00    +0.007 C 
ATOM     24  C   UNL     1      29.488 -24.768 -15.268  0.00  0.00    -0.002 C 
ATOM     25  C   UNL     1      29.406 -22.354 -15.256  0.00  0.00    -0.002 C 
ATOM     26  C   UNL     1      28.601 -24.793 -16.344  0.00  0.00    -0.000 C 
ATOM     27  C   UNL     1      28.519 -22.379 -16.333  0.00  0.00    -0.000 C 
ATOM     28  C   UNL     1      28.116 -23.599 -16.876  0.00  0.00    -0.000 C 
ENDBRANCH  22  23
ENDBRANCH  21  22
ENDBRANCH  20  21
ENDBRANCH   3  20
TORSDOF 7
ENDMDL
MODEL 7
REMARK VINA RESULT:      -8.7      8.599     13.620
REMARK  Name = 446515
REMARK  7 active torsions:
REMARK  status: ('A' for Active; 'I' for Inactive)
REMARK    1  A    between atoms: N_3  and  C_20
REMARK    2  A    between atoms: C_5  and  C_10
REMARK    3  A    between atoms: C_6  and  C_13
REMARK    4  A    between atoms: C_13  and  C_14
REMARK    5  A    between atoms: C_20  and  O_21
REMARK    6  A    between atoms: O_21  and  C_22
REMARK    7  A    between atoms: C_22  and  C_23
REMARK                            x       y       z     vdW  Elec       q    Type
REMARK                         _______ _______ _______ _____ _____    ______ ____
ROOT
ATOM      1  O   UNL     1      31.913 -12.289 -19.723  0.00  0.00    -0.267 OA
ATOM      2  O   UNL     1      34.868 -15.580 -20.868  0.00  0.00    -0.246 OA
ATOM      3  N   UNL     1      33.866 -14.362 -22.592  0.00  0.00    -0.259 N 
ATOM      4  N   UNL     1      33.403 -13.921 -20.324  0.00  0.00    -0.275 N 
ATOM      5  C   UNL     1      32.327 -12.596 -22.048  0.00  0.00    +0.046 A 
ATOM      6  C   UNL     1      32.983 -13.338 -22.970  0.00  0.00    +0.048 A 
ATOM      7  C   UNL     1      32.516 -12.903 -20.600  0.00  0.00    +0.258 A 
ATOM      8  C   UNL     1      34.105 -14.688 -21.247  0.00  0.00    +0.332 A 
ATOM      9  H   UNL     1      33.555 -14.127 -19.374  0.00  0.00    +0.173 HD
ENDROOT
BRANCH   5  10
ATOM     10  C   UNL     1      31.411 -11.439 -22.336  0.00  0.00    +0.028 C 
ATOM     11  C   UNL     1      30.236 -11.449 -21.366  0.00  0.00    +0.005 C 
ATOM     12  C   UNL     1      32.174 -10.120 -22.260  0.00  0.00    +0.005 C 
ENDBRANCH   5  10
BRANCH   6  13
ATOM     13  C   UNL     1      32.788 -13.114 -24.454  0.00  0.00    +0.070 C 
BRANCH  13  14
ATOM     14  C   UNL     1      33.764 -12.120 -25.002  0.00  0.00    -0.016 C 
ATOM     15  C   UNL     1      34.151 -12.194 -26.337  0.00  0.00    -0.004 C 
ATOM     16  C   UNL     1      34.279 -11.126 -24.173  0.00  0.00    -0.004 C 
ATOM     17  C   UNL     1      35.060 -11.267 -26.848  0.00  0.00    -0.000 C 
ATOM     18  C   UNL     1      35.187 -10.200 -24.684  0.00  0.00    -0.000 C 
ATOM     19  C   UNL     1      35.579 -10.270 -26.021  0.00  0.00    -0.000 C 
ENDBRANCH  13  14
ENDBRANCH   6  13
BRANCH   3  20
ATOM     20  C   UNL     1      34.563 -15.115 -23.637  0.00  0.00    +0.259 C 
BRANCH  20  21
ATOM     21  O   UNL     1      33.928 -16.376 -23.788  0.00  0.00    -0.327 OA
BRANCH  21  22
ATOM     22  C   UNL     1      34.864 -17.397 -24.102  0.00  0.00    +0.171 C 
BRANCH  22  23
ATOM     23  C   UNL     1      35.096 -18.242 -22.884  0.00  0.00    +0.007 C 
ATOM     24  C   UNL     1      34.053 -18.999 -22.362  0.00  0.00    -0.002 C 
ATOM     25  C   UNL     1      36.351 -18.260 -22.288  0.00  0.00    -0.002 C 
ATOM     26  C   UNL     1      34.268 -19.784 -21.229  0.00  0.00    -0.000 C 
ATOM     27  C   UNL     1      36.567 -19.045 -21.155  0.00  0.00    -0.000 C 
ATOM     28  C   UNL     1      35.526 -19.807 -20.626  0.00  0.00    -0.000 C 
ENDBRANCH  22  23
ENDBRANCH  21  22
ENDBRANCH  20  21
ENDBRANCH   3  20
TORSDOF 7
ENDMDL
MODEL 8
REMARK VINA RESULT:      -8.6     11.402     15.184
REMARK  Name = 446515
REMARK  7 active torsions:
REMARK  status: ('A' for Active; 'I' for Inactive)
REMARK    1  A    between atoms: N_3  and  C_20
REMARK    2  A    between atoms: C_5  and  C_10
REMARK    3  A    between atoms: C_6  and  C_13
REMARK    4  A    between atoms: C_13  and  C_14
REMARK    5  A    between atoms: C_20  and  O_21
REMARK    6  A    between atoms: O_21  and  C_22
REMARK    7  A    between atoms: C_22  and  C_23
REMARK                            x       y       z     vdW  Elec       q    Type
REMARK                         _______ _______ _______ _____ _____    ______ ____
ROOT
ATOM      1  O   UNL     1      34.810 -16.692 -22.808  0.00  0.00    -0.267 OA
ATOM      2  O   UNL     1      32.460 -13.893 -20.067  0.00  0.00    -0.246 OA
ATOM      3  N   UNL     1      32.485 -13.415 -22.354  0.00  0.00    -0.259 N 
ATOM      4  N   UNL     1      33.610 -15.282 -21.458  0.00  0.00    -0.275 N 
ATOM      5  C   UNL     1      33.679 -14.872 -23.849  0.00  0.00    +0.046 A 
ATOM      6  C   UNL     1      32.923 -13.770 -23.640  0.00  0.00    +0.048 A 
ATOM      7  C   UNL     1      34.089 -15.705 -22.680  0.00  0.00    +0.258 A 
ATOM      8  C   UNL     1      32.818 -14.166 -21.215  0.00  0.00    +0.332 A 
ATOM      9  H   UNL     1      33.855 -15.828 -20.677  0.00  0.00    +0.173 HD
ENDROOT
BRANCH   5  10
ATOM     10  C   UNL     1      34.149 -15.380 -25.184  0.00  0.00    +0.028 C 
ATOM     11  C   UNL     1      34.754 -16.771 -25.031  0.00  0.00    +0.005 C 
ATOM     12  C   UNL     1      33.002 -15.388 -26.189  0.00  0.00    +0.005 C 
ENDBRANCH   5  10
BRANCH   6  13
ATOM     13  C   UNL     1      32.525 -12.854 -24.776  0.00  0.00    +0.070 C 
BRANCH  13  14
ATOM     14  C   UNL     1      33.625 -11.907 -25.143  0.00  0.00    -0.016 C 
ATOM     15  C   UNL     1      34.037 -10.940 -24.231  0.00  0.00    -0.004 C 
ATOM     16  C   UNL     1      34.229 -11.999 -26.394  0.00  0.00    -0.004 C 
ATOM     17  C   UNL     1      35.063 -10.057 -24.572  0.00  0.00    -0.000 C 
ATOM     18  C   UNL     1      35.255 -11.117 -26.735  0.00  0.00    -0.000 C 
ATOM     19  C   UNL     1      35.671 -10.145 -25.824  0.00  0.00    -0.000 C 
ENDBRANCH  13  14
ENDBRANCH   6  13
BRANCH   3  20
ATOM     20  C   UNL     1      31.651 -12.222 -22.196  0.00  0.00    +0.259 C 
BRANCH  20  21
ATOM     21  O   UNL     1      32.397 -11.237 -21.496  0.00  0.00    -0.327 OA
BRANCH  21  22
ATOM     22  C   UNL     1      31.600 -10.103 -21.184  0.00  0.00    +0.171 C 
BRANCH  22  23
ATOM     23  C   UNL     1      31.952  -8.984 -22.120  0.00  0.00    +0.007 C 
ATOM     24  C   UNL     1      31.148  -8.733 -23.226  0.00  0.00    -0.002 C 
ATOM     25  C   UNL     1      33.078  -8.209 -21.871  0.00  0.00    -0.002 C 
ATOM     26  C   UNL     1      31.476  -7.693 -24.096  0.00  0.00    -0.000 C 
ATOM     27  C   UNL     1      33.406  -7.168 -22.741  0.00  0.00    -0.000 C 
ATOM     28  C   UNL     1      32.605  -6.910 -23.853  0.00  0.00    -0.000 C 
ENDBRANCH  22  23
ENDBRANCH  21  22
ENDBRANCH  20  21
ENDBRANCH   3  20
TORSDOF 7
ENDMDL
MODEL 9
REMARK VINA RESULT:      -8.6      2.068      4.471
REMARK  Name = 446515
REMARK  7 active torsions:
REMARK  status: ('A' for Active; 'I' for Inactive)
REMARK    1  A    between atoms: N_3  and  C_20
REMARK    2  A    between atoms: C_5  and  C_10
REMARK    3  A    between atoms: C_6  and  C_13
REMARK    4  A    between atoms: C_13  and  C_14
REMARK    5  A    between atoms: C_20  and  O_21
REMARK    6  A    between atoms: O_21  and  C_22
REMARK    7  A    between atoms: C_22  and  C_23
REMARK                            x       y       z     vdW  Elec       q    Type
REMARK                         _______ _______ _______ _____ _____    ______ ____
ROOT
ATOM      1  O   UNL     1      34.921 -23.893 -11.118  0.00  0.00    -0.267 OA
ATOM      2  O   UNL     1      32.286 -24.121 -14.842  0.00  0.00    -0.246 OA
ATOM      3  N   UNL     1      34.594 -23.917 -15.147  0.00  0.00    -0.259 N 
ATOM      4  N   UNL     1      33.625 -24.022 -13.002  0.00  0.00    -0.275 N 
ATOM      5  C   UNL     1      36.033 -23.825 -13.223  0.00  0.00    +0.046 A 
ATOM      6  C   UNL     1      35.867 -23.809 -14.565  0.00  0.00    +0.048 A 
ATOM      7  C   UNL     1      34.831 -23.917 -12.343  0.00  0.00    +0.258 A 
ATOM      8  C   UNL     1      33.424 -24.027 -14.377  0.00  0.00    +0.332 A 
ATOM      9  H   UNL     1      32.821 -24.101 -12.439  0.00  0.00    +0.173 HD
ENDROOT
BRANCH   5  10
ATOM     10  C   UNL     1      37.348 -23.780 -12.495  0.00  0.00    +0.028 C 
ATOM     11  C   UNL     1      37.413 -22.543 -11.608  0.00  0.00    +0.005 C 
ATOM     12  C   UNL     1      37.552 -25.052 -11.679  0.00  0.00    +0.005 C 
ENDBRANCH   5  10
BRANCH   6  13
ATOM     13  C   UNL     1      37.040 -23.659 -15.509  0.00  0.00    +0.070 C 
BRANCH  13  14
ATOM     14  C   UNL     1      38.130 -24.640 -15.206  0.00  0.00    -0.016 C 
ATOM     15  C   UNL     1      39.449 -24.204 -15.118  0.00  0.00    -0.004 C 
ATOM     16  C   UNL     1      37.818 -25.984 -15.012  0.00  0.00    -0.004 C 
ATOM     17  C   UNL     1      40.465 -25.119 -14.836  0.00  0.00    -0.000 C 
ATOM     18  C   UNL     1      38.833 -26.897 -14.729  0.00  0.00    -0.000 C 
ATOM     19  C   UNL     1      40.156 -26.465 -14.641  0.00  0.00    -0.000 C 
ENDBRANCH  13  14
ENDBRANCH   6  13
BRANCH   3  20
ATOM     20  C   UNL     1      34.482 -23.916 -16.607  0.00  0.00    +0.259 C 
BRANCH  20  21
ATOM     21  O   UNL     1      34.069 -22.624 -17.030  0.00  0.00    -0.327 OA
BRANCH  21  22
ATOM     22  C   UNL     1      33.358 -22.680 -18.259  0.00  0.00    +0.171 C 
BRANCH  22  23
ATOM     23  C   UNL     1      33.938 -21.671 -19.206  0.00  0.00    +0.007 C 
ATOM     24  C   UNL     1      33.096 -20.784 -19.868  0.00  0.00    -0.002 C 
ATOM     25  C   UNL     1      35.312 -21.633 -19.414  0.00  0.00    -0.002 C 
ATOM     26  C   UNL     1      33.635 -19.847 -20.749  0.00  0.00    -0.000 C 
ATOM     27  C   UNL     1      35.851 -20.696 -20.295  0.00  0.00    -0.000 C 
ATOM     28  C   UNL     1      35.013 -19.802 -20.962  0.00  0.00    -0.000 C 
ENDBRANCH  22  23
ENDBRANCH  21  22
ENDBRANCH  20  21
ENDBRANCH   3  20
TORSDOF 7
ENDMDL
