MODEL 1
REMARK VINA RESULT:      -9.7      0.000      0.000
REMARK  Name = 10127622
REMARK  7 active torsions:
REMARK  status: ('A' for Active; 'I' for Inactive)
REMARK    1  A    between atoms: C_6  and  N_21
REMARK    2  A    between atoms: C_7  and  C_14
REMARK    3  A    between atoms: N_13  and  O_16
REMARK    4  A    between atoms: O_16  and  C_17
REMARK    5  A    between atoms: C_17  and  C_18
REMARK    6  A    between atoms: C_18  and  O_19
REMARK    7  A    between atoms: N_21  and  C_25
REMARK                            x       y       z     vdW  Elec       q    Type
REMARK                         _______ _______ _______ _____ _____    ______ ____
ROOT
ATOM      1  F   UNL     1      34.010 -23.530 -13.229  0.00  0.00    -0.202 F 
ATOM      2  N   UNL     1      29.823 -24.331 -14.858  0.00  0.00    -0.285 N 
ATOM      3  N   UNL     1      31.141 -24.296 -13.069  0.00  0.00    -0.245 NA
ATOM      4  C   UNL     1      31.053 -23.936 -15.317  0.00  0.00    +0.066 C 
ATOM      5  C   UNL     1      31.858 -23.922 -14.181  0.00  0.00    +0.119 C 
ATOM      6  C   UNL     1      33.695 -23.212 -15.572  0.00  0.00    +0.067 C 
ATOM      7  C   UNL     1      32.863 -23.235 -16.693  0.00  0.00    +0.140 C 
ATOM      8  C   UNL     1      31.516 -23.599 -16.589  0.00  0.00    +0.005 C 
ATOM      9  C   UNL     1      33.208 -23.553 -14.304  0.00  0.00    +0.168 C 
ATOM     10  C   UNL     1      29.926 -24.533 -13.510  0.00  0.00    +0.220 C 
ATOM     11  C   UNL     1      28.624 -24.503 -15.644  0.00  0.00    +0.114 C 
ENDROOT
BRANCH   7  14
ATOM     12  O   UNL     1      34.501 -23.240 -18.377  0.00  0.00    -0.272 OA
ATOM     13  N   UNL     1      32.546 -22.094 -18.807  0.00  0.00    -0.193 N 
ATOM     14  C   UNL     1      33.372 -22.873 -18.011  0.00  0.00    +0.254 C 
ATOM     15  H   UNL     1      31.658 -21.796 -18.504  0.00  0.00    +0.183 HD
BRANCH  13  16
ATOM     16  O   UNL     1      33.054 -21.753 -20.076  0.00  0.00    -0.264 OA
BRANCH  16  17
ATOM     17  C   UNL     1      33.058 -20.337 -20.194  0.00  0.00    +0.203 C 
BRANCH  17  18
ATOM     18  C   UNL     1      34.459 -19.872 -20.541  0.00  0.00    +0.172 C 
BRANCH  18  19
ATOM     19  O   UNL     1      35.394 -20.575 -19.731  0.00  0.00    -0.379 OA
ATOM     20  H   UNL     1      35.543 -20.083 -18.909  0.00  0.00    +0.211 HD
ENDBRANCH  18  19
ENDBRANCH  17  18
ENDBRANCH  16  17
ENDBRANCH  13  16
ENDBRANCH   7  14
BRANCH   6  21
ATOM     21  N   UNL     1      35.055 -22.837 -15.697  0.00  0.00    -0.313 N 
ATOM     22  H   UNL     1      35.184 -21.917 -16.022  0.00  0.00    +0.152 HD
BRANCH  21  25
ATOM     23 BR   UNL     1      40.202 -25.896 -14.574  0.00  0.00    -0.049 Br
ATOM     24 CL   UNL     1      37.617 -21.427 -16.542  0.00  0.00    -0.081 Cl
ATOM     25  C   UNL     1      36.255 -23.523 -15.448  0.00  0.00    +0.059 C 
ATOM     26  C   UNL     1      37.497 -22.978 -15.793  0.00  0.00    +0.072 C 
ATOM     27  C   UNL     1      36.202 -24.783 -14.843  0.00  0.00    +0.016 C 
ATOM     28  C   UNL     1      38.672 -23.683 -15.532  0.00  0.00    +0.019 C 
ATOM     29  C   UNL     1      37.377 -25.489 -14.583  0.00  0.00    +0.008 C 
ATOM     30  C   UNL     1      38.611 -24.939 -14.927  0.00  0.00    +0.035 C 
ENDBRANCH  21  25
ENDBRANCH   6  21
TORSDOF 7
ENDMDL
MODEL 2
REMARK VINA RESULT:      -8.9      3.592      6.112
REMARK  Name = 10127622
REMARK  7 active torsions:
REMARK  status: ('A' for Active; 'I' for Inactive)
REMARK    1  A    between atoms: C_6  and  N_21
REMARK    2  A    between atoms: C_7  and  C_14
REMARK    3  A    between atoms: N_13  and  O_16
REMARK    4  A    between atoms: O_16  and  C_17
REMARK    5  A    between atoms: C_17  and  C_18
REMARK    6  A    between atoms: C_18  and  O_19
REMARK    7  A    between atoms: N_21  and  C_25
REMARK                            x       y       z     vdW  Elec       q    Type
REMARK                         _______ _______ _______ _____ _____    ______ ____
ROOT
ATOM      1  F   UNL     1      37.440 -22.281 -17.452  0.00  0.00    -0.202 F 
ATOM      2  N   UNL     1      35.933 -23.379 -13.287  0.00  0.00    -0.285 N 
ATOM      3  N   UNL     1      37.678 -22.794 -14.533  0.00  0.00    -0.245 NA
ATOM      4  C   UNL     1      35.442 -23.231 -14.559  0.00  0.00    +0.066 C 
ATOM      5  C   UNL     1      36.551 -22.866 -15.318  0.00  0.00    +0.119 C 
ATOM      6  C   UNL     1      35.116 -22.778 -17.253  0.00  0.00    +0.067 C 
ATOM      7  C   UNL     1      34.023 -23.145 -16.466  0.00  0.00    +0.140 C 
ATOM      8  C   UNL     1      34.162 -23.380 -15.095  0.00  0.00    +0.005 C 
ATOM      9  C   UNL     1      36.392 -22.633 -16.694  0.00  0.00    +0.168 C 
ATOM     10  C   UNL     1      37.272 -23.107 -13.323  0.00  0.00    +0.220 C 
ATOM     11  C   UNL     1      35.182 -23.750 -12.111  0.00  0.00    +0.114 C 
ENDROOT
BRANCH   7  14
ATOM     12  O   UNL     1      32.541 -23.867 -18.140  0.00  0.00    -0.272 OA
ATOM     13  N   UNL     1      31.637 -22.735 -16.344  0.00  0.00    -0.193 N 
ATOM     14  C   UNL     1      32.694 -23.288 -17.051  0.00  0.00    +0.254 C 
ATOM     15  H   UNL     1      31.770 -22.266 -15.489  0.00  0.00    +0.183 HD
BRANCH  13  16
ATOM     16  O   UNL     1      30.362 -22.883 -16.924  0.00  0.00    -0.264 OA
BRANCH  16  17
ATOM     17  C   UNL     1      29.393 -22.883 -15.885  0.00  0.00    +0.203 C 
BRANCH  17  18
ATOM     18  C   UNL     1      28.012 -22.738 -16.495  0.00  0.00    +0.172 C 
BRANCH  18  19
ATOM     19  O   UNL     1      27.882 -23.659 -17.572  0.00  0.00    -0.379 OA
ATOM     20  H   UNL     1      27.246 -24.349 -17.331  0.00  0.00    +0.211 HD
ENDBRANCH  18  19
ENDBRANCH  17  18
ENDBRANCH  16  17
ENDBRANCH  13  16
ENDBRANCH   7  14
BRANCH   6  21
ATOM     21  N   UNL     1      34.953 -22.540 -18.640  0.00  0.00    -0.313 N 
ATOM     22  H   UNL     1      34.646 -23.328 -19.144  0.00  0.00    +0.152 HD
BRANCH  21  25
ATOM     23 BR   UNL     1      35.893 -17.604 -22.085  0.00  0.00    -0.049 Br
ATOM     24 CL   UNL     1      32.435 -21.105 -19.570  0.00  0.00    -0.081 Cl
ATOM     25  C   UNL     1      35.145 -21.398 -19.436  0.00  0.00    +0.059 C 
ATOM     26  C   UNL     1      34.065 -20.655 -19.924  0.00  0.00    +0.072 C 
ATOM     27  C   UNL     1      36.449 -21.001 -19.746  0.00  0.00    +0.016 C 
ATOM     28  C   UNL     1      34.287 -19.526 -20.712  0.00  0.00    +0.019 C 
ATOM     29  C   UNL     1      36.672 -19.871 -20.535  0.00  0.00    +0.008 C 
ATOM     30  C   UNL     1      35.591 -19.134 -21.017  0.00  0.00    +0.035 C 
ENDBRANCH  21  25
ENDBRANCH   6  21
TORSDOF 7
ENDMDL
MODEL 3
REMARK VINA RESULT:      -8.0      1.876      2.284
REMARK  Name = 10127622
REMARK  7 active torsions:
REMARK  status: ('A' for Active; 'I' for Inactive)
REMARK    1  A    between atoms: C_6  and  N_21
REMARK    2  A    between atoms: C_7  and  C_14
REMARK    3  A    between atoms: N_13  and  O_16
REMARK    4  A    between atoms: O_16  and  C_17
REMARK    5  A    between atoms: C_17  and  C_18
REMARK    6  A    between atoms: C_18  and  O_19
REMARK    7  A    between atoms: N_21  and  C_25
REMARK                            x       y       z     vdW  Elec       q    Type
REMARK                         _______ _______ _______ _____ _____    ______ ____
ROOT
ATOM      1  F   UNL     1      34.375 -24.569 -12.317  0.00  0.00    -0.202 F 
ATOM      2  N   UNL     1      30.888 -24.359 -15.253  0.00  0.00    -0.285 N 
ATOM      3  N   UNL     1      31.587 -25.016 -13.248  0.00  0.00    -0.245 NA
ATOM      4  C   UNL     1      32.206 -23.986 -15.184  0.00  0.00    +0.066 C 
ATOM      5  C   UNL     1      32.619 -24.408 -13.923  0.00  0.00    +0.119 C 
ATOM      6  C   UNL     1      34.807 -23.524 -14.417  0.00  0.00    +0.067 C 
ATOM      7  C   UNL     1      34.363 -23.113 -15.676  0.00  0.00    +0.140 C 
ATOM      8  C   UNL     1      33.046 -23.335 -16.088  0.00  0.00    +0.005 C 
ATOM      9  C   UNL     1      33.946 -24.175 -13.524  0.00  0.00    +0.168 C 
ATOM     10  C   UNL     1      30.565 -24.969 -14.073  0.00  0.00    +0.220 C 
ATOM     11  C   UNL     1      29.989 -24.148 -16.363  0.00  0.00    +0.114 C 
ENDROOT
BRANCH   7  14
ATOM     12  O   UNL     1      36.273 -21.842 -16.181  0.00  0.00    -0.272 OA
ATOM     13  N   UNL     1      34.916 -22.455 -17.942  0.00  0.00    -0.193 N 
ATOM     14  C   UNL     1      35.261 -22.429 -16.600  0.00  0.00    +0.254 C 
ATOM     15  H   UNL     1      34.104 -22.912 -18.264  0.00  0.00    +0.183 HD
BRANCH  13  16
ATOM     16  O   UNL     1      35.794 -21.790 -18.819  0.00  0.00    -0.264 OA
BRANCH  16  17
ATOM     17  C   UNL     1      35.034 -21.246 -19.889  0.00  0.00    +0.203 C 
BRANCH  17  18
ATOM     18  C   UNL     1      33.583 -21.135 -19.461  0.00  0.00    +0.172 C 
BRANCH  18  19
ATOM     19  O   UNL     1      32.889 -22.306 -19.871  0.00  0.00    -0.379 OA
ATOM     20  H   UNL     1      33.339 -23.089 -19.519  0.00  0.00    +0.211 HD
ENDBRANCH  18  19
ENDBRANCH  17  18
ENDBRANCH  16  17
ENDBRANCH  13  16
ENDBRANCH   7  14
BRANCH   6  21
ATOM     21  N   UNL     1      36.144 -23.286 -14.016  0.00  0.00    -0.313 N 
ATOM     22  H   UNL     1      36.308 -22.366 -13.706  0.00  0.00    +0.152 HD
BRANCH  21  25
ATOM     23 BR   UNL     1      41.077 -26.862 -13.950  0.00  0.00    -0.049 Br
ATOM     24 CL   UNL     1      37.394 -23.728 -11.276  0.00  0.00    -0.081 Cl
ATOM     25  C   UNL     1      37.284 -24.107 -13.976  0.00  0.00    +0.059 C 
ATOM     26  C   UNL     1      37.946 -24.384 -12.775  0.00  0.00    +0.072 C 
ATOM     27  C   UNL     1      37.764 -24.658 -15.168  0.00  0.00    +0.016 C 
ATOM     28  C   UNL     1      39.075 -25.204 -12.766  0.00  0.00    +0.019 C 
ATOM     29  C   UNL     1      38.893 -25.479 -15.160  0.00  0.00    +0.008 C 
ATOM     30  C   UNL     1      39.548 -25.751 -13.960  0.00  0.00    +0.035 C 
ENDBRANCH  21  25
ENDBRANCH   6  21
TORSDOF 7
ENDMDL
MODEL 4
REMARK VINA RESULT:      -7.9      9.941     13.385
REMARK  Name = 10127622
REMARK  7 active torsions:
REMARK  status: ('A' for Active; 'I' for Inactive)
REMARK    1  A    between atoms: C_6  and  N_21
REMARK    2  A    between atoms: C_7  and  C_14
REMARK    3  A    between atoms: N_13  and  O_16
REMARK    4  A    between atoms: O_16  and  C_17
REMARK    5  A    between atoms: C_17  and  C_18
REMARK    6  A    between atoms: C_18  and  O_19
REMARK    7  A    between atoms: N_21  and  C_25
REMARK                            x       y       z     vdW  Elec       q    Type
REMARK                         _______ _______ _______ _____ _____    ______ ____
ROOT
ATOM      1  F   UNL     1      32.069 -14.530 -20.219  0.00  0.00    -0.202 F 
ATOM      2  N   UNL     1      35.246 -17.139 -22.201  0.00  0.00    -0.285 N 
ATOM      3  N   UNL     1      34.028 -16.762 -20.380  0.00  0.00    -0.245 NA
ATOM      4  C   UNL     1      34.473 -16.046 -22.497  0.00  0.00    +0.066 C 
ATOM      5  C   UNL     1      33.721 -15.831 -21.345  0.00  0.00    +0.119 C 
ATOM      6  C   UNL     1      32.687 -13.954 -22.449  0.00  0.00    +0.067 C 
ATOM      7  C   UNL     1      33.454 -14.194 -23.590  0.00  0.00    +0.140 C 
ATOM      8  C   UNL     1      34.368 -15.252 -23.640  0.00  0.00    +0.005 C 
ATOM      9  C   UNL     1      32.807 -14.764 -21.313  0.00  0.00    +0.168 C 
ATOM     10  C   UNL     1      34.944 -17.530 -20.926  0.00  0.00    +0.220 C 
ATOM     11  C   UNL     1      36.208 -17.775 -23.069  0.00  0.00    +0.114 C 
ENDROOT
BRANCH   7  14
ATOM     12  O   UNL     1      32.425 -13.570 -25.607  0.00  0.00    -0.272 OA
ATOM     13  N   UNL     1      34.245 -12.329 -24.921  0.00  0.00    -0.193 N 
ATOM     14  C   UNL     1      33.321 -13.352 -24.774  0.00  0.00    +0.254 C 
ATOM     15  H   UNL     1      34.960 -12.173 -24.263  0.00  0.00    +0.183 HD
BRANCH  13  16
ATOM     16  O   UNL     1      34.101 -11.527 -26.070  0.00  0.00    -0.264 OA
BRANCH  16  17
ATOM     17  C   UNL     1      35.299 -10.786 -26.254  0.00  0.00    +0.203 C 
BRANCH  17  18
ATOM     18  C   UNL     1      35.283  -9.581 -25.334  0.00  0.00    +0.172 C 
BRANCH  18  19
ATOM     19  O   UNL     1      35.558 -10.009 -24.006  0.00  0.00    -0.379 OA
ATOM     20  H   UNL     1      35.017 -10.787 -23.798  0.00  0.00    +0.211 HD
ENDBRANCH  18  19
ENDBRANCH  17  18
ENDBRANCH  16  17
ENDBRANCH  13  16
ENDBRANCH   7  14
BRANCH   6  21
ATOM     21  N   UNL     1      31.764 -12.880 -22.420  0.00  0.00    -0.313 N 
ATOM     22  H   UNL     1      30.832 -13.153 -22.583  0.00  0.00    +0.152 HD
BRANCH  21  25
ATOM     23 BR   UNL     1      32.453  -6.883 -21.592  0.00  0.00    -0.049 Br
ATOM     24 CL   UNL     1      31.550 -11.933 -19.535  0.00  0.00    -0.081 Cl
ATOM     25  C   UNL     1      31.919 -11.501 -22.204  0.00  0.00    +0.059 C 
ATOM     26  C   UNL     1      31.841 -10.945 -20.922  0.00  0.00    +0.072 C 
ATOM     27  C   UNL     1      32.156 -10.666 -23.301  0.00  0.00    +0.016 C 
ATOM     28  C   UNL     1      32.000  -9.572 -20.739  0.00  0.00    +0.019 C 
ATOM     29  C   UNL     1      32.315  -9.292 -23.118  0.00  0.00    +0.008 C 
ATOM     30  C   UNL     1      32.237  -8.745 -21.838  0.00  0.00    +0.035 C 
ENDBRANCH  21  25
ENDBRANCH   6  21
TORSDOF 7
ENDMDL
MODEL 5
REMARK VINA RESULT:      -7.9      7.543     10.574
REMARK  Name = 10127622
REMARK  7 active torsions:
REMARK  status: ('A' for Active; 'I' for Inactive)
REMARK    1  A    between atoms: C_6  and  N_21
REMARK    2  A    between atoms: C_7  and  C_14
REMARK    3  A    between atoms: N_13  and  O_16
REMARK    4  A    between atoms: O_16  and  C_17
REMARK    5  A    between atoms: C_17  and  C_18
REMARK    6  A    between atoms: C_18  and  O_19
REMARK    7  A    between atoms: N_21  and  C_25
REMARK                            x       y       z     vdW  Elec       q    Type
REMARK                         _______ _______ _______ _____ _____    ______ ____
ROOT
ATOM      1  F   UNL     1      33.769 -15.664 -19.707  0.00  0.00    -0.202 F 
ATOM      2  N   UNL     1      31.666 -11.982 -21.395  0.00  0.00    -0.285 N 
ATOM      3  N   UNL     1      32.271 -13.099 -19.570  0.00  0.00    -0.245 NA
ATOM      4  C   UNL     1      32.325 -13.096 -21.849  0.00  0.00    +0.066 C 
ATOM      5  C   UNL     1      32.693 -13.776 -20.691  0.00  0.00    +0.119 C 
ATOM      6  C   UNL     1      33.709 -15.462 -22.083  0.00  0.00    +0.067 C 
ATOM      7  C   UNL     1      33.326 -14.757 -23.226  0.00  0.00    +0.140 C 
ATOM      8  C   UNL     1      32.623 -13.552 -23.133  0.00  0.00    +0.005 C 
ATOM      9  C   UNL     1      33.400 -14.985 -20.803  0.00  0.00    +0.168 C 
ATOM     10  C   UNL     1      31.660 -12.029 -20.028  0.00  0.00    +0.220 C 
ATOM     11  C   UNL     1      31.080 -10.938 -22.202  0.00  0.00    +0.114 C 
ENDROOT
BRANCH   7  14
ATOM     12  O   UNL     1      34.513 -16.141 -24.707  0.00  0.00    -0.272 OA
ATOM     13  N   UNL     1      32.985 -14.675 -25.624  0.00  0.00    -0.193 N 
ATOM     14  C   UNL     1      33.656 -15.253 -24.558  0.00  0.00    +0.254 C 
ATOM     15  H   UNL     1      32.317 -13.963 -25.497  0.00  0.00    +0.183 HD
BRANCH  13  16
ATOM     16  O   UNL     1      33.317 -15.167 -26.902  0.00  0.00    -0.264 OA
BRANCH  16  17
ATOM     17  C   UNL     1      33.724 -14.073 -27.713  0.00  0.00    +0.203 C 
BRANCH  17  18
ATOM     18  C   UNL     1      32.987 -12.825 -27.266  0.00  0.00    +0.172 C 
BRANCH  18  19
ATOM     19  O   UNL     1      33.813 -12.097 -26.365  0.00  0.00    -0.379 OA
ATOM     20  H   UNL     1      34.588 -11.759 -26.840  0.00  0.00    +0.211 HD
ENDBRANCH  18  19
ENDBRANCH  17  18
ENDBRANCH  16  17
ENDBRANCH  13  16
ENDBRANCH   7  14
BRANCH   6  21
ATOM     21  N   UNL     1      34.424 -16.679 -22.198  0.00  0.00    -0.313 N 
ATOM     22  H   UNL     1      35.165 -16.644 -22.846  0.00  0.00    +0.152 HD
BRANCH  21  25
ATOM     23 BR   UNL     1      33.703 -22.068 -19.450  0.00  0.00    -0.049 Br
ATOM     24 CL   UNL     1      36.958 -18.341 -21.910  0.00  0.00    -0.081 Cl
ATOM     25  C   UNL     1      34.283 -17.926 -21.567  0.00  0.00    +0.059 C 
ATOM     26  C   UNL     1      35.375 -18.780 -21.378  0.00  0.00    +0.072 C 
ATOM     27  C   UNL     1      33.017 -18.319 -21.121  0.00  0.00    +0.016 C 
ATOM     28  C   UNL     1      35.203 -20.013 -20.747  0.00  0.00    +0.019 C 
ATOM     29  C   UNL     1      32.845 -19.552 -20.490  0.00  0.00    +0.008 C 
ATOM     30  C   UNL     1      33.937 -20.398 -20.304  0.00  0.00    +0.035 C 
ENDBRANCH  21  25
ENDBRANCH   6  21
TORSDOF 7
ENDMDL
MODEL 6
REMARK VINA RESULT:      -7.9      3.734      6.250
REMARK  Name = 10127622
REMARK  7 active torsions:
REMARK  status: ('A' for Active; 'I' for Inactive)
REMARK    1  A    between atoms: C_6  and  N_21
REMARK    2  A    between atoms: C_7  and  C_14
REMARK    3  A    between atoms: N_13  and  O_16
REMARK    4  A    between atoms: O_16  and  C_17
REMARK    5  A    between atoms: C_17  and  C_18
REMARK    6  A    between atoms: C_18  and  O_19
REMARK    7  A    between atoms: N_21  and  C_25
REMARK                            x       y       z     vdW  Elec       q    Type
REMARK                         _______ _______ _______ _____ _____    ______ ____
ROOT
ATOM      1  F   UNL     1      36.936 -23.721 -16.169  0.00  0.00    -0.202 F 
ATOM      2  N   UNL     1      36.747 -23.699 -11.610  0.00  0.00    -0.285 N 
ATOM      3  N   UNL     1      38.048 -23.690 -13.412  0.00  0.00    -0.245 NA
ATOM      4  C   UNL     1      35.890 -23.717 -12.681  0.00  0.00    +0.066 C 
ATOM      5  C   UNL     1      36.727 -23.711 -13.793  0.00  0.00    +0.119 C 
ATOM      6  C   UNL     1      34.761 -23.747 -15.190  0.00  0.00    +0.067 C 
ATOM      7  C   UNL     1      33.948 -23.753 -14.054  0.00  0.00    +0.140 C 
ATOM      8  C   UNL     1      34.498 -23.737 -12.768  0.00  0.00    +0.005 C 
ATOM      9  C   UNL     1      36.157 -23.726 -15.078  0.00  0.00    +0.168 C 
ATOM     10  C   UNL     1      38.024 -23.682 -12.098  0.00  0.00    +0.220 C 
ATOM     11  C   UNL     1      36.381 -23.694 -10.213  0.00  0.00    +0.114 C 
ENDROOT
BRANCH   7  14
ATOM     12  O   UNL     1      31.874 -22.734 -14.472  0.00  0.00    -0.272 OA
ATOM     13  N   UNL     1      31.858 -24.974 -13.923  0.00  0.00    -0.193 N 
ATOM     14  C   UNL     1      32.494 -23.768 -14.174  0.00  0.00    +0.254 C 
ATOM     15  H   UNL     1      32.357 -25.785 -13.674  0.00  0.00    +0.183 HD
BRANCH  13  16
ATOM     16  O   UNL     1      30.455 -24.969 -14.043  0.00  0.00    -0.264 OA
BRANCH  16  17
ATOM     17  C   UNL     1      30.118 -25.306 -15.382  0.00  0.00    +0.203 C 
BRANCH  17  18
ATOM     18  C   UNL     1      28.880 -24.530 -15.792  0.00  0.00    +0.172 C 
BRANCH  18  19
ATOM     19  O   UNL     1      29.001 -23.189 -15.332  0.00  0.00    -0.379 OA
ATOM     20  H   UNL     1      29.562 -22.688 -15.944  0.00  0.00    +0.211 HD
ENDBRANCH  18  19
ENDBRANCH  17  18
ENDBRANCH  16  17
ENDBRANCH  13  16
ENDBRANCH   7  14
BRANCH   6  21
ATOM     21  N   UNL     1      34.185 -23.759 -16.483  0.00  0.00    -0.313 N 
ATOM     22  H   UNL     1      33.658 -24.567 -16.675  0.00  0.00    +0.152 HD
BRANCH  21  25
ATOM     23 BR   UNL     1      34.451 -19.785 -21.094  0.00  0.00    -0.049 Br
ATOM     24 CL   UNL     1      31.494 -22.758 -17.494  0.00  0.00    -0.081 Cl
ATOM     25  C   UNL     1      34.221 -22.841 -17.546  0.00  0.00    +0.059 C 
ATOM     26  C   UNL     1      33.049 -22.311 -18.097  0.00  0.00    +0.072 C 
ATOM     27  C   UNL     1      35.461 -22.453 -18.064  0.00  0.00    +0.016 C 
ATOM     28  C   UNL     1      33.117 -21.401 -19.152  0.00  0.00    +0.019 C 
ATOM     29  C   UNL     1      35.529 -21.543 -19.120  0.00  0.00    +0.008 C 
ATOM     30  C   UNL     1      34.358 -21.018 -19.663  0.00  0.00    +0.035 C 
ENDBRANCH  21  25
ENDBRANCH   6  21
TORSDOF 7
ENDMDL
MODEL 7
REMARK VINA RESULT:      -7.9      2.962      5.480
REMARK  Name = 10127622
REMARK  7 active torsions:
REMARK  status: ('A' for Active; 'I' for Inactive)
REMARK    1  A    between atoms: C_6  and  N_21
REMARK    2  A    between atoms: C_7  and  C_14
REMARK    3  A    between atoms: N_13  and  O_16
REMARK    4  A    between atoms: O_16  and  C_17
REMARK    5  A    between atoms: C_17  and  C_18
REMARK    6  A    between atoms: C_18  and  O_19
REMARK    7  A    between atoms: N_21  and  C_25
REMARK                            x       y       z     vdW  Elec       q    Type
REMARK                         _______ _______ _______ _____ _____    ______ ____
ROOT
ATOM      1  F   UNL     1      38.155 -21.615 -16.682  0.00  0.00    -0.202 F 
ATOM      2  N   UNL     1      34.467 -21.550 -19.370  0.00  0.00    -0.285 N 
ATOM      3  N   UNL     1      36.581 -20.916 -19.107  0.00  0.00    -0.245 NA
ATOM      4  C   UNL     1      34.850 -22.049 -18.151  0.00  0.00    +0.066 C 
ATOM      5  C   UNL     1      36.174 -21.640 -18.011  0.00  0.00    +0.119 C 
ATOM      6  C   UNL     1      36.219 -22.747 -15.869  0.00  0.00    +0.067 C 
ATOM      7  C   UNL     1      34.891 -23.142 -16.039  0.00  0.00    +0.140 C 
ATOM      8  C   UNL     1      34.174 -22.801 -17.190  0.00  0.00    +0.005 C 
ATOM      9  C   UNL     1      36.879 -21.993 -16.848  0.00  0.00    +0.168 C 
ATOM     10  C   UNL     1      35.535 -20.882 -19.901  0.00  0.00    +0.220 C 
ATOM     11  C   UNL     1      33.173 -21.697 -19.994  0.00  0.00    +0.114 C 
ENDROOT
BRANCH   7  14
ATOM     12  O   UNL     1      34.605 -25.076 -14.737  0.00  0.00    -0.272 OA
ATOM     13  N   UNL     1      33.104 -23.354 -14.414  0.00  0.00    -0.193 N 
ATOM     14  C   UNL     1      34.209 -23.933 -15.020  0.00  0.00    +0.254 C 
ATOM     15  H   UNL     1      32.789 -22.453 -14.655  0.00  0.00    +0.183 HD
BRANCH  13  16
ATOM     16  O   UNL     1      32.459 -24.133 -13.434  0.00  0.00    -0.264 OA
BRANCH  16  17
ATOM     17  C   UNL     1      31.055 -24.032 -13.632  0.00  0.00    +0.203 C 
BRANCH  17  18
ATOM     18  C   UNL     1      30.608 -25.132 -14.576  0.00  0.00    +0.172 C 
BRANCH  18  19
ATOM     19  O   UNL     1      29.282 -25.520 -14.239  0.00  0.00    -0.379 OA
ATOM     20  H   UNL     1      29.249 -26.481 -14.110  0.00  0.00    +0.211 HD
ENDBRANCH  18  19
ENDBRANCH  17  18
ENDBRANCH  16  17
ENDBRANCH  13  16
ENDBRANCH   7  14
BRANCH   6  21
ATOM     21  N   UNL     1      36.929 -23.106 -14.698  0.00  0.00    -0.313 N 
ATOM     22  H   UNL     1      36.666 -22.592 -13.901  0.00  0.00    +0.152 HD
BRANCH  21  25
ATOM     23 BR   UNL     1      41.344 -27.192 -13.732  0.00  0.00    -0.049 Br
ATOM     24 CL   UNL     1      36.799 -24.553 -12.023  0.00  0.00    -0.081 Cl
ATOM     25  C   UNL     1      37.937 -24.054 -14.452  0.00  0.00    +0.059 C 
ATOM     26  C   UNL     1      37.984 -24.782 -13.259  0.00  0.00    +0.072 C 
ATOM     27  C   UNL     1      38.916 -24.268 -15.428  0.00  0.00    +0.016 C 
ATOM     28  C   UNL     1      38.997 -25.717 -13.044  0.00  0.00    +0.019 C 
ATOM     29  C   UNL     1      39.930 -25.203 -15.213  0.00  0.00    +0.008 C 
ATOM     30  C   UNL     1      39.970 -25.927 -14.022  0.00  0.00    +0.035 C 
ENDBRANCH  21  25
ENDBRANCH   6  21
TORSDOF 7
ENDMDL
MODEL 8
REMARK VINA RESULT:      -7.7      9.865     13.094
REMARK  Name = 10127622
REMARK  7 active torsions:
REMARK  status: ('A' for Active; 'I' for Inactive)
REMARK    1  A    between atoms: C_6  and  N_21
REMARK    2  A    between atoms: C_7  and  C_14
REMARK    3  A    between atoms: N_13  and  O_16
REMARK    4  A    between atoms: O_16  and  C_17
REMARK    5  A    between atoms: C_17  and  C_18
REMARK    6  A    between atoms: C_18  and  O_19
REMARK    7  A    between atoms: N_21  and  C_25
REMARK                            x       y       z     vdW  Elec       q    Type
REMARK                         _______ _______ _______ _____ _____    ______ ____
ROOT
ATOM      1  F   UNL     1      33.440 -13.895 -20.866  0.00  0.00    -0.202 F 
ATOM      2  N   UNL     1      35.473 -17.843 -21.919  0.00  0.00    -0.285 N 
ATOM      3  N   UNL     1      34.934 -16.406 -20.311  0.00  0.00    -0.245 NA
ATOM      4  C   UNL     1      34.801 -16.825 -22.547  0.00  0.00    +0.066 C 
ATOM      5  C   UNL     1      34.475 -15.941 -21.522  0.00  0.00    +0.119 C 
ATOM      6  C   UNL     1      33.417 -14.529 -23.165  0.00  0.00    +0.067 C 
ATOM      7  C   UNL     1      33.759 -15.435 -24.171  0.00  0.00    +0.140 C 
ATOM      8  C   UNL     1      34.461 -16.610 -23.883  0.00  0.00    +0.005 C 
ATOM      9  C   UNL     1      33.769 -14.767 -21.830  0.00  0.00    +0.168 C 
ATOM     10  C   UNL     1      35.526 -17.547 -20.585  0.00  0.00    +0.220 C 
ATOM     11  C   UNL     1      36.027 -19.022 -22.540  0.00  0.00    +0.114 C 
ENDROOT
BRANCH   7  14
ATOM     12  O   UNL     1      33.974 -15.770 -26.486  0.00  0.00    -0.272 OA
ATOM     13  N   UNL     1      32.368 -14.272 -25.780  0.00  0.00    -0.193 N 
ATOM     14  C   UNL     1      33.385 -15.188 -25.560  0.00  0.00    +0.254 C 
ATOM     15  H   UNL     1      31.916 -13.806 -25.040  0.00  0.00    +0.183 HD
BRANCH  13  16
ATOM     16  O   UNL     1      32.022 -14.046 -27.127  0.00  0.00    -0.264 OA
BRANCH  16  17
ATOM     17  C   UNL     1      32.287 -12.685 -27.438  0.00  0.00    +0.203 C 
BRANCH  17  18
ATOM     18  C   UNL     1      33.782 -12.443 -27.366  0.00  0.00    +0.172 C 
BRANCH  18  19
ATOM     19  O   UNL     1      34.450 -13.438 -28.132  0.00  0.00    -0.379 OA
ATOM     20  H   UNL     1      35.312 -13.101 -28.419  0.00  0.00    +0.211 HD
ENDBRANCH  18  19
ENDBRANCH  17  18
ENDBRANCH  16  17
ENDBRANCH  13  16
ENDBRANCH   7  14
BRANCH   6  21
ATOM     21  N   UNL     1      32.702 -13.348 -23.477  0.00  0.00    -0.313 N 
ATOM     22  H   UNL     1      31.765 -13.507 -23.733  0.00  0.00    +0.152 HD
BRANCH  21  25
ATOM     23 BR   UNL     1      34.378  -7.492 -23.617  0.00  0.00    -0.049 Br
ATOM     24 CL   UNL     1      31.050 -11.480 -21.731  0.00  0.00    -0.081 Cl
ATOM     25  C   UNL     1      33.070 -11.992 -23.493  0.00  0.00    +0.059 C 
ATOM     26  C   UNL     1      32.385 -11.037 -22.733  0.00  0.00    +0.072 C 
ATOM     27  C   UNL     1      34.146 -11.592 -24.292  0.00  0.00    +0.016 C 
ATOM     28  C   UNL     1      32.775  -9.698 -22.769  0.00  0.00    +0.019 C 
ATOM     29  C   UNL     1      34.535 -10.252 -24.328  0.00  0.00    +0.008 C 
ATOM     30  C   UNL     1      33.850  -9.307 -23.567  0.00  0.00    +0.035 C 
ENDBRANCH  21  25
ENDBRANCH   6  21
TORSDOF 7
ENDMDL
MODEL 9
REMARK VINA RESULT:      -7.7     10.734     13.807
REMARK  Name = 10127622
REMARK  7 active torsions:
REMARK  status: ('A' for Active; 'I' for Inactive)
REMARK    1  A    between atoms: C_6  and  N_21
REMARK    2  A    between atoms: C_7  and  C_14
REMARK    3  A    between atoms: N_13  and  O_16
REMARK    4  A    between atoms: O_16  and  C_17
REMARK    5  A    between atoms: C_17  and  C_18
REMARK    6  A    between atoms: C_18  and  O_19
REMARK    7  A    between atoms: N_21  and  C_25
REMARK                            x       y       z     vdW  Elec       q    Type
REMARK                         _______ _______ _______ _____ _____    ______ ____
ROOT
ATOM      1  F   UNL     1      33.110 -13.602 -25.704  0.00  0.00    -0.202 F 
ATOM      2  N   UNL     1      34.634 -17.545 -23.984  0.00  0.00    -0.285 N 
ATOM      3  N   UNL     1      34.318 -16.317 -25.810  0.00  0.00    -0.245 NA
ATOM      4  C   UNL     1      34.065 -16.376 -23.545  0.00  0.00    +0.066 C 
ATOM      5  C   UNL     1      33.878 -15.627 -24.704  0.00  0.00    +0.119 C 
ATOM      6  C   UNL     1      32.939 -13.874 -23.341  0.00  0.00    +0.067 C 
ATOM      7  C   UNL     1      33.140 -14.650 -22.197  0.00  0.00    +0.140 C 
ATOM      8  C   UNL     1      33.711 -15.924 -22.274  0.00  0.00    +0.005 C 
ATOM      9  C   UNL     1      33.304 -14.349 -24.607  0.00  0.00    +0.168 C 
ATOM     10  C   UNL     1      34.765 -17.462 -25.342  0.00  0.00    +0.220 C 
ATOM     11  C   UNL     1      35.031 -18.669 -23.169  0.00  0.00    +0.114 C 
ENDROOT
BRANCH   7  14
ATOM     12  O   UNL     1      32.796 -14.898 -19.886  0.00  0.00    -0.272 OA
ATOM     13  N   UNL     1      32.362 -12.826 -20.802  0.00  0.00    -0.193 N 
ATOM     14  C   UNL     1      32.765 -14.150 -20.878  0.00  0.00    +0.254 C 
ATOM     15  H   UNL     1      32.328 -12.244 -21.596  0.00  0.00    +0.183 HD
BRANCH  13  16
ATOM     16  O   UNL     1      32.005 -12.361 -19.521  0.00  0.00    -0.264 OA
BRANCH  16  17
ATOM     17  C   UNL     1      31.300 -11.136 -19.668  0.00  0.00    +0.203 C 
BRANCH  17  18
ATOM     18  C   UNL     1      31.941 -10.087 -18.780  0.00  0.00    +0.172 C 
BRANCH  18  19
ATOM     19  O   UNL     1      32.594  -9.124 -19.598  0.00  0.00    -0.379 OA
ATOM     20  H   UNL     1      33.390  -9.518 -19.987  0.00  0.00    +0.211 HD
ENDBRANCH  18  19
ENDBRANCH  17  18
ENDBRANCH  16  17
ENDBRANCH  13  16
ENDBRANCH   7  14
BRANCH   6  21
ATOM     21  N   UNL     1      32.363 -12.585 -23.240  0.00  0.00    -0.313 N 
ATOM     22  H   UNL     1      31.421 -12.593 -22.957  0.00  0.00    +0.152 HD
BRANCH  21  25
ATOM     23 BR   UNL     1      34.677  -7.042 -24.261  0.00  0.00    -0.049 Br
ATOM     24 CL   UNL     1      30.571 -10.260 -22.436  0.00  0.00    -0.081 Cl
ATOM     25  C   UNL     1      32.875 -11.296 -23.466  0.00  0.00    +0.059 C 
ATOM     26  C   UNL     1      32.145 -10.149 -23.139  0.00  0.00    +0.072 C 
ATOM     27  C   UNL     1      34.147 -11.163 -24.034  0.00  0.00    +0.016 C 
ATOM     28  C   UNL     1      32.680  -8.883 -23.375  0.00  0.00    +0.019 C 
ATOM     29  C   UNL     1      34.682  -9.897 -24.270  0.00  0.00    +0.008 C 
ATOM     30  C   UNL     1      33.950  -8.757 -23.941  0.00  0.00    +0.035 C 
ENDBRANCH  21  25
ENDBRANCH   6  21
TORSDOF 7
ENDMDL
