MODEL 1
REMARK VINA RESULT:      -9.7      0.000      0.000
REMARK  Name = 9568614
REMARK  5 active torsions:
REMARK  status: ('A' for Active; 'I' for Inactive)
REMARK    1  A    between atoms: S_1  and  C_5
REMARK    2  A    between atoms: S_1  and  C_16
REMARK    3  A    between atoms: C_10  and  O_14
REMARK    4  A    between atoms: C_16  and  C_18
REMARK    5  A    between atoms: C_20  and  O_25
REMARK                            x       y       z     vdW  Elec       q    Type
REMARK                         _______ _______ _______ _____ _____    ______ ____
ROOT
ATOM      1  S   UNL     1      33.603 -13.765 -24.788  0.00  0.00    +0.085 S 
ATOM      2  O   UNL     1      32.560 -14.098 -25.838  0.00  0.00    -0.252 OA
ENDROOT
BRANCH   1   5
ATOM      3  N   UNL     1      34.476 -15.357 -22.663  0.00  0.00    -0.307 N 
ATOM      4  N   UNL     1      34.156 -16.448 -24.573  0.00  0.00    -0.307 N 
ATOM      5  C   UNL     1      34.102 -15.278 -23.975  0.00  0.00    +0.226 C 
ATOM      6  C   UNL     1      34.790 -16.664 -22.395  0.00  0.00    +0.063 C 
ATOM      7  C   UNL     1      34.582 -17.324 -23.602  0.00  0.00    +0.060 C 
ATOM      8  C   UNL     1      35.225 -17.306 -21.235  0.00  0.00    +0.052 C 
ATOM      9  C   UNL     1      34.818 -18.708 -23.675  0.00  0.00    +0.019 C 
ATOM     10  C   UNL     1      35.455 -18.683 -21.326  0.00  0.00    +0.140 C 
ATOM     11  C   UNL     1      35.256 -19.373 -22.523  0.00  0.00    +0.038 C 
ATOM     12  H   UNL     1      34.512 -14.609 -22.024  0.00  0.00    +0.149 HD
ATOM     13  H   UNL     1      33.937 -16.652 -25.510  0.00  0.00    +0.149 HD
BRANCH  10  14
ATOM     14  O   UNL     1      35.882 -19.363 -20.223  0.00  0.00    -0.471 OA
ATOM     15  C   UNL     1      35.644 -20.768 -20.197  0.00  0.00    +0.252 C 
ENDBRANCH  10  14
ENDBRANCH   1   5
BRANCH   1  16
ATOM     16  C   UNL     1      32.736 -12.937 -23.424  0.00  0.00    +0.140 C 
BRANCH  16  18
ATOM     17  N   UNL     1      34.110 -11.083 -24.120  0.00  0.00    -0.248 NA
ATOM     18  C   UNL     1      33.058 -11.471 -23.371  0.00  0.00    +0.072 C 
ATOM     19  C   UNL     1      32.295 -10.622 -22.591  0.00  0.00    +0.026 C 
ATOM     20  C   UNL     1      32.637  -9.275 -22.578  0.00  0.00    +0.133 C 
ATOM     21  C   UNL     1      33.714  -8.830 -23.336  0.00  0.00    +0.031 C 
ATOM     22  C   UNL     1      31.144 -11.124 -21.787  0.00  0.00    +0.035 C 
ATOM     23  C   UNL     1      34.413  -9.766 -24.084  0.00  0.00    +0.097 C 
ATOM     24  C   UNL     1      34.121  -7.397 -23.356  0.00  0.00    +0.036 C 
BRANCH  20  25
ATOM     25  O   UNL     1      31.920  -8.393 -21.827  0.00  0.00    -0.472 OA
ATOM     26  C   UNL     1      32.325  -8.218 -20.471  0.00  0.00    +0.252 C 
ENDBRANCH  20  25
ENDBRANCH  16  18
ENDBRANCH   1  16
TORSDOF 5
ENDMDL
MODEL 2
REMARK VINA RESULT:      -9.4      1.376      8.700
REMARK  Name = 9568614
REMARK  5 active torsions:
REMARK  status: ('A' for Active; 'I' for Inactive)
REMARK    1  A    between atoms: S_1  and  C_5
REMARK    2  A    between atoms: S_1  and  C_16
REMARK    3  A    between atoms: C_10  and  O_14
REMARK    4  A    between atoms: C_16  and  C_18
REMARK    5  A    between atoms: C_20  and  O_25
REMARK                            x       y       z     vdW  Elec       q    Type
REMARK                         _______ _______ _______ _____ _____    ______ ____
ROOT
ATOM      1  S   UNL     1      32.826 -13.702 -23.745  0.00  0.00    +0.085 S 
ATOM      2  O   UNL     1      32.714 -14.042 -25.219  0.00  0.00    -0.252 OA
ENDROOT
BRANCH   1   5
ATOM      3  N   UNL     1      32.267 -11.097 -22.902  0.00  0.00    -0.307 N 
ATOM      4  N   UNL     1      34.125 -11.307 -24.103  0.00  0.00    -0.307 N 
ATOM      5  C   UNL     1      33.099 -11.943 -23.581  0.00  0.00    +0.226 C 
ATOM      6  C   UNL     1      32.791  -9.833 -22.990  0.00  0.00    +0.063 C 
ATOM      7  C   UNL     1      33.949  -9.991 -23.744  0.00  0.00    +0.060 C 
ATOM      8  C   UNL     1      32.362  -8.603 -22.489  0.00  0.00    +0.052 C 
ATOM      9  C   UNL     1      34.741  -8.864 -24.027  0.00  0.00    +0.019 C 
ATOM     10  C   UNL     1      33.163  -7.493 -22.780  0.00  0.00    +0.140 C 
ATOM     11  C   UNL     1      34.331  -7.619 -23.535  0.00  0.00    +0.038 C 
ATOM     12  H   UNL     1      31.440 -11.351 -22.432  0.00  0.00    +0.149 HD
ATOM     13  H   UNL     1      34.859 -11.691 -24.634  0.00  0.00    +0.149 HD
BRANCH  10  14
ATOM     14  O   UNL     1      32.793  -6.264 -22.317  0.00  0.00    -0.471 OA
ATOM     15  C   UNL     1      31.986  -6.233 -21.142  0.00  0.00    +0.252 C 
ENDBRANCH  10  14
ENDBRANCH   1   5
BRANCH   1  16
ATOM     16  C   UNL     1      34.431 -14.332 -23.175  0.00  0.00    +0.140 C 
BRANCH  16  18
ATOM     17  N   UNL     1      34.554 -16.145 -24.759  0.00  0.00    -0.248 NA
ATOM     18  C   UNL     1      34.583 -15.800 -23.456  0.00  0.00    +0.072 C 
ATOM     19  C   UNL     1      34.737 -16.692 -22.412  0.00  0.00    +0.026 C 
ATOM     20  C   UNL     1      34.872 -18.039 -22.728  0.00  0.00    +0.133 C 
ATOM     21  C   UNL     1      34.849 -18.440 -24.059  0.00  0.00    +0.031 C 
ATOM     22  C   UNL     1      34.759 -16.236 -20.992  0.00  0.00    +0.035 C 
ATOM     23  C   UNL     1      34.689 -17.462 -25.029  0.00  0.00    +0.097 C 
ATOM     24  C   UNL     1      34.989 -19.870 -24.450  0.00  0.00    +0.036 C 
BRANCH  20  25
ATOM     25  O   UNL     1      35.027 -18.963 -21.739  0.00  0.00    -0.472 OA
ATOM     26  C   UNL     1      33.841 -19.545 -21.204  0.00  0.00    +0.252 C 
ENDBRANCH  20  25
ENDBRANCH  16  18
ENDBRANCH   1  16
TORSDOF 5
ENDMDL
MODEL 3
REMARK VINA RESULT:      -9.3      4.200      7.396
REMARK  Name = 9568614
REMARK  5 active torsions:
REMARK  status: ('A' for Active; 'I' for Inactive)
REMARK    1  A    between atoms: S_1  and  C_5
REMARK    2  A    between atoms: S_1  and  C_16
REMARK    3  A    between atoms: C_10  and  O_14
REMARK    4  A    between atoms: C_16  and  C_18
REMARK    5  A    between atoms: C_20  and  O_25
REMARK                            x       y       z     vdW  Elec       q    Type
REMARK                         _______ _______ _______ _____ _____    ______ ____
ROOT
ATOM      1  S   UNL     1      34.282 -20.502 -21.028  0.00  0.00    +0.085 S 
ATOM      2  O   UNL     1      32.843 -20.059 -20.841  0.00  0.00    -0.252 OA
ENDROOT
BRANCH   1   5
ATOM      3  N   UNL     1      36.119 -21.132 -19.019  0.00  0.00    -0.307 N 
ATOM      4  N   UNL     1      34.096 -22.010 -18.738  0.00  0.00    -0.307 N 
ATOM      5  C   UNL     1      34.851 -21.260 -19.512  0.00  0.00    +0.226 C 
ATOM      6  C   UNL     1      36.188 -21.846 -17.850  0.00  0.00    +0.063 C 
ATOM      7  C   UNL     1      34.913 -22.383 -17.697  0.00  0.00    +0.060 C 
ATOM      8  C   UNL     1      37.225 -22.059 -16.941  0.00  0.00    +0.052 C 
ATOM      9  C   UNL     1      34.638 -23.186 -16.576  0.00  0.00    +0.019 C 
ATOM     10  C   UNL     1      36.933 -22.861 -15.831  0.00  0.00    +0.140 C 
ATOM     11  C   UNL     1      35.664 -23.414 -15.651  0.00  0.00    +0.038 C 
ATOM     12  H   UNL     1      36.852 -20.619 -19.429  0.00  0.00    +0.149 HD
ATOM     13  H   UNL     1      33.152 -22.250 -18.875  0.00  0.00    +0.149 HD
BRANCH  10  14
ATOM     14  O   UNL     1      37.909 -23.104 -14.909  0.00  0.00    -0.471 OA
ATOM     15  C   UNL     1      37.930 -24.401 -14.317  0.00  0.00    +0.252 C 
ENDBRANCH  10  14
ENDBRANCH   1   5
BRANCH   1  16
ATOM     16  C   UNL     1      35.303 -19.000 -21.042  0.00  0.00    +0.140 C 
BRANCH  16  18
ATOM     17  N   UNL     1      34.931 -18.732 -23.408  0.00  0.00    -0.248 NA
ATOM     18  C   UNL     1      34.973 -18.115 -22.209  0.00  0.00    +0.072 C 
ATOM     19  C   UNL     1      34.739 -16.768 -22.012  0.00  0.00    +0.026 C 
ATOM     20  C   UNL     1      34.439 -15.994 -23.128  0.00  0.00    +0.133 C 
ATOM     21  C   UNL     1      34.385 -16.589 -24.384  0.00  0.00    +0.031 C 
ATOM     22  C   UNL     1      34.804 -16.154 -20.654  0.00  0.00    +0.035 C 
ATOM     23  C   UNL     1      34.636 -17.949 -24.469  0.00  0.00    +0.097 C 
ATOM     24  C   UNL     1      34.068 -15.804 -25.609  0.00  0.00    +0.036 C 
BRANCH  20  25
ATOM     25  O   UNL     1      34.200 -14.660 -22.993  0.00  0.00    -0.472 OA
ATOM     26  C   UNL     1      32.853 -14.266 -22.740  0.00  0.00    +0.252 C 
ENDBRANCH  20  25
ENDBRANCH  16  18
ENDBRANCH   1  16
TORSDOF 5
ENDMDL
MODEL 4
REMARK VINA RESULT:      -9.3      2.117      9.149
REMARK  Name = 9568614
REMARK  5 active torsions:
REMARK  status: ('A' for Active; 'I' for Inactive)
REMARK    1  A    between atoms: S_1  and  C_5
REMARK    2  A    between atoms: S_1  and  C_16
REMARK    3  A    between atoms: C_10  and  O_14
REMARK    4  A    between atoms: C_16  and  C_18
REMARK    5  A    between atoms: C_20  and  O_25
REMARK                            x       y       z     vdW  Elec       q    Type
REMARK                         _______ _______ _______ _____ _____    ______ ____
ROOT
ATOM      1  S   UNL     1      34.308 -17.252 -23.376  0.00  0.00    +0.085 S 
ATOM      2  O   UNL     1      35.332 -17.315 -24.494  0.00  0.00    -0.252 OA
ENDROOT
BRANCH   1   5
ATOM      3  N   UNL     1      34.192 -14.525 -23.976  0.00  0.00    -0.307 N 
ATOM      4  N   UNL     1      32.915 -15.158 -22.270  0.00  0.00    -0.307 N 
ATOM      5  C   UNL     1      33.768 -15.558 -23.188  0.00  0.00    +0.226 C 
ATOM      6  C   UNL     1      33.571 -13.383 -23.539  0.00  0.00    +0.063 C 
ATOM      7  C   UNL     1      32.780 -13.804 -22.474  0.00  0.00    +0.060 C 
ATOM      8  C   UNL     1      33.632 -12.058 -23.972  0.00  0.00    +0.052 C 
ATOM      9  C   UNL     1      31.997 -12.860 -21.788  0.00  0.00    +0.019 C 
ATOM     10  C   UNL     1      32.846 -11.132 -23.277  0.00  0.00    +0.140 C 
ATOM     11  C   UNL     1      32.042 -11.524 -22.204  0.00  0.00    +0.038 C 
ATOM     12  H   UNL     1      34.828 -14.590 -24.724  0.00  0.00    +0.149 HD
ATOM     13  H   UNL     1      32.470 -15.708 -21.586  0.00  0.00    +0.149 HD
BRANCH  10  14
ATOM     14  O   UNL     1      32.866  -9.821 -23.656  0.00  0.00    -0.471 OA
ATOM     15  C   UNL     1      31.923  -8.953 -23.032  0.00  0.00    +0.252 C 
ENDBRANCH  10  14
ENDBRANCH   1   5
BRANCH   1  16
ATOM     16  C   UNL     1      35.210 -17.479 -21.817  0.00  0.00    +0.140 C 
BRANCH  16  18
ATOM     17  N   UNL     1      33.485 -18.950 -20.998  0.00  0.00    -0.248 NA
ATOM     18  C   UNL     1      34.813 -18.753 -21.127  0.00  0.00    +0.072 C 
ATOM     19  C   UNL     1      35.783 -19.626 -20.673  0.00  0.00    +0.026 C 
ATOM     20  C   UNL     1      35.360 -20.789 -20.041  0.00  0.00    +0.133 C 
ATOM     21  C   UNL     1      34.000 -21.034 -19.886  0.00  0.00    +0.031 C 
ATOM     22  C   UNL     1      37.236 -19.340 -20.851  0.00  0.00    +0.035 C 
ATOM     23  C   UNL     1      33.111 -20.092 -20.378  0.00  0.00    +0.097 C 
ATOM     24  C   UNL     1      33.497 -22.265 -19.216  0.00  0.00    +0.036 C 
BRANCH  20  25
ATOM     25  O   UNL     1      36.274 -21.687 -19.574  0.00  0.00    -0.472 OA
ATOM     26  C   UNL     1      36.656 -21.569 -18.206  0.00  0.00    +0.252 C 
ENDBRANCH  20  25
ENDBRANCH  16  18
ENDBRANCH   1  16
TORSDOF 5
ENDMDL
MODEL 5
REMARK VINA RESULT:      -9.3     10.369     13.263
REMARK  Name = 9568614
REMARK  5 active torsions:
REMARK  status: ('A' for Active; 'I' for Inactive)
REMARK    1  A    between atoms: S_1  and  C_5
REMARK    2  A    between atoms: S_1  and  C_16
REMARK    3  A    between atoms: C_10  and  O_14
REMARK    4  A    between atoms: C_16  and  C_18
REMARK    5  A    between atoms: C_20  and  O_25
REMARK                            x       y       z     vdW  Elec       q    Type
REMARK                         _______ _______ _______ _____ _____    ______ ____
ROOT
ATOM      1  S   UNL     1      34.923 -23.822 -13.342  0.00  0.00    +0.085 S 
ATOM      2  O   UNL     1      35.165 -24.869 -12.271  0.00  0.00    -0.252 OA
ENDROOT
BRANCH   1   5
ATOM      3  N   UNL     1      32.451 -22.841 -14.199  0.00  0.00    -0.307 N 
ATOM      4  N   UNL     1      32.550 -25.051 -13.982  0.00  0.00    -0.307 N 
ATOM      5  C   UNL     1      33.217 -23.923 -13.869  0.00  0.00    +0.226 C 
ATOM      6  C   UNL     1      31.207 -23.300 -14.550  0.00  0.00    +0.063 C 
ATOM      7  C   UNL     1      31.295 -24.681 -14.406  0.00  0.00    +0.060 C 
ATOM      8  C   UNL     1      30.049 -22.644 -14.968  0.00  0.00    +0.052 C 
ATOM      9  C   UNL     1      30.168 -25.472 -14.691  0.00  0.00    +0.019 C 
ATOM     10  C   UNL     1      28.937 -23.447 -15.248  0.00  0.00    +0.140 C 
ATOM     11  C   UNL     1      28.994 -24.835 -15.113  0.00  0.00    +0.038 C 
ATOM     12  H   UNL     1      32.741 -21.900 -14.189  0.00  0.00    +0.149 HD
ATOM     13  H   UNL     1      32.878 -25.961 -13.803  0.00  0.00    +0.149 HD
BRANCH  10  14
ATOM     14  O   UNL     1      27.777 -22.860 -15.660  0.00  0.00    -0.471 OA
ATOM     15  C   UNL     1      27.656 -22.574 -17.052  0.00  0.00    +0.252 C 
ENDBRANCH  10  14
ENDBRANCH   1   5
BRANCH   1  16
ATOM     16  C   UNL     1      35.761 -24.399 -14.847  0.00  0.00    +0.140 C 
BRANCH  16  18
ATOM     17  N   UNL     1      34.082 -23.992 -16.528  0.00  0.00    -0.248 NA
ATOM     18  C   UNL     1      35.300 -23.646 -16.062  0.00  0.00    +0.072 C 
ATOM     19  C   UNL     1      36.108 -22.678 -16.624  0.00  0.00    +0.026 C 
ATOM     20  C   UNL     1      35.633 -22.012 -17.748  0.00  0.00    +0.133 C 
ATOM     21  C   UNL     1      34.383 -22.336 -18.263  0.00  0.00    +0.031 C 
ATOM     22  C   UNL     1      37.447 -22.349 -16.053  0.00  0.00    +0.035 C 
ATOM     23  C   UNL     1      33.653 -23.324 -17.622  0.00  0.00    +0.097 C 
ATOM     24  C   UNL     1      33.829 -21.653 -19.465  0.00  0.00    +0.036 C 
BRANCH  20  25
ATOM     25  O   UNL     1      36.388 -21.047 -18.345  0.00  0.00    -0.472 OA
ATOM     26  C   UNL     1      36.793 -21.281 -19.691  0.00  0.00    +0.252 C 
ENDBRANCH  20  25
ENDBRANCH  16  18
ENDBRANCH   1  16
TORSDOF 5
ENDMDL
MODEL 6
REMARK VINA RESULT:      -9.3      1.637      8.463
REMARK  Name = 9568614
REMARK  5 active torsions:
REMARK  status: ('A' for Active; 'I' for Inactive)
REMARK    1  A    between atoms: S_1  and  C_5
REMARK    2  A    between atoms: S_1  and  C_16
REMARK    3  A    between atoms: C_10  and  O_14
REMARK    4  A    between atoms: C_16  and  C_18
REMARK    5  A    between atoms: C_20  and  O_25
REMARK                            x       y       z     vdW  Elec       q    Type
REMARK                         _______ _______ _______ _____ _____    ______ ____
ROOT
ATOM      1  S   UNL     1      32.821 -13.847 -24.058  0.00  0.00    +0.085 S 
ATOM      2  O   UNL     1      33.207 -13.188 -25.368  0.00  0.00    -0.252 OA
ENDROOT
BRANCH   1   5
ATOM      3  N   UNL     1      32.734 -11.246 -23.041  0.00  0.00    -0.307 N 
ATOM      4  N   UNL     1      31.895 -12.800 -21.692  0.00  0.00    -0.307 N 
ATOM      5  C   UNL     1      32.458 -12.572 -22.858  0.00  0.00    +0.226 C 
ATOM      6  C   UNL     1      32.320 -10.574 -21.920  0.00  0.00    +0.063 C 
ATOM      7  C   UNL     1      31.801 -11.565 -21.094  0.00  0.00    +0.060 C 
ATOM      8  C   UNL     1      32.356  -9.223 -21.569  0.00  0.00    +0.052 C 
ATOM      9  C   UNL     1      31.281 -11.207 -19.837  0.00  0.00    +0.019 C 
ATOM     10  C   UNL     1      31.834  -8.885 -20.315  0.00  0.00    +0.140 C 
ATOM     11  C   UNL     1      31.306  -9.858 -19.464  0.00  0.00    +0.038 C 
ATOM     12  H   UNL     1      33.153 -10.845 -23.836  0.00  0.00    +0.149 HD
ATOM     13  H   UNL     1      31.603 -13.667 -21.328  0.00  0.00    +0.149 HD
BRANCH  10  14
ATOM     14  O   UNL     1      31.843  -7.580 -19.919  0.00  0.00    -0.471 OA
ATOM     15  C   UNL     1      32.005  -6.596 -20.938  0.00  0.00    +0.252 C 
ENDBRANCH  10  14
ENDBRANCH   1   5
BRANCH   1  16
ATOM     16  C   UNL     1      34.339 -14.540 -23.344  0.00  0.00    +0.140 C 
BRANCH  16  18
ATOM     17  N   UNL     1      34.375 -16.326 -24.961  0.00  0.00    -0.248 NA
ATOM     18  C   UNL     1      34.484 -16.002 -23.657  0.00  0.00    +0.072 C 
ATOM     19  C   UNL     1      34.710 -16.908 -22.639  0.00  0.00    +0.026 C 
ATOM     20  C   UNL     1      34.834 -18.249 -22.985  0.00  0.00    +0.133 C 
ATOM     21  C   UNL     1      34.730 -18.630 -24.318  0.00  0.00    +0.031 C 
ATOM     22  C   UNL     1      34.818 -16.475 -21.216  0.00  0.00    +0.035 C 
ATOM     23  C   UNL     1      34.502 -17.639 -25.260  0.00  0.00    +0.097 C 
ATOM     24  C   UNL     1      34.856 -20.053 -24.739  0.00  0.00    +0.036 C 
BRANCH  20  25
ATOM     25  O   UNL     1      35.058 -19.187 -22.022  0.00  0.00    -0.472 OA
ATOM     26  C   UNL     1      33.918 -19.693 -21.332  0.00  0.00    +0.252 C 
ENDBRANCH  20  25
ENDBRANCH  16  18
ENDBRANCH   1  16
TORSDOF 5
ENDMDL
MODEL 7
REMARK VINA RESULT:      -9.2      2.519      3.871
REMARK  Name = 9568614
REMARK  5 active torsions:
REMARK  status: ('A' for Active; 'I' for Inactive)
REMARK    1  A    between atoms: S_1  and  C_5
REMARK    2  A    between atoms: S_1  and  C_16
REMARK    3  A    between atoms: C_10  and  O_14
REMARK    4  A    between atoms: C_16  and  C_18
REMARK    5  A    between atoms: C_20  and  O_25
REMARK                            x       y       z     vdW  Elec       q    Type
REMARK                         _______ _______ _______ _____ _____    ______ ____
ROOT
ATOM      1  S   UNL     1      34.881 -15.944 -22.165  0.00  0.00    +0.085 S 
ATOM      2  O   UNL     1      35.561 -16.032 -23.518  0.00  0.00    -0.252 OA
ENDROOT
BRANCH   1   5
ATOM      3  N   UNL     1      33.636 -18.236 -21.162  0.00  0.00    -0.307 N 
ATOM      4  N   UNL     1      35.858 -18.305 -21.153  0.00  0.00    -0.307 N 
ATOM      5  C   UNL     1      34.801 -17.584 -21.456  0.00  0.00    +0.226 C 
ATOM      6  C   UNL     1      33.963 -19.460 -20.636  0.00  0.00    +0.063 C 
ATOM      7  C   UNL     1      35.354 -19.478 -20.641  0.00  0.00    +0.060 C 
ATOM      8  C   UNL     1      33.183 -20.519 -20.171  0.00  0.00    +0.052 C 
ATOM      9  C   UNL     1      36.025 -20.614 -20.155  0.00  0.00    +0.019 C 
ATOM     10  C   UNL     1      33.868 -21.641 -19.691  0.00  0.00    +0.140 C 
ATOM     11  C   UNL     1      35.263 -21.689 -19.683  0.00  0.00    +0.038 C 
ATOM     12  H   UNL     1      32.726 -17.890 -21.305  0.00  0.00    +0.149 HD
ATOM     13  H   UNL     1      36.803 -18.059 -21.268  0.00  0.00    +0.149 HD
BRANCH  10  14
ATOM     14  O   UNL     1      33.157 -22.707 -19.223  0.00  0.00    -0.471 OA
ATOM     15  C   UNL     1      33.297 -23.020 -17.839  0.00  0.00    +0.252 C 
ENDBRANCH  10  14
ENDBRANCH   1   5
BRANCH   1  16
ATOM     16  C   UNL     1      33.118 -15.638 -22.474  0.00  0.00    +0.140 C 
BRANCH  16  18
ATOM     17  N   UNL     1      32.392 -14.130 -20.740  0.00  0.00    -0.248 NA
ATOM     18  C   UNL     1      32.711 -14.258 -22.044  0.00  0.00    +0.072 C 
ATOM     19  C   UNL     1      32.680 -13.228 -22.964  0.00  0.00    +0.026 C 
ATOM     20  C   UNL     1      32.295 -11.971 -22.513  0.00  0.00    +0.133 C 
ATOM     21  C   UNL     1      31.957 -11.792 -21.175  0.00  0.00    +0.031 C 
ATOM     22  C   UNL     1      33.047 -13.445 -24.393  0.00  0.00    +0.035 C 
ATOM     23  C   UNL     1      32.021 -12.894 -20.337  0.00  0.00    +0.097 C 
ATOM     24  C   UNL     1      31.537 -10.466 -20.643  0.00  0.00    +0.036 C 
BRANCH  20  25
ATOM     25  O   UNL     1      32.247 -10.917 -23.375  0.00  0.00    -0.472 OA
ATOM     26  C   UNL     1      33.450 -10.175 -23.559  0.00  0.00    +0.252 C 
ENDBRANCH  20  25
ENDBRANCH  16  18
ENDBRANCH   1  16
TORSDOF 5
ENDMDL
MODEL 8
REMARK VINA RESULT:      -9.0      3.047      9.537
REMARK  Name = 9568614
REMARK  5 active torsions:
REMARK  status: ('A' for Active; 'I' for Inactive)
REMARK    1  A    between atoms: S_1  and  C_5
REMARK    2  A    between atoms: S_1  and  C_16
REMARK    3  A    between atoms: C_10  and  O_14
REMARK    4  A    between atoms: C_16  and  C_18
REMARK    5  A    between atoms: C_20  and  O_25
REMARK                            x       y       z     vdW  Elec       q    Type
REMARK                         _______ _______ _______ _____ _____    ______ ____
ROOT
ATOM      1  S   UNL     1      31.916 -10.934 -20.759  0.00  0.00    +0.085 S 
ATOM      2  O   UNL     1      30.676 -11.158 -19.915  0.00  0.00    -0.252 OA
ENDROOT
BRANCH   1   5
ATOM      3  N   UNL     1      31.984  -8.156 -21.064  0.00  0.00    -0.307 N 
ATOM      4  N   UNL     1      31.374  -9.278 -22.884  0.00  0.00    -0.307 N 
ATOM      5  C   UNL     1      31.746  -9.379 -21.627  0.00  0.00    +0.226 C 
ATOM      6  C   UNL     1      31.751  -7.203 -22.022  0.00  0.00    +0.063 C 
ATOM      7  C   UNL     1      31.373  -7.928 -23.147  0.00  0.00    +0.060 C 
ATOM      8  C   UNL     1      31.838  -5.810 -21.999  0.00  0.00    +0.052 C 
ATOM      9  C   UNL     1      31.056  -7.239 -24.331  0.00  0.00    +0.019 C 
ATOM     10  C   UNL     1      31.520  -5.141 -23.186  0.00  0.00    +0.140 C 
ATOM     11  C   UNL     1      31.136  -5.841 -24.332  0.00  0.00    +0.038 C 
ATOM     12  H   UNL     1      32.272  -7.990 -20.138  0.00  0.00    +0.149 HD
ATOM     13  H   UNL     1      31.148 -10.009 -23.502  0.00  0.00    +0.149 HD
BRANCH  10  14
ATOM     14  O   UNL     1      31.587  -3.779 -23.222  0.00  0.00    -0.471 OA
ATOM     15  C   UNL     1      31.364  -3.154 -24.485  0.00  0.00    +0.252 C 
ENDBRANCH  10  14
ENDBRANCH   1   5
BRANCH   1  16
ATOM     16  C   UNL     1      31.828 -12.093 -22.153  0.00  0.00    +0.140 C 
BRANCH  16  18
ATOM     17  N   UNL     1      32.472 -13.910 -20.706  0.00  0.00    -0.248 NA
ATOM     18  C   UNL     1      32.654 -13.323 -21.906  0.00  0.00    +0.072 C 
ATOM     19  C   UNL     1      33.527 -13.777 -22.876  0.00  0.00    +0.026 C 
ATOM     20  C   UNL     1      34.268 -14.919 -22.595  0.00  0.00    +0.133 C 
ATOM     21  C   UNL     1      34.112 -15.557 -21.370  0.00  0.00    +0.031 C 
ATOM     22  C   UNL     1      33.676 -13.074 -24.184  0.00  0.00    +0.035 C 
ATOM     23  C   UNL     1      33.209 -15.017 -20.467  0.00  0.00    +0.097 C 
ATOM     24  C   UNL     1      34.882 -16.783 -21.020  0.00  0.00    +0.036 C 
BRANCH  20  25
ATOM     25  O   UNL     1      35.144 -15.412 -23.515  0.00  0.00    -0.472 OA
ATOM     26  C   UNL     1      34.650 -16.399 -24.416  0.00  0.00    +0.252 C 
ENDBRANCH  20  25
ENDBRANCH  16  18
ENDBRANCH   1  16
TORSDOF 5
ENDMDL
MODEL 9
REMARK VINA RESULT:      -8.9      3.037      5.401
REMARK  Name = 9568614
REMARK  5 active torsions:
REMARK  status: ('A' for Active; 'I' for Inactive)
REMARK    1  A    between atoms: S_1  and  C_5
REMARK    2  A    between atoms: S_1  and  C_16
REMARK    3  A    between atoms: C_10  and  O_14
REMARK    4  A    between atoms: C_16  and  C_18
REMARK    5  A    between atoms: C_20  and  O_25
REMARK                            x       y       z     vdW  Elec       q    Type
REMARK                         _______ _______ _______ _____ _____    ______ ____
ROOT
ATOM      1  S   UNL     1      35.746 -18.365 -22.523  0.00  0.00    +0.085 S 
ATOM      2  O   UNL     1      35.195 -18.900 -23.831  0.00  0.00    -0.252 OA
ENDROOT
BRANCH   1   5
ATOM      3  N   UNL     1      36.324 -20.011 -20.341  0.00  0.00    -0.307 N 
ATOM      4  N   UNL     1      34.207 -20.068 -21.014  0.00  0.00    -0.307 N 
ATOM      5  C   UNL     1      35.394 -19.544 -21.226  0.00  0.00    +0.226 C 
ATOM      6  C   UNL     1      35.696 -20.893 -19.500  0.00  0.00    +0.063 C 
ATOM      7  C   UNL     1      34.376 -20.911 -19.940  0.00  0.00    +0.060 C 
ATOM      8  C   UNL     1      36.156 -21.654 -18.424  0.00  0.00    +0.052 C 
ATOM      9  C   UNL     1      33.445 -21.732 -19.280  0.00  0.00    +0.019 C 
ATOM     10  C   UNL     1      35.215 -22.464 -17.778  0.00  0.00    +0.140 C 
ATOM     11  C   UNL     1      33.884 -22.504 -18.198  0.00  0.00    +0.038 C 
ATOM     12  H   UNL     1      37.275 -19.758 -20.311  0.00  0.00    +0.149 HD
ATOM     13  H   UNL     1      33.377 -19.893 -21.514  0.00  0.00    +0.149 HD
BRANCH  10  14
ATOM     14  O   UNL     1      35.609 -23.230 -16.720  0.00  0.00    -0.471 OA
ATOM     15  C   UNL     1      36.743 -22.780 -15.983  0.00  0.00    +0.252 C 
ENDBRANCH  10  14
ENDBRANCH   1   5
BRANCH   1  16
ATOM     16  C   UNL     1      34.670 -16.994 -22.015  0.00  0.00    +0.140 C 
BRANCH  16  18
ATOM     17  N   UNL     1      34.338 -16.772 -24.391  0.00  0.00    -0.248 NA
ATOM     18  C   UNL     1      34.227 -16.170 -23.190  0.00  0.00    +0.072 C 
ATOM     19  C   UNL     1      33.748 -14.889 -22.996  0.00  0.00    +0.026 C 
ATOM     20  C   UNL     1      33.353 -14.170 -24.118  0.00  0.00    +0.133 C 
ATOM     21  C   UNL     1      33.449 -14.751 -25.377  0.00  0.00    +0.031 C 
ATOM     22  C   UNL     1      33.654 -14.288 -21.633  0.00  0.00    +0.035 C 
ATOM     23  C   UNL     1      33.944 -16.043 -25.460  0.00  0.00    +0.097 C 
ATOM     24  C   UNL     1      33.039 -14.023 -26.610  0.00  0.00    +0.036 C 
BRANCH  20  25
ATOM     25  O   UNL     1      32.872 -12.902 -23.986  0.00  0.00    -0.472 OA
ATOM     26  C   UNL     1      33.819 -11.839 -24.065  0.00  0.00    +0.252 C 
ENDBRANCH  20  25
ENDBRANCH  16  18
ENDBRANCH   1  16
TORSDOF 5
ENDMDL
