MODEL 1
REMARK VINA RESULT:      -7.4      0.000      0.000
REMARK  Name = 6
REMARK  2 active torsions:
REMARK  status: ('A' for Active; 'I' for Inactive)
REMARK    1  A    between atoms: C_2  and  N_10
REMARK    2  A    between atoms: C_3  and  N_13
REMARK                            x       y       z     vdW  Elec       q    Type
REMARK                         _______ _______ _______ _____ _____    ______ ____
ROOT
ATOM      1 CL   UNL     1      34.738 -24.308 -13.100  0.00  0.00    -0.081 Cl
ATOM      2  C   UNL     1      37.450 -24.400 -12.764  0.00  0.00    +0.155 C 
ATOM      3  C   UNL     1      38.902 -25.636 -14.248  0.00  0.00    +0.145 C 
ATOM      4  C   UNL     1      38.729 -24.818 -13.131  0.00  0.00    +0.049 C 
ATOM      5  C   UNL     1      36.343 -24.800 -13.513  0.00  0.00    +0.080 C 
ATOM      6  C   UNL     1      37.795 -26.035 -14.998  0.00  0.00    +0.025 C 
ATOM      7  C   UNL     1      36.516 -25.616 -14.630  0.00  0.00    +0.015 C 
ENDROOT
BRANCH   2  10
ATOM      8  O   UNL     1      36.903 -24.076 -10.547  0.00  0.00    -0.126 OA
ATOM      9  O   UNL     1      37.607 -22.354 -11.712  0.00  0.00    -0.126 OA
ATOM     10  N   UNL     1      37.313 -23.568 -11.617  0.00  0.00    +0.059 N 
ENDBRANCH   2  10
BRANCH   3  13
ATOM     11  O   UNL     1      40.969 -26.522 -13.743  0.00  0.00    -0.126 OA
ATOM     12  O   UNL     1      40.551 -25.968 -15.825  0.00  0.00    -0.126 OA
ATOM     13  N   UNL     1      40.203 -26.062 -14.623  0.00  0.00    +0.058 N 
ENDBRANCH   3  13
TORSDOF 2
ENDMDL
MODEL 2
REMARK VINA RESULT:      -6.8      8.955      9.674
REMARK  Name = 6
REMARK  2 active torsions:
REMARK  status: ('A' for Active; 'I' for Inactive)
REMARK    1  A    between atoms: C_2  and  N_10
REMARK    2  A    between atoms: C_3  and  N_13
REMARK                            x       y       z     vdW  Elec       q    Type
REMARK                         _______ _______ _______ _____ _____    ______ ____
ROOT
ATOM      1 CL   UNL     1      37.289 -18.890 -21.450  0.00  0.00    -0.081 Cl
ATOM      2  C   UNL     1      34.769 -19.791 -20.895  0.00  0.00    +0.155 C 
ATOM      3  C   UNL     1      34.349 -21.635 -19.391  0.00  0.00    +0.145 C 
ATOM      4  C   UNL     1      33.873 -20.646 -20.252  0.00  0.00    +0.049 C 
ATOM      5  C   UNL     1      36.140 -19.925 -20.678  0.00  0.00    +0.080 C 
ATOM      6  C   UNL     1      35.721 -21.769 -19.173  0.00  0.00    +0.025 C 
ATOM      7  C   UNL     1      36.616 -20.913 -19.816  0.00  0.00    +0.015 C 
ENDROOT
BRANCH   2  10
ATOM      8  O   UNL     1      33.836 -17.718 -21.279  0.00  0.00    -0.126 OA
ATOM      9  O   UNL     1      34.210 -19.029 -22.999  0.00  0.00    -0.126 OA
ATOM     10  N   UNL     1      34.245 -18.796 -21.768  0.00  0.00    +0.059 N 
ENDBRANCH   2  10
BRANCH   3  13
ATOM     11  O   UNL     1      33.780 -23.695 -18.527  0.00  0.00    -0.126 OA
ATOM     12  O   UNL     1      32.321 -22.062 -18.381  0.00  0.00    -0.126 OA
ATOM     13  N   UNL     1      33.440 -22.506 -18.735  0.00  0.00    +0.058 N 
ENDBRANCH   3  13
TORSDOF 2
ENDMDL
MODEL 3
REMARK VINA RESULT:      -6.8      2.296      2.813
REMARK  Name = 6
REMARK  2 active torsions:
REMARK  status: ('A' for Active; 'I' for Inactive)
REMARK    1  A    between atoms: C_2  and  N_10
REMARK    2  A    between atoms: C_3  and  N_13
REMARK                            x       y       z     vdW  Elec       q    Type
REMARK                         _______ _______ _______ _____ _____    ______ ____
ROOT
ATOM      1 CL   UNL     1      35.209 -23.946 -12.560  0.00  0.00    -0.081 Cl
ATOM      2  C   UNL     1      37.033 -24.370 -14.552  0.00  0.00    +0.155 C 
ATOM      3  C   UNL     1      39.106 -25.557 -14.186  0.00  0.00    +0.145 C 
ATOM      4  C   UNL     1      38.240 -24.873 -15.039  0.00  0.00    +0.049 C 
ATOM      5  C   UNL     1      36.693 -24.550 -13.211  0.00  0.00    +0.080 C 
ATOM      6  C   UNL     1      38.765 -25.737 -12.845  0.00  0.00    +0.025 C 
ATOM      7  C   UNL     1      37.558 -25.234 -12.359  0.00  0.00    +0.015 C 
ENDROOT
BRANCH   2  10
ATOM      8  O   UNL     1      36.389 -22.461 -15.673  0.00  0.00    -0.126 OA
ATOM      9  O   UNL     1      35.238 -24.302 -15.997  0.00  0.00    -0.126 OA
ATOM     10  N   UNL     1      36.177 -23.676 -15.453  0.00  0.00    +0.059 N 
ENDBRANCH   2  10
BRANCH   3  13
ATOM     11  O   UNL     1      40.598 -25.945 -15.900  0.00  0.00    -0.126 OA
ATOM     12  O   UNL     1      41.122 -26.634 -13.883  0.00  0.00    -0.126 OA
ATOM     13  N   UNL     1      40.334 -26.070 -14.680  0.00  0.00    +0.058 N 
ENDBRANCH   3  13
TORSDOF 2
ENDMDL
MODEL 4
REMARK VINA RESULT:      -6.7     13.811     14.359
REMARK  Name = 6
REMARK  2 active torsions:
REMARK  status: ('A' for Active; 'I' for Inactive)
REMARK    1  A    between atoms: C_2  and  N_10
REMARK    2  A    between atoms: C_3  and  N_13
REMARK                            x       y       z     vdW  Elec       q    Type
REMARK                         _______ _______ _______ _____ _____    ______ ____
ROOT
ATOM      1 CL   UNL     1      32.989 -14.926 -26.457  0.00  0.00    -0.081 Cl
ATOM      2  C   UNL     1      33.850 -15.002 -23.863  0.00  0.00    +0.155 C 
ATOM      3  C   UNL     1      34.982 -16.920 -22.925  0.00  0.00    +0.145 C 
ATOM      4  C   UNL     1      34.468 -15.631 -22.782  0.00  0.00    +0.049 C 
ATOM      5  C   UNL     1      33.745 -15.662 -25.088  0.00  0.00    +0.080 C 
ATOM      6  C   UNL     1      34.878 -17.580 -24.150  0.00  0.00    +0.025 C 
ATOM      7  C   UNL     1      34.260 -16.950 -25.231  0.00  0.00    +0.015 C 
ENDROOT
BRANCH   2  10
ATOM      8  O   UNL     1      33.991 -12.715 -24.118  0.00  0.00    -0.126 OA
ATOM      9  O   UNL     1      32.244 -13.545 -23.080  0.00  0.00    -0.126 OA
ATOM     10  N   UNL     1      33.335 -13.688 -23.678  0.00  0.00    +0.059 N 
ENDBRANCH   2  10
BRANCH   3  13
ATOM     11  O   UNL     1      36.502 -18.416 -22.050  0.00  0.00    -0.126 OA
ATOM     12  O   UNL     1      35.262 -17.254 -20.661  0.00  0.00    -0.126 OA
ATOM     13  N   UNL     1      35.612 -17.560 -21.826  0.00  0.00    +0.058 N 
ENDBRANCH   3  13
TORSDOF 2
ENDMDL
MODEL 5
REMARK VINA RESULT:      -6.7     13.662     14.263
REMARK  Name = 6
REMARK  2 active torsions:
REMARK  status: ('A' for Active; 'I' for Inactive)
REMARK    1  A    between atoms: C_2  and  N_10
REMARK    2  A    between atoms: C_3  and  N_13
REMARK                            x       y       z     vdW  Elec       q    Type
REMARK                         _______ _______ _______ _____ _____    ______ ____
ROOT
ATOM      1 CL   UNL     1      35.387 -18.322 -21.312  0.00  0.00    -0.081 Cl
ATOM      2  C   UNL     1      34.149 -16.085 -22.280  0.00  0.00    +0.155 C 
ATOM      3  C   UNL     1      33.891 -15.662 -24.645  0.00  0.00    +0.145 C 
ATOM      4  C   UNL     1      33.692 -15.274 -23.320  0.00  0.00    +0.049 C 
ATOM      5  C   UNL     1      34.804 -17.283 -22.565  0.00  0.00    +0.080 C 
ATOM      6  C   UNL     1      34.547 -16.860 -24.930  0.00  0.00    +0.025 C 
ATOM      7  C   UNL     1      35.002 -17.670 -23.890  0.00  0.00    +0.015 C 
ENDROOT
BRANCH   2  10
ATOM      8  O   UNL     1      34.908 -15.267 -20.262  0.00  0.00    -0.126 OA
ATOM      9  O   UNL     1      32.763 -15.679 -20.482  0.00  0.00    -0.126 OA
ATOM     10  N   UNL     1      33.929 -15.655 -20.941  0.00  0.00    +0.059 N 
ENDBRANCH   2  10
BRANCH   3  13
ATOM     11  O   UNL     1      33.423 -15.296 -26.872  0.00  0.00    -0.126 OA
ATOM     12  O   UNL     1      33.034 -13.676 -25.443  0.00  0.00    -0.126 OA
ATOM     13  N   UNL     1      33.428 -14.839 -25.704  0.00  0.00    +0.058 N 
ENDBRANCH   3  13
TORSDOF 2
ENDMDL
MODEL 6
REMARK VINA RESULT:      -6.6     14.223     14.733
REMARK  Name = 6
REMARK  2 active torsions:
REMARK  status: ('A' for Active; 'I' for Inactive)
REMARK    1  A    between atoms: C_2  and  N_10
REMARK    2  A    between atoms: C_3  and  N_13
REMARK                            x       y       z     vdW  Elec       q    Type
REMARK                         _______ _______ _______ _____ _____    ______ ____
ROOT
ATOM      1 CL   UNL     1      32.459 -13.437 -20.561  0.00  0.00    -0.081 Cl
ATOM      2  C   UNL     1      33.654 -15.289 -22.178  0.00  0.00    +0.155 C 
ATOM      3  C   UNL     1      33.610 -15.131 -24.589  0.00  0.00    +0.145 C 
ATOM      4  C   UNL     1      34.002 -15.800 -23.429  0.00  0.00    +0.049 C 
ATOM      5  C   UNL     1      32.914 -14.110 -22.087  0.00  0.00    +0.080 C 
ATOM      6  C   UNL     1      32.869 -13.952 -24.497  0.00  0.00    +0.025 C 
ATOM      7  C   UNL     1      32.523 -13.442 -23.246  0.00  0.00    +0.015 C 
ENDROOT
BRANCH   2  10
ATOM      8  O   UNL     1      34.913 -15.472 -20.255  0.00  0.00    -0.126 OA
ATOM      9  O   UNL     1      33.583 -17.132 -20.795  0.00  0.00    -0.126 OA
ATOM     10  N   UNL     1      34.071 -16.000 -21.017  0.00  0.00    +0.059 N 
ENDBRANCH   2  10
BRANCH   3  13
ATOM     11  O   UNL     1      34.682 -16.674 -25.923  0.00  0.00    -0.126 OA
ATOM     12  O   UNL     1      33.545 -15.067 -26.893  0.00  0.00    -0.126 OA
ATOM     13  N   UNL     1      33.963 -15.649 -25.862  0.00  0.00    +0.058 N 
ENDBRANCH   3  13
TORSDOF 2
ENDMDL
MODEL 7
REMARK VINA RESULT:      -6.6     13.066     13.670
REMARK  Name = 6
REMARK  2 active torsions:
REMARK  status: ('A' for Active; 'I' for Inactive)
REMARK    1  A    between atoms: C_2  and  N_10
REMARK    2  A    between atoms: C_3  and  N_13
REMARK                            x       y       z     vdW  Elec       q    Type
REMARK                         _______ _______ _______ _____ _____    ______ ____
ROOT
ATOM      1 CL   UNL     1      33.984 -13.326 -23.760  0.00  0.00    -0.081 Cl
ATOM      2  C   UNL     1      34.323 -16.039 -23.718  0.00  0.00    +0.155 C 
ATOM      3  C   UNL     1      34.764 -17.262 -21.681  0.00  0.00    +0.145 C 
ATOM      4  C   UNL     1      34.565 -17.246 -23.062  0.00  0.00    +0.049 C 
ATOM      5  C   UNL     1      34.281 -14.847 -22.994  0.00  0.00    +0.080 C 
ATOM      6  C   UNL     1      34.722 -16.070 -20.957  0.00  0.00    +0.025 C 
ATOM      7  C   UNL     1      34.480 -14.863 -21.614  0.00  0.00    +0.015 C 
ENDROOT
BRANCH   2  10
ATOM      8  O   UNL     1      33.145 -15.450 -25.611  0.00  0.00    -0.126 OA
ATOM      9  O   UNL     1      34.938 -16.695 -25.841  0.00  0.00    -0.126 OA
ATOM     10  N   UNL     1      34.126 -16.063 -25.128  0.00  0.00    +0.059 N 
ENDBRANCH   2  10
BRANCH   3  13
ATOM     11  O   UNL     1      34.060 -19.290 -20.843  0.00  0.00    -0.126 OA
ATOM     12  O   UNL     1      36.172 -18.740 -20.608  0.00  0.00    -0.126 OA
ATOM     13  N   UNL     1      35.010 -18.489 -21.012  0.00  0.00    +0.058 N 
ENDBRANCH   3  13
TORSDOF 2
ENDMDL
MODEL 8
REMARK VINA RESULT:      -6.6      9.790     10.392
REMARK  Name = 6
REMARK  2 active torsions:
REMARK  status: ('A' for Active; 'I' for Inactive)
REMARK    1  A    between atoms: C_2  and  N_10
REMARK    2  A    between atoms: C_3  and  N_13
REMARK                            x       y       z     vdW  Elec       q    Type
REMARK                         _______ _______ _______ _____ _____    ______ ____
ROOT
ATOM      1 CL   UNL     1      36.113 -21.757 -18.630  0.00  0.00    -0.081 Cl
ATOM      2  C   UNL     1      34.419 -20.461 -20.340  0.00  0.00    +0.155 C 
ATOM      3  C   UNL     1      35.173 -18.746 -21.865  0.00  0.00    +0.145 C 
ATOM      4  C   UNL     1      34.144 -19.527 -21.339  0.00  0.00    +0.049 C 
ATOM      5  C   UNL     1      35.722 -20.613 -19.866  0.00  0.00    +0.080 C 
ATOM      6  C   UNL     1      36.476 -18.898 -21.391  0.00  0.00    +0.025 C 
ATOM      7  C   UNL     1      36.750 -19.832 -20.392  0.00  0.00    +0.015 C 
ENDROOT
BRANCH   2  10
ATOM      8  O   UNL     1      32.332 -20.650 -19.378  0.00  0.00    -0.126 OA
ATOM      9  O   UNL     1      33.440 -22.488 -19.839  0.00  0.00    -0.126 OA
ATOM     10  N   UNL     1      33.343 -21.239 -19.826  0.00  0.00    +0.059 N 
ENDBRANCH   2  10
BRANCH   3  13
ATOM     11  O   UNL     1      34.590 -18.203 -24.028  0.00  0.00    -0.126 OA
ATOM     12  O   UNL     1      34.962 -16.573 -22.607  0.00  0.00    -0.126 OA
ATOM     13  N   UNL     1      34.895 -17.795 -22.882  0.00  0.00    +0.058 N 
ENDBRANCH   3  13
TORSDOF 2
ENDMDL
MODEL 9
REMARK VINA RESULT:      -6.5     12.252     12.738
REMARK  Name = 6
REMARK  2 active torsions:
REMARK  status: ('A' for Active; 'I' for Inactive)
REMARK    1  A    between atoms: C_2  and  N_10
REMARK    2  A    between atoms: C_3  and  N_13
REMARK                            x       y       z     vdW  Elec       q    Type
REMARK                         _______ _______ _______ _____ _____    ______ ____
ROOT
ATOM      1 CL   UNL     1      33.871 -15.790 -25.503  0.00  0.00    -0.081 Cl
ATOM      2  C   UNL     1      34.188 -16.344 -22.845  0.00  0.00    +0.155 C 
ATOM      3  C   UNL     1      35.051 -18.456 -22.052  0.00  0.00    +0.145 C 
ATOM      4  C   UNL     1      34.557 -17.179 -21.790  0.00  0.00    +0.049 C 
ATOM      5  C   UNL     1      34.313 -16.786 -24.162  0.00  0.00    +0.080 C 
ATOM      6  C   UNL     1      35.177 -18.899 -23.369  0.00  0.00    +0.025 C 
ATOM      7  C   UNL     1      34.809 -18.063 -24.423  0.00  0.00    +0.015 C 
ENDROOT
BRANCH   2  10
ATOM      8  O   UNL     1      32.473 -14.923 -22.245  0.00  0.00    -0.126 OA
ATOM      9  O   UNL     1      34.470 -14.072 -22.571  0.00  0.00    -0.126 OA
ATOM     10  N   UNL     1      33.685 -15.047 -22.538  0.00  0.00    +0.059 N 
ENDBRANCH   2  10
BRANCH   3  13
ATOM     11  O   UNL     1      34.631 -20.201 -20.605  0.00  0.00    -0.126 OA
ATOM     12  O   UNL     1      36.546 -19.142 -20.436  0.00  0.00    -0.126 OA
ATOM     13  N   UNL     1      35.427 -19.307 -20.980  0.00  0.00    +0.058 N 
ENDBRANCH   3  13
TORSDOF 2
ENDMDL
