MODEL 1
REMARK VINA RESULT:      -9.0      0.000      0.000
REMARK  Name = 5287620
REMARK  2 active torsions:
REMARK  status: ('A' for Active; 'I' for Inactive)
REMARK    1  A    between atoms: C_7  and  O_19
REMARK    2  A    between atoms: C_8  and  O_21
REMARK                            x       y       z     vdW  Elec       q    Type
REMARK                         _______ _______ _______ _____ _____    ______ ____
ROOT
ATOM      1  O   UNL     1      33.521 -17.730 -21.387  0.00  0.00    -0.449 OA
ATOM      2  O   UNL     1      35.292 -16.469 -20.584  0.00  0.00    -0.245 OA
ATOM      3  C   UNL     1      33.814 -13.764 -24.823  0.00  0.00    +0.038 C 
ATOM      4  C   UNL     1      33.265 -15.096 -25.403  0.00  0.00    +0.027 C 
ATOM      5  C   UNL     1      33.176 -12.689 -25.715  0.00  0.00    +0.032 C 
ATOM      6  C   UNL     1      32.853 -14.778 -26.859  0.00  0.00    +0.034 C 
ATOM      7  C   UNL     1      33.218 -13.317 -27.099  0.00  0.00    +0.111 C 
ATOM      8  C   UNL     1      33.509 -13.532 -23.330  0.00  0.00    +0.133 C 
ATOM      9  C   UNL     1      34.267 -16.223 -25.352  0.00  0.00    -0.031 C 
ATOM     10  C   UNL     1      34.159 -14.569 -22.459  0.00  0.00    +0.009 C 
ATOM     11  C   UNL     1      34.021 -17.424 -24.804  0.00  0.00    -0.031 C 
ATOM     12  C   UNL     1      35.014 -18.553 -24.782  0.00  0.00    +0.026 C 
ATOM     13  C   UNL     1      35.479 -18.930 -23.369  0.00  0.00    +0.008 C 
ATOM     14  C   UNL     1      34.415 -19.656 -22.526  0.00  0.00    +0.044 C 
ATOM     15  C   UNL     1      33.464 -15.501 -21.796  0.00  0.00    +0.080 C 
ATOM     16  C   UNL     1      34.177 -18.995 -21.159  0.00  0.00    +0.169 C 
ATOM     17  C   UNL     1      34.213 -16.589 -21.142  0.00  0.00    +0.341 C 
ATOM     18  C   UNL     1      33.244 -19.836 -20.298  0.00  0.00    +0.047 C 
ENDROOT
BRANCH   7  19
ATOM     19  O   UNL     1      34.518 -13.207 -27.668  0.00  0.00    -0.384 OA
ATOM     20  H   UNL     1      34.533 -13.654 -28.528  0.00  0.00    +0.210 HD
ENDBRANCH   7  19
BRANCH   8  21
ATOM     21  O   UNL     1      34.013 -12.250 -22.954  0.00  0.00    -0.380 OA
ATOM     22  H   UNL     1      34.978 -12.240 -23.055  0.00  0.00    +0.211 HD
ENDBRANCH   8  21
TORSDOF 2
ENDMDL
MODEL 2
REMARK VINA RESULT:      -7.9      5.431      8.793
REMARK  Name = 5287620
REMARK  2 active torsions:
REMARK  status: ('A' for Active; 'I' for Inactive)
REMARK    1  A    between atoms: C_7  and  O_19
REMARK    2  A    between atoms: C_8  and  O_21
REMARK                            x       y       z     vdW  Elec       q    Type
REMARK                         _______ _______ _______ _____ _____    ______ ____
ROOT
ATOM      1  O   UNL     1      35.030 -24.474 -16.446  0.00  0.00    -0.449 OA
ATOM      2  O   UNL     1      33.247 -23.253 -15.610  0.00  0.00    -0.245 OA
ATOM      3  C   UNL     1      34.581 -20.521 -19.878  0.00  0.00    +0.038 C 
ATOM      4  C   UNL     1      36.017 -21.088 -19.715  0.00  0.00    +0.027 C 
ATOM      5  C   UNL     1      34.575 -19.955 -21.307  0.00  0.00    +0.032 C 
ATOM      6  C   UNL     1      36.882 -20.339 -20.755  0.00  0.00    +0.034 C 
ATOM      7  C   UNL     1      35.958 -19.340 -21.442  0.00  0.00    +0.111 C 
ATOM      8  C   UNL     1      33.450 -21.545 -19.657  0.00  0.00    +0.133 C 
ATOM      9  C   UNL     1      36.568 -20.916 -18.321  0.00  0.00    -0.031 C 
ATOM     10  C   UNL     1      33.442 -22.073 -18.251  0.00  0.00    +0.009 C 
ATOM     11  C   UNL     1      37.075 -21.917 -17.583  0.00  0.00    -0.031 C 
ATOM     12  C   UNL     1      37.649 -21.733 -16.205  0.00  0.00    +0.026 C 
ATOM     13  C   UNL     1      36.844 -22.444 -15.109  0.00  0.00    +0.008 C 
ATOM     14  C   UNL     1      36.979 -23.978 -15.119  0.00  0.00    +0.044 C 
ATOM     15  C   UNL     1      33.772 -23.335 -17.948  0.00  0.00    +0.080 C 
ATOM     16  C   UNL     1      35.623 -24.700 -15.150  0.00  0.00    +0.169 C 
ATOM     17  C   UNL     1      33.929 -23.686 -16.524  0.00  0.00    +0.341 C 
ATOM     18  C   UNL     1      35.799 -26.205 -14.993  0.00  0.00    +0.047 C 
ENDROOT
BRANCH   7  19
ATOM     19  O   UNL     1      36.016 -18.072 -20.797  0.00  0.00    -0.384 OA
ATOM     20  H   UNL     1      35.379 -17.469 -21.211  0.00  0.00    +0.210 HD
ENDBRANCH   7  19
BRANCH   8  21
ATOM     21  O   UNL     1      32.198 -20.903 -19.903  0.00  0.00    -0.380 OA
ATOM     22  H   UNL     1      31.791 -20.655 -19.058  0.00  0.00    +0.211 HD
ENDBRANCH   8  21
TORSDOF 2
ENDMDL
MODEL 3
REMARK VINA RESULT:      -7.7      8.039     10.728
REMARK  Name = 5287620
REMARK  2 active torsions:
REMARK  status: ('A' for Active; 'I' for Inactive)
REMARK    1  A    between atoms: C_7  and  O_19
REMARK    2  A    between atoms: C_8  and  O_21
REMARK                            x       y       z     vdW  Elec       q    Type
REMARK                         _______ _______ _______ _____ _____    ______ ____
ROOT
ATOM      1  O   UNL     1      31.530  -7.776 -22.457  0.00  0.00    -0.449 OA
ATOM      2  O   UNL     1      32.026  -6.234 -20.799  0.00  0.00    -0.245 OA
ATOM      3  C   UNL     1      31.722  -3.226 -25.079  0.00  0.00    +0.038 C 
ATOM      4  C   UNL     1      32.110  -4.479 -25.911  0.00  0.00    +0.027 C 
ATOM      5  C   UNL     1      31.193  -2.241 -26.133  0.00  0.00    +0.032 C 
ATOM      6  C   UNL     1      32.333  -3.970 -27.354  0.00  0.00    +0.034 C 
ATOM      7  C   UNL     1      32.128  -2.460 -27.312  0.00  0.00    +0.111 C 
ATOM      8  C   UNL     1      30.694  -3.482 -23.960  0.00  0.00    +0.133 C 
ATOM      9  C   UNL     1      33.336  -5.184 -25.384  0.00  0.00    -0.031 C 
ATOM     10  C   UNL     1      31.227  -4.423 -22.917  0.00  0.00    +0.009 C 
ATOM     11  C   UNL     1      33.383  -6.494 -25.092  0.00  0.00    -0.031 C 
ATOM     12  C   UNL     1      34.617  -7.196 -24.595  0.00  0.00    +0.026 C 
ATOM     13  C   UNL     1      34.480  -7.730 -23.163  0.00  0.00    +0.008 C 
ATOM     14  C   UNL     1      33.553  -8.952 -23.030  0.00  0.00    +0.044 C 
ATOM     15  C   UNL     1      30.757  -5.665 -22.752  0.00  0.00    +0.080 C 
ATOM     16  C   UNL     1      32.460  -8.764 -21.966  0.00  0.00    +0.169 C 
ATOM     17  C   UNL     1      31.489  -6.566 -21.843  0.00  0.00    +0.341 C 
ATOM     18  C   UNL     1      31.674 -10.052 -21.754  0.00  0.00    +0.047 C 
ENDROOT
BRANCH   7  19
ATOM     19  O   UNL     1      33.366  -1.787 -27.111  0.00  0.00    -0.384 OA
ATOM     20  H   UNL     1      33.236  -0.832 -27.219  0.00  0.00    +0.210 HD
ENDBRANCH   7  19
BRANCH   8  21
ATOM     21  O   UNL     1      30.386  -2.238 -23.329  0.00  0.00    -0.380 OA
ATOM     22  H   UNL     1      30.830  -1.518 -23.802  0.00  0.00    +0.211 HD
ENDBRANCH   8  21
TORSDOF 2
ENDMDL
MODEL 4
REMARK VINA RESULT:      -7.6      1.493      5.896
REMARK  Name = 5287620
REMARK  2 active torsions:
REMARK  status: ('A' for Active; 'I' for Inactive)
REMARK    1  A    between atoms: C_7  and  O_19
REMARK    2  A    between atoms: C_8  and  O_21
REMARK                            x       y       z     vdW  Elec       q    Type
REMARK                         _______ _______ _______ _____ _____    ______ ____
ROOT
ATOM      1  O   UNL     1      34.297 -12.553 -24.461  0.00  0.00    -0.449 OA
ATOM      2  O   UNL     1      32.441 -12.396 -23.083  0.00  0.00    -0.245 OA
ATOM      3  C   UNL     1      34.450 -17.047 -21.743  0.00  0.00    +0.038 C 
ATOM      4  C   UNL     1      35.066 -17.121 -23.167  0.00  0.00    +0.027 C 
ATOM      5  C   UNL     1      35.198 -18.142 -20.967  0.00  0.00    +0.032 C 
ATOM      6  C   UNL     1      35.660 -18.542 -23.292  0.00  0.00    +0.034 C 
ATOM      7  C   UNL     1      35.331 -19.261 -21.987  0.00  0.00    +0.111 C 
ATOM      8  C   UNL     1      34.563 -15.672 -21.056  0.00  0.00    +0.133 C 
ATOM      9  C   UNL     1      34.064 -16.848 -24.261  0.00  0.00    -0.031 C 
ATOM     10  C   UNL     1      33.805 -14.611 -21.803  0.00  0.00    +0.009 C 
ATOM     11  C   UNL     1      34.237 -15.933 -25.229  0.00  0.00    -0.031 C 
ATOM     12  C   UNL     1      33.246 -15.686 -26.334  0.00  0.00    +0.026 C 
ATOM     13  C   UNL     1      32.605 -14.294 -26.280  0.00  0.00    +0.008 C 
ATOM     14  C   UNL     1      33.552 -13.146 -26.675  0.00  0.00    +0.044 C 
ATOM     15  C   UNL     1      34.410 -13.615 -22.462  0.00  0.00    +0.080 C 
ATOM     16  C   UNL     1      33.615 -12.029 -25.620  0.00  0.00    +0.169 C 
ATOM     17  C   UNL     1      33.581 -12.755 -23.326  0.00  0.00    +0.341 C 
ATOM     18  C   UNL     1      34.431 -10.845 -26.124  0.00  0.00    +0.047 C 
ENDROOT
BRANCH   7  19
ATOM     19  O   UNL     1      34.114 -19.990 -22.104  0.00  0.00    -0.384 OA
ATOM     20  H   UNL     1      34.244 -20.891 -21.773  0.00  0.00    +0.210 HD
ENDBRANCH   7  19
BRANCH   8  21
ATOM     21  O   UNL     1      34.017 -15.772 -19.740  0.00  0.00    -0.380 OA
ATOM     22  H   UNL     1      34.680 -15.484 -19.093  0.00  0.00    +0.211 HD
ENDBRANCH   8  21
TORSDOF 2
ENDMDL
MODEL 5
REMARK VINA RESULT:      -7.6      6.103      9.735
REMARK  Name = 5287620
REMARK  2 active torsions:
REMARK  status: ('A' for Active; 'I' for Inactive)
REMARK    1  A    between atoms: C_7  and  O_19
REMARK    2  A    between atoms: C_8  and  O_21
REMARK                            x       y       z     vdW  Elec       q    Type
REMARK                         _______ _______ _______ _____ _____    ______ ____
ROOT
ATOM      1  O   UNL     1      35.664 -25.020 -15.560  0.00  0.00    -0.449 OA
ATOM      2  O   UNL     1      33.941 -23.893 -14.496  0.00  0.00    -0.245 OA
ATOM      3  C   UNL     1      34.311 -21.338 -19.057  0.00  0.00    +0.038 C 
ATOM      4  C   UNL     1      35.800 -21.779 -19.110  0.00  0.00    +0.027 C 
ATOM      5  C   UNL     1      34.021 -20.866 -20.489  0.00  0.00    +0.032 C 
ATOM      6  C   UNL     1      36.413 -21.031 -20.317  0.00  0.00    +0.034 C 
ATOM      7  C   UNL     1      35.304 -20.153 -20.886  0.00  0.00    +0.111 C 
ATOM      8  C   UNL     1      33.327 -22.432 -18.598  0.00  0.00    +0.133 C 
ATOM      9  C   UNL     1      36.554 -21.477 -17.839  0.00  0.00    -0.031 C 
ATOM     10  C   UNL     1      33.596 -22.870 -17.187  0.00  0.00    +0.009 C 
ATOM     11  C   UNL     1      37.261 -22.386 -17.149  0.00  0.00    -0.031 C 
ATOM     12  C   UNL     1      38.035 -22.071 -15.898  0.00  0.00    +0.026 C 
ATOM     13  C   UNL     1      37.486 -22.773 -14.649  0.00  0.00    +0.008 C 
ATOM     14  C   UNL     1      37.753 -24.289 -14.607  0.00  0.00    +0.044 C 
ATOM     15  C   UNL     1      34.081 -24.080 -16.882  0.00  0.00    +0.080 C 
ATOM     16  C   UNL     1      36.479 -25.117 -14.373  0.00  0.00    +0.169 C 
ATOM     17  C   UNL     1      34.500 -24.327 -15.490  0.00  0.00    +0.341 C 
ATOM     18  C   UNL     1      36.811 -26.590 -14.175  0.00  0.00    +0.047 C 
ENDROOT
BRANCH   7  19
ATOM     19  O   UNL     1      35.355 -18.847 -20.323  0.00  0.00    -0.384 OA
ATOM     20  H   UNL     1      36.072 -18.802 -19.673  0.00  0.00    +0.210 HD
ENDBRANCH   7  19
BRANCH   8  21
ATOM     21  O   UNL     1      32.000 -21.908 -18.660  0.00  0.00    -0.380 OA
ATOM     22  H   UNL     1      31.980 -21.031 -18.246  0.00  0.00    +0.211 HD
ENDBRANCH   8  21
TORSDOF 2
ENDMDL
MODEL 6
REMARK VINA RESULT:      -7.3      4.889      8.831
REMARK  Name = 5287620
REMARK  2 active torsions:
REMARK  status: ('A' for Active; 'I' for Inactive)
REMARK    1  A    between atoms: C_7  and  O_19
REMARK    2  A    between atoms: C_8  and  O_21
REMARK                            x       y       z     vdW  Elec       q    Type
REMARK                         _______ _______ _______ _____ _____    ______ ____
ROOT
ATOM      1  O   UNL     1      31.979  -7.018 -23.204  0.00  0.00    -0.449 OA
ATOM      2  O   UNL     1      34.271  -6.964 -23.548  0.00  0.00    -0.245 OA
ATOM      3  C   UNL     1      33.332 -12.093 -23.025  0.00  0.00    +0.038 C 
ATOM      4  C   UNL     1      32.090 -11.714 -22.172  0.00  0.00    +0.027 C 
ATOM      5  C   UNL     1      33.102 -13.574 -23.363  0.00  0.00    +0.032 C 
ATOM      6  C   UNL     1      31.554 -13.047 -21.601  0.00  0.00    +0.034 C 
ATOM      7  C   UNL     1      32.510 -14.134 -22.080  0.00  0.00    +0.111 C 
ATOM      8  C   UNL     1      33.536 -11.236 -24.290  0.00  0.00    +0.133 C 
ATOM      9  C   UNL     1      32.404 -10.734 -21.069  0.00  0.00    -0.031 C 
ATOM     10  C   UNL     1      33.790  -9.794 -23.952  0.00  0.00    +0.009 C 
ATOM     11  C   UNL     1      31.746  -9.579 -20.879  0.00  0.00    -0.031 C 
ATOM     12  C   UNL     1      32.046  -8.619 -19.760  0.00  0.00    +0.026 C 
ATOM     13  C   UNL     1      32.588  -7.269 -20.243  0.00  0.00    +0.008 C 
ATOM     14  C   UNL     1      31.538  -6.372 -20.925  0.00  0.00    +0.044 C 
ATOM     15  C   UNL     1      32.909  -8.821 -24.215  0.00  0.00    +0.080 C 
ATOM     16  C   UNL     1      31.977  -5.882 -22.314  0.00  0.00    +0.169 C 
ATOM     17  C   UNL     1      33.171  -7.482 -23.658  0.00  0.00    +0.341 C 
ATOM     18  C   UNL     1      30.986  -4.872 -22.878  0.00  0.00    +0.047 C 
ENDROOT
BRANCH   7  19
ATOM     19  O   UNL     1      33.527 -14.376 -21.114  0.00  0.00    -0.384 OA
ATOM     20  H   UNL     1      33.254 -15.100 -20.531  0.00  0.00    +0.210 HD
ENDBRANCH   7  19
BRANCH   8  21
ATOM     21  O   UNL     1      34.668 -11.737 -25.002  0.00  0.00    -0.380 OA
ATOM     22  H   UNL     1      35.463 -11.254 -24.726  0.00  0.00    +0.211 HD
ENDBRANCH   8  21
TORSDOF 2
ENDMDL
MODEL 7
REMARK VINA RESULT:      -7.2      2.238      4.083
REMARK  Name = 5287620
REMARK  2 active torsions:
REMARK  status: ('A' for Active; 'I' for Inactive)
REMARK    1  A    between atoms: C_7  and  O_19
REMARK    2  A    between atoms: C_8  and  O_21
REMARK                            x       y       z     vdW  Elec       q    Type
REMARK                         _______ _______ _______ _____ _____    ______ ____
ROOT
ATOM      1  O   UNL     1      35.498 -17.121 -22.479  0.00  0.00    -0.449 OA
ATOM      2  O   UNL     1      34.510 -17.340 -24.564  0.00  0.00    -0.245 OA
ATOM      3  C   UNL     1      32.510 -12.813 -22.841  0.00  0.00    +0.038 C 
ATOM      4  C   UNL     1      32.733 -13.338 -21.396  0.00  0.00    +0.027 C 
ATOM      5  C   UNL     1      32.264 -11.309 -22.647  0.00  0.00    +0.032 C 
ATOM      6  C   UNL     1      32.059 -12.302 -20.467  0.00  0.00    +0.034 C 
ATOM      7  C   UNL     1      31.428 -11.255 -21.379  0.00  0.00    +0.111 C 
ATOM      8  C   UNL     1      33.670 -13.089 -23.818  0.00  0.00    +0.133 C 
ATOM      9  C   UNL     1      32.171 -14.720 -21.173  0.00  0.00    -0.031 C 
ATOM     10  C   UNL     1      33.887 -14.560 -24.027  0.00  0.00    +0.009 C 
ATOM     11  C   UNL     1      32.876 -15.748 -20.674  0.00  0.00    -0.031 C 
ATOM     12  C   UNL     1      32.301 -17.116 -20.427  0.00  0.00    +0.026 C 
ATOM     13  C   UNL     1      32.915 -18.205 -21.315  0.00  0.00    +0.008 C 
ATOM     14  C   UNL     1      34.359 -18.586 -20.941  0.00  0.00    +0.044 C 
ATOM     15  C   UNL     1      34.967 -15.207 -23.571  0.00  0.00    +0.080 C 
ATOM     16  C   UNL     1      35.328 -18.512 -22.133  0.00  0.00    +0.169 C 
ATOM     17  C   UNL     1      34.978 -16.679 -23.652  0.00  0.00    +0.341 C 
ATOM     18  C   UNL     1      36.702 -19.052 -21.757  0.00  0.00    +0.047 C 
ENDROOT
BRANCH   7  19
ATOM     19  O   UNL     1      30.069 -11.577 -21.653  0.00  0.00    -0.384 OA
ATOM     20  H   UNL     1      30.009 -12.030 -22.508  0.00  0.00    +0.210 HD
ENDBRANCH   7  19
BRANCH   8  21
ATOM     21  O   UNL     1      33.355 -12.497 -25.079  0.00  0.00    -0.380 OA
ATOM     22  H   UNL     1      32.532 -11.991 -25.002  0.00  0.00    +0.211 HD
ENDBRANCH   8  21
TORSDOF 2
ENDMDL
MODEL 8
REMARK VINA RESULT:      -7.0     10.337     12.329
REMARK  Name = 5287620
REMARK  2 active torsions:
REMARK  status: ('A' for Active; 'I' for Inactive)
REMARK    1  A    between atoms: C_7  and  O_19
REMARK    2  A    between atoms: C_8  and  O_21
REMARK                            x       y       z     vdW  Elec       q    Type
REMARK                         _______ _______ _______ _____ _____    ______ ____
ROOT
ATOM      1  O   UNL     1      36.088 -24.813 -13.798  0.00  0.00    -0.449 OA
ATOM      2  O   UNL     1      35.701 -23.232 -12.147  0.00  0.00    -0.245 OA
ATOM      3  C   UNL     1      31.129 -23.329 -14.707  0.00  0.00    +0.038 C 
ATOM      4  C   UNL     1      31.914 -23.799 -15.962  0.00  0.00    +0.027 C 
ATOM      5  C   UNL     1      29.665 -23.627 -15.063  0.00  0.00    +0.032 C 
ATOM      6  C   UNL     1      30.893 -23.784 -17.123  0.00  0.00    +0.034 C 
ATOM      7  C   UNL     1      29.585 -23.264 -16.537  0.00  0.00    +0.111 C 
ATOM      8  C   UNL     1      31.553 -24.002 -13.387  0.00  0.00    +0.133 C 
ATOM      9  C   UNL     1      33.109 -22.932 -16.274  0.00  0.00    -0.031 C 
ATOM     10  C   UNL     1      32.976 -23.684 -13.029  0.00  0.00    +0.009 C 
ATOM     11  C   UNL     1      34.355 -23.402 -16.448  0.00  0.00    -0.031 C 
ATOM     12  C   UNL     1      35.537 -22.535 -16.787  0.00  0.00    +0.026 C 
ATOM     13  C   UNL     1      36.599 -22.491 -15.682  0.00  0.00    +0.008 C 
ATOM     14  C   UNL     1      37.411 -23.791 -15.533  0.00  0.00    +0.044 C 
ATOM     15  C   UNL     1      33.955 -24.597 -13.062  0.00  0.00    +0.080 C 
ATOM     16  C   UNL     1      37.417 -24.335 -14.095  0.00  0.00    +0.169 C 
ATOM     17  C   UNL     1      35.343 -24.130 -12.892  0.00  0.00    +0.341 C 
ATOM     18  C   UNL     1      38.361 -25.523 -13.962  0.00  0.00    +0.047 C 
ENDROOT
BRANCH   7  19
ATOM     19  O   UNL     1      29.479 -21.855 -16.709  0.00  0.00    -0.384 OA
ATOM     20  H   UNL     1      28.566 -21.625 -16.938  0.00  0.00    +0.210 HD
ENDBRANCH   7  19
BRANCH   8  21
ATOM     21  O   UNL     1      30.708 -23.524 -12.339  0.00  0.00    -0.380 OA
ATOM     22  H   UNL     1      29.924 -24.091 -12.273  0.00  0.00    +0.211 HD
ENDBRANCH   8  21
TORSDOF 2
ENDMDL
MODEL 9
REMARK VINA RESULT:      -7.0      4.158      7.184
REMARK  Name = 5287620
REMARK  2 active torsions:
REMARK  status: ('A' for Active; 'I' for Inactive)
REMARK    1  A    between atoms: C_7  and  O_19
REMARK    2  A    between atoms: C_8  and  O_21
REMARK                            x       y       z     vdW  Elec       q    Type
REMARK                         _______ _______ _______ _____ _____    ______ ____
ROOT
ATOM      1  O   UNL     1      32.454 -12.833 -24.586  0.00  0.00    -0.449 OA
ATOM      2  O   UNL     1      33.662 -13.962 -22.961  0.00  0.00    -0.245 OA
ATOM      3  C   UNL     1      32.176  -9.613 -20.442  0.00  0.00    +0.038 C 
ATOM      4  C   UNL     1      32.112  -8.910 -21.825  0.00  0.00    +0.027 C 
ATOM      5  C   UNL     1      31.414  -8.657 -19.512  0.00  0.00    +0.032 C 
ATOM      6  C   UNL     1      31.861  -7.415 -21.521  0.00  0.00    +0.034 C 
ATOM      7  C   UNL     1      31.842  -7.283 -20.002  0.00  0.00    +0.111 C 
ATOM      8  C   UNL     1      31.590 -11.039 -20.411  0.00  0.00    +0.133 C 
ATOM      9  C   UNL     1      33.365  -9.098 -22.645  0.00  0.00    -0.031 C 
ATOM     10  C   UNL     1      32.357 -11.977 -21.299  0.00  0.00    +0.009 C 
ATOM     11  C   UNL     1      33.376  -9.561 -23.905  0.00  0.00    -0.031 C 
ATOM     12  C   UNL     1      34.626  -9.719 -24.727  0.00  0.00    +0.026 C 
ATOM     13  C   UNL     1      34.950 -11.179 -25.070  0.00  0.00    +0.008 C 
ATOM     14  C   UNL     1      34.010 -11.808 -26.114  0.00  0.00    +0.044 C 
ATOM     15  C   UNL     1      31.850 -12.485 -22.429  0.00  0.00    +0.080 C 
ATOM     16  C   UNL     1      33.389 -13.133 -25.643  0.00  0.00    +0.169 C 
ATOM     17  C   UNL     1      32.759 -13.226 -23.323  0.00  0.00    +0.341 C 
ATOM     18  C   UNL     1      32.601 -13.798 -26.764  0.00  0.00    +0.047 C 
ENDROOT
BRANCH   7  19
ATOM     19  O   UNL     1      33.133  -6.947 -19.508  0.00  0.00    -0.384 OA
ATOM     20  H   UNL     1      33.634  -7.758 -19.331  0.00  0.00    +0.210 HD
ENDBRANCH   7  19
BRANCH   8  21
ATOM     21  O   UNL     1      31.657 -11.531 -19.072  0.00  0.00    -0.380 OA
ATOM     22  H   UNL     1      32.510 -11.971 -18.932  0.00  0.00    +0.211 HD
ENDBRANCH   8  21
TORSDOF 2
ENDMDL
