MODEL 1
REMARK VINA RESULT:      -9.6      0.000      0.000
REMARK  Name = 7547
REMARK  2 active torsions:
REMARK  status: ('A' for Active; 'I' for Inactive)
REMARK    1  A    between atoms: N_2  and  C_9
REMARK    2  A    between atoms: N_3  and  C_16
REMARK                            x       y       z     vdW  Elec       q    Type
REMARK                         _______ _______ _______ _____ _____    ______ ____
ROOT
ATOM      1  O   UNL     1      33.694 -19.565 -20.554  0.00  0.00    -0.252 OA
ATOM      2  N   UNL     1      35.494 -19.434 -22.041  0.00  0.00    -0.268 N 
ATOM      3  N   UNL     1      35.604 -20.889 -20.251  0.00  0.00    -0.268 N 
ATOM      4  C   UNL     1      34.812 -19.920 -20.915  0.00  0.00    +0.308 C 
ATOM      5  H   UNL     1      36.387 -19.817 -22.204  0.00  0.00    +0.156 HD
ATOM      6  H   UNL     1      36.480 -21.074 -20.657  0.00  0.00    +0.156 HD
ENDROOT
BRANCH   2   9
ATOM      7 CL   UNL     1      34.494 -14.527 -22.976  0.00  0.00    -0.081 Cl
ATOM      8 CL   UNL     1      33.664 -15.416 -25.976  0.00  0.00    -0.081 Cl
ATOM      9  C   UNL     1      35.058 -18.460 -22.971  0.00  0.00    +0.052 C 
ATOM     10  C   UNL     1      34.992 -17.132 -22.583  0.00  0.00    +0.027 C 
ATOM     11  C   UNL     1      34.707 -18.857 -24.251  0.00  0.00    +0.016 C 
ATOM     12  C   UNL     1      34.562 -16.174 -23.500  0.00  0.00    +0.069 C 
ATOM     13  C   UNL     1      34.276 -17.898 -25.168  0.00  0.00    +0.014 C 
ATOM     14  C   UNL     1      34.204 -16.556 -24.793  0.00  0.00    +0.068 C 
ENDBRANCH   2   9
BRANCH   3  16
ATOM     15 CL   UNL     1      34.336 -23.962 -15.369  0.00  0.00    -0.082 Cl
ATOM     16  C   UNL     1      35.305 -21.615 -19.098  0.00  0.00    +0.052 C 
ATOM     17  C   UNL     1      34.063 -22.236 -18.967  0.00  0.00    +0.016 C 
ATOM     18  C   UNL     1      36.248 -21.720 -18.075  0.00  0.00    +0.016 C 
ATOM     19  C   UNL     1      33.763 -22.961 -17.815  0.00  0.00    +0.013 C 
ATOM     20  C   UNL     1      35.948 -22.446 -16.922  0.00  0.00    +0.013 C 
ATOM     21  C   UNL     1      34.706 -23.067 -16.791  0.00  0.00    +0.058 C 
ENDBRANCH   3  16
TORSDOF 2
ENDMDL
MODEL 2
REMARK VINA RESULT:      -9.6      3.618      4.875
REMARK  Name = 7547
REMARK  2 active torsions:
REMARK  status: ('A' for Active; 'I' for Inactive)
REMARK    1  A    between atoms: N_2  and  C_9
REMARK    2  A    between atoms: N_3  and  C_16
REMARK                            x       y       z     vdW  Elec       q    Type
REMARK                         _______ _______ _______ _____ _____    ______ ____
ROOT
ATOM      1  O   UNL     1      34.338 -15.560 -20.794  0.00  0.00    -0.252 OA
ATOM      2  N   UNL     1      33.545 -15.258 -22.974  0.00  0.00    -0.268 N 
ATOM      3  N   UNL     1      34.236 -17.356 -22.296  0.00  0.00    -0.268 N 
ATOM      4  C   UNL     1      34.067 -16.005 -21.905  0.00  0.00    +0.308 C 
ATOM      5  H   UNL     1      33.378 -15.756 -23.807  0.00  0.00    +0.156 HD
ATOM      6  H   UNL     1      33.974 -17.568 -23.221  0.00  0.00    +0.156 HD
ENDROOT
BRANCH   2   9
ATOM      7 CL   UNL     1      30.737 -11.454 -21.081  0.00  0.00    -0.081 Cl
ATOM      8 CL   UNL     1      32.279  -9.484 -23.136  0.00  0.00    -0.081 Cl
ATOM      9  C   UNL     1      33.231 -13.879 -23.001  0.00  0.00    +0.052 C 
ATOM     10  C   UNL     1      32.261 -13.387 -22.142  0.00  0.00    +0.027 C 
ATOM     11  C   UNL     1      33.900 -13.050 -23.885  0.00  0.00    +0.016 C 
ATOM     12  C   UNL     1      31.953 -12.028 -22.169  0.00  0.00    +0.069 C 
ATOM     13  C   UNL     1      33.590 -11.690 -23.913  0.00  0.00    +0.014 C 
ATOM     14  C   UNL     1      32.616 -11.178 -23.054  0.00  0.00    +0.068 C 
ENDBRANCH   2   9
BRANCH   3  16
ATOM     15 CL   UNL     1      36.298 -21.881 -19.110  0.00  0.00    -0.082 Cl
ATOM     16  C   UNL     1      34.723 -18.425 -21.544  0.00  0.00    +0.052 C 
ATOM     17  C   UNL     1      33.841 -19.371 -21.024  0.00  0.00    +0.016 C 
ATOM     18  C   UNL     1      36.093 -18.547 -21.312  0.00  0.00    +0.016 C 
ATOM     19  C   UNL     1      34.327 -20.440 -20.271  0.00  0.00    +0.013 C 
ATOM     20  C   UNL     1      36.580 -19.616 -20.558  0.00  0.00    +0.013 C 
ATOM     21  C   UNL     1      35.698 -20.563 -20.038  0.00  0.00    +0.058 C 
ENDBRANCH   3  16
TORSDOF 2
ENDMDL
MODEL 3
REMARK VINA RESULT:      -9.6      0.773      8.194
REMARK  Name = 7547
REMARK  2 active torsions:
REMARK  status: ('A' for Active; 'I' for Inactive)
REMARK    1  A    between atoms: N_2  and  C_9
REMARK    2  A    between atoms: N_3  and  C_16
REMARK                            x       y       z     vdW  Elec       q    Type
REMARK                         _______ _______ _______ _____ _____    ______ ____
ROOT
ATOM      1  O   UNL     1      33.722 -19.506 -20.629  0.00  0.00    -0.252 OA
ATOM      2  N   UNL     1      35.673 -20.759 -20.322  0.00  0.00    -0.268 N 
ATOM      3  N   UNL     1      35.531 -19.297 -22.105  0.00  0.00    -0.268 N 
ATOM      4  C   UNL     1      34.855 -19.825 -20.977  0.00  0.00    +0.308 C 
ATOM      5  H   UNL     1      36.562 -20.909 -20.720  0.00  0.00    +0.156 HD
ATOM      6  H   UNL     1      36.438 -19.646 -22.260  0.00  0.00    +0.156 HD
ENDROOT
BRANCH   2   9
ATOM      7 CL   UNL     1      37.278 -22.509 -15.816  0.00  0.00    -0.081 Cl
ATOM      8 CL   UNL     1      34.380 -23.912 -15.490  0.00  0.00    -0.081 Cl
ATOM      9  C   UNL     1      35.379 -21.511 -19.160  0.00  0.00    +0.052 C 
ATOM     10  C   UNL     1      36.341 -21.636 -18.171  0.00  0.00    +0.027 C 
ATOM     11  C   UNL     1      34.134 -22.104 -19.035  0.00  0.00    +0.016 C 
ATOM     12  C   UNL     1      36.050 -22.377 -17.026  0.00  0.00    +0.069 C 
ATOM     13  C   UNL     1      33.843 -22.846 -17.890  0.00  0.00    +0.014 C 
ATOM     14  C   UNL     1      34.801 -22.982 -16.885  0.00  0.00    +0.068 C 
ENDBRANCH   2   9
BRANCH   3  16
ATOM     15 CL   UNL     1      33.625 -15.281 -25.994  0.00  0.00    -0.082 Cl
ATOM     16  C   UNL     1      35.082 -18.349 -23.023  0.00  0.00    +0.052 C 
ATOM     17  C   UNL     1      35.080 -16.996 -22.685  0.00  0.00    +0.016 C 
ATOM     18  C   UNL     1      34.632 -18.754 -24.281  0.00  0.00    +0.016 C 
ATOM     19  C   UNL     1      34.630 -16.047 -23.603  0.00  0.00    +0.013 C 
ATOM     20  C   UNL     1      34.181 -17.804 -25.199  0.00  0.00    +0.013 C 
ATOM     21  C   UNL     1      34.180 -16.451 -24.861  0.00  0.00    +0.058 C 
ENDBRANCH   3  16
TORSDOF 2
ENDMDL
MODEL 4
REMARK VINA RESULT:      -9.6      3.525      4.831
REMARK  Name = 7547
REMARK  2 active torsions:
REMARK  status: ('A' for Active; 'I' for Inactive)
REMARK    1  A    between atoms: N_2  and  C_9
REMARK    2  A    between atoms: N_3  and  C_16
REMARK                            x       y       z     vdW  Elec       q    Type
REMARK                         _______ _______ _______ _____ _____    ______ ____
ROOT
ATOM      1  O   UNL     1      34.446 -15.568 -20.847  0.00  0.00    -0.252 OA
ATOM      2  N   UNL     1      33.550 -15.315 -22.992  0.00  0.00    -0.268 N 
ATOM      3  N   UNL     1      34.245 -17.403 -22.290  0.00  0.00    -0.268 N 
ATOM      4  C   UNL     1      34.114 -16.039 -21.930  0.00  0.00    +0.308 C 
ATOM      5  H   UNL     1      33.335 -15.833 -23.802  0.00  0.00    +0.156 HD
ATOM      6  H   UNL     1      33.935 -17.636 -23.194  0.00  0.00    +0.156 HD
ENDROOT
BRANCH   2   9
ATOM      7 CL   UNL     1      34.553 -10.779 -25.082  0.00  0.00    -0.081 Cl
ATOM      8 CL   UNL     1      32.261  -9.546 -23.158  0.00  0.00    -0.081 Cl
ATOM      9  C   UNL     1      33.253 -13.932 -23.043  0.00  0.00    +0.052 C 
ATOM     10  C   UNL     1      33.952 -13.120 -23.922  0.00  0.00    +0.027 C 
ATOM     11  C   UNL     1      32.270 -13.420 -22.214  0.00  0.00    +0.016 C 
ATOM     12  C   UNL     1      33.658 -11.758 -23.972  0.00  0.00    +0.069 C 
ATOM     13  C   UNL     1      31.976 -12.057 -22.264  0.00  0.00    +0.014 C 
ATOM     14  C   UNL     1      32.671 -11.225 -23.143  0.00  0.00    +0.068 C 
ENDBRANCH   2   9
BRANCH   3  16
ATOM     15 CL   UNL     1      36.403 -21.868 -19.083  0.00  0.00    -0.082 Cl
ATOM     16  C   UNL     1      34.755 -18.458 -21.534  0.00  0.00    +0.052 C 
ATOM     17  C   UNL     1      33.891 -19.411 -20.996  0.00  0.00    +0.016 C 
ATOM     18  C   UNL     1      36.129 -18.558 -21.314  0.00  0.00    +0.016 C 
ATOM     19  C   UNL     1      34.400 -20.466 -20.238  0.00  0.00    +0.013 C 
ATOM     20  C   UNL     1      36.638 -19.613 -20.555  0.00  0.00    +0.013 C 
ATOM     21  C   UNL     1      35.774 -20.567 -20.017  0.00  0.00    +0.058 C 
ENDBRANCH   3  16
TORSDOF 2
ENDMDL
MODEL 5
REMARK VINA RESULT:      -9.5      3.607      8.644
REMARK  Name = 7547
REMARK  2 active torsions:
REMARK  status: ('A' for Active; 'I' for Inactive)
REMARK    1  A    between atoms: N_2  and  C_9
REMARK    2  A    between atoms: N_3  and  C_16
REMARK                            x       y       z     vdW  Elec       q    Type
REMARK                         _______ _______ _______ _____ _____    ______ ____
ROOT
ATOM      1  O   UNL     1      34.569 -15.519 -20.892  0.00  0.00    -0.252 OA
ATOM      2  N   UNL     1      34.225 -17.366 -22.285  0.00  0.00    -0.268 N 
ATOM      3  N   UNL     1      33.505 -15.280 -22.966  0.00  0.00    -0.268 N 
ATOM      4  C   UNL     1      34.146 -16.009 -21.935  0.00  0.00    +0.308 C 
ATOM      5  H   UNL     1      33.841 -17.609 -23.159  0.00  0.00    +0.156 HD
ATOM      6  H   UNL     1      33.219 -15.806 -23.746  0.00  0.00    +0.156 HD
ENDROOT
BRANCH   2   9
ATOM      7 CL   UNL     1      33.431 -21.579 -19.534  0.00  0.00    -0.081 Cl
ATOM      8 CL   UNL     1      36.642 -21.777 -19.174  0.00  0.00    -0.081 Cl
ATOM      9  C   UNL     1      34.789 -18.427 -21.537  0.00  0.00    +0.052 C 
ATOM     10  C   UNL     1      33.953 -19.373 -20.966  0.00  0.00    +0.027 C 
ATOM     11  C   UNL     1      36.164 -18.498 -21.393  0.00  0.00    +0.016 C 
ATOM     12  C   UNL     1      34.509 -20.419 -20.230  0.00  0.00    +0.069 C 
ATOM     13  C   UNL     1      36.720 -19.544 -20.656  0.00  0.00    +0.014 C 
ATOM     14  C   UNL     1      35.892 -20.505 -20.074  0.00  0.00    +0.068 C 
ENDBRANCH   2   9
BRANCH   3  16
ATOM     15 CL   UNL     1      32.317  -9.499 -23.205  0.00  0.00    -0.082 Cl
ATOM     16  C   UNL     1      33.225 -13.914 -23.022  0.00  0.00    +0.052 C 
ATOM     17  C   UNL     1      32.256 -13.366 -22.183  0.00  0.00    +0.016 C 
ATOM     18  C   UNL     1      33.914 -13.097 -23.919  0.00  0.00    +0.016 C 
ATOM     19  C   UNL     1      31.975 -12.001 -22.239  0.00  0.00    +0.013 C 
ATOM     20  C   UNL     1      33.633 -11.731 -23.975  0.00  0.00    +0.013 C 
ATOM     21  C   UNL     1      32.663 -11.183 -23.136  0.00  0.00    +0.058 C 
ENDBRANCH   3  16
TORSDOF 2
ENDMDL
MODEL 6
REMARK VINA RESULT:      -9.1      1.867      3.162
REMARK  Name = 7547
REMARK  2 active torsions:
REMARK  status: ('A' for Active; 'I' for Inactive)
REMARK    1  A    between atoms: N_2  and  C_9
REMARK    2  A    between atoms: N_3  and  C_16
REMARK                            x       y       z     vdW  Elec       q    Type
REMARK                         _______ _______ _______ _____ _____    ______ ____
ROOT
ATOM      1  O   UNL     1      33.620 -17.313 -20.918  0.00  0.00    -0.252 OA
ATOM      2  N   UNL     1      34.581 -17.243 -23.050  0.00  0.00    -0.268 N 
ATOM      3  N   UNL     1      34.716 -19.185 -21.806  0.00  0.00    -0.268 N 
ATOM      4  C   UNL     1      34.240 -17.851 -21.831  0.00  0.00    +0.308 C 
ATOM      5  H   UNL     1      35.080 -17.804 -23.687  0.00  0.00    +0.156 HD
ATOM      6  H   UNL     1      35.197 -19.481 -22.611  0.00  0.00    +0.156 HD
ENDROOT
BRANCH   2   9
ATOM      7 CL   UNL     1      32.988 -14.190 -26.803  0.00  0.00    -0.081 Cl
ATOM      8 CL   UNL     1      33.401 -11.709 -24.766  0.00  0.00    -0.081 Cl
ATOM      9  C   UNL     1      34.294 -15.924 -23.475  0.00  0.00    +0.052 C 
ATOM     10  C   UNL     1      33.838 -15.712 -24.766  0.00  0.00    +0.027 C 
ATOM     11  C   UNL     1      34.476 -14.874 -22.592  0.00  0.00    +0.016 C 
ATOM     12  C   UNL     1      33.555 -14.412 -25.185  0.00  0.00    +0.069 C 
ATOM     13  C   UNL     1      34.194 -13.573 -23.011  0.00  0.00    +0.014 C 
ATOM     14  C   UNL     1      33.734 -13.342 -24.308  0.00  0.00    +0.068 C 
ENDBRANCH   2   9
BRANCH   3  16
ATOM     15 CL   UNL     1      34.201 -23.203 -17.508  0.00  0.00    -0.082 Cl
ATOM     16  C   UNL     1      34.595 -20.133 -20.790  0.00  0.00    +0.052 C 
ATOM     17  C   UNL     1      35.737 -20.679 -20.205  0.00  0.00    +0.016 C 
ATOM     18  C   UNL     1      33.330 -20.537 -20.361  0.00  0.00    +0.016 C 
ATOM     19  C   UNL     1      35.616 -21.628 -19.191  0.00  0.00    +0.013 C 
ATOM     20  C   UNL     1      33.209 -21.487 -19.346  0.00  0.00    +0.013 C 
ATOM     21  C   UNL     1      34.351 -22.033 -18.760  0.00  0.00    +0.058 C 
ENDBRANCH   3  16
TORSDOF 2
ENDMDL
MODEL 7
REMARK VINA RESULT:      -8.9      7.182     11.465
REMARK  Name = 7547
REMARK  2 active torsions:
REMARK  status: ('A' for Active; 'I' for Inactive)
REMARK    1  A    between atoms: N_2  and  C_9
REMARK    2  A    between atoms: N_3  and  C_16
REMARK                            x       y       z     vdW  Elec       q    Type
REMARK                         _______ _______ _______ _____ _____    ______ ____
ROOT
ATOM      1  O   UNL     1      33.512 -10.729 -23.661  0.00  0.00    -0.252 OA
ATOM      2  N   UNL     1      32.259 -12.345 -22.525  0.00  0.00    -0.268 N 
ATOM      3  N   UNL     1      31.662 -10.120 -22.357  0.00  0.00    -0.268 N 
ATOM      4  C   UNL     1      32.579 -11.038 -22.926  0.00  0.00    +0.308 C 
ATOM      5  H   UNL     1      31.478 -12.436 -21.932  0.00  0.00    +0.156 HD
ATOM      6  H   UNL     1      30.963 -10.513 -21.787  0.00  0.00    +0.156 HD
ENDROOT
BRANCH   2   9
ATOM      7 CL   UNL     1      34.925 -16.386 -20.940  0.00  0.00    -0.081 Cl
ATOM      8 CL   UNL     1      35.007 -17.362 -24.024  0.00  0.00    -0.081 Cl
ATOM      9  C   UNL     1      32.921 -13.548 -22.868  0.00  0.00    +0.052 C 
ATOM     10  C   UNL     1      33.529 -14.296 -21.873  0.00  0.00    +0.027 C 
ATOM     11  C   UNL     1      32.947 -13.952 -24.192  0.00  0.00    +0.016 C 
ATOM     12  C   UNL     1      34.180 -15.482 -22.211  0.00  0.00    +0.069 C 
ATOM     13  C   UNL     1      33.600 -15.138 -24.531  0.00  0.00    +0.014 C 
ATOM     14  C   UNL     1      34.216 -15.903 -23.541  0.00  0.00    +0.068 C 
ENDBRANCH   2   9
BRANCH   3  16
ATOM     15 CL   UNL     1      31.483  -4.247 -22.955  0.00  0.00    -0.082 Cl
ATOM     16  C   UNL     1      31.619  -8.733 -22.498  0.00  0.00    +0.052 C 
ATOM     17  C   UNL     1      31.182  -8.167 -23.695  0.00  0.00    +0.016 C 
ATOM     18  C   UNL     1      32.015  -7.912 -21.441  0.00  0.00    +0.016 C 
ATOM     19  C   UNL     1      31.140  -6.780 -23.837  0.00  0.00    +0.013 C 
ATOM     20  C   UNL     1      31.972  -6.524 -21.583  0.00  0.00    +0.013 C 
ATOM     21  C   UNL     1      31.535  -5.958 -22.780  0.00  0.00    +0.058 C 
ENDBRANCH   3  16
TORSDOF 2
ENDMDL
MODEL 8
REMARK VINA RESULT:      -8.9      7.351     11.724
REMARK  Name = 7547
REMARK  2 active torsions:
REMARK  status: ('A' for Active; 'I' for Inactive)
REMARK    1  A    between atoms: N_2  and  C_9
REMARK    2  A    between atoms: N_3  and  C_16
REMARK                            x       y       z     vdW  Elec       q    Type
REMARK                         _______ _______ _______ _____ _____    ______ ____
ROOT
ATOM      1  O   UNL     1      33.518 -10.480 -23.655  0.00  0.00    -0.252 OA
ATOM      2  N   UNL     1      32.222 -12.080 -22.547  0.00  0.00    -0.268 N 
ATOM      3  N   UNL     1      31.629  -9.852 -22.418  0.00  0.00    -0.268 N 
ATOM      4  C   UNL     1      32.560 -10.778 -22.949  0.00  0.00    +0.308 C 
ATOM      5  H   UNL     1      31.421 -12.163 -21.979  0.00  0.00    +0.156 HD
ATOM      6  H   UNL     1      30.910 -10.237 -21.868  0.00  0.00    +0.156 HD
ENDROOT
BRANCH   2   9
ATOM      7 CL   UNL     1      33.396 -15.552 -26.084  0.00  0.00    -0.081 Cl
ATOM      8 CL   UNL     1      35.033 -17.134 -23.784  0.00  0.00    -0.081 Cl
ATOM      9  C   UNL     1      32.889 -13.289 -22.858  0.00  0.00    +0.052 C 
ATOM     10  C   UNL     1      32.833 -13.781 -24.152  0.00  0.00    +0.027 C 
ATOM     11  C   UNL     1      33.585 -13.953 -21.863  0.00  0.00    +0.016 C 
ATOM     12  C   UNL     1      33.491 -14.972 -24.458  0.00  0.00    +0.069 C 
ATOM     13  C   UNL     1      34.244 -15.145 -22.169  0.00  0.00    +0.014 C 
ATOM     14  C   UNL     1      34.197 -15.654 -23.467  0.00  0.00    +0.068 C 
ENDBRANCH   2   9
BRANCH   3  16
ATOM     15 CL   UNL     1      31.495  -3.983 -23.072  0.00  0.00    -0.082 Cl
ATOM     16  C   UNL     1      31.597  -8.466 -22.572  0.00  0.00    +0.052 C 
ATOM     17  C   UNL     1      31.093  -7.906 -23.745  0.00  0.00    +0.016 C 
ATOM     18  C   UNL     1      32.070  -7.639 -21.552  0.00  0.00    +0.016 C 
ATOM     19  C   UNL     1      31.061  -6.520 -23.901  0.00  0.00    +0.013 C 
ATOM     20  C   UNL     1      32.038  -6.253 -21.707  0.00  0.00    +0.013 C 
ATOM     21  C   UNL     1      31.534  -5.693 -22.881  0.00  0.00    +0.058 C 
ENDBRANCH   3  16
TORSDOF 2
ENDMDL
MODEL 9
REMARK VINA RESULT:      -8.8      2.231      8.370
REMARK  Name = 7547
REMARK  2 active torsions:
REMARK  status: ('A' for Active; 'I' for Inactive)
REMARK    1  A    between atoms: N_2  and  C_9
REMARK    2  A    between atoms: N_3  and  C_16
REMARK                            x       y       z     vdW  Elec       q    Type
REMARK                         _______ _______ _______ _____ _____    ______ ____
ROOT
ATOM      1  O   UNL     1      33.610 -17.099 -21.040  0.00  0.00    -0.252 OA
ATOM      2  N   UNL     1      34.531 -19.024 -21.996  0.00  0.00    -0.268 N 
ATOM      3  N   UNL     1      34.413 -17.082 -23.241  0.00  0.00    -0.268 N 
ATOM      4  C   UNL     1      34.129 -17.679 -21.988  0.00  0.00    +0.308 C 
ATOM      5  H   UNL     1      34.935 -19.349 -22.833  0.00  0.00    +0.156 HD
ATOM      6  H   UNL     1      34.833 -17.671 -23.908  0.00  0.00    +0.156 HD
ENDROOT
BRANCH   2   9
ATOM      7 CL   UNL     1      36.926 -21.816 -18.472  0.00  0.00    -0.081 Cl
ATOM      8 CL   UNL     1      34.025 -22.979 -17.628  0.00  0.00    -0.081 Cl
ATOM      9  C   UNL     1      34.426 -19.971 -20.949  0.00  0.00    +0.052 C 
ATOM     10  C   UNL     1      35.574 -20.388 -20.295  0.00  0.00    +0.027 C 
ATOM     11  C   UNL     1      33.178 -20.458 -20.600  0.00  0.00    +0.016 C 
ATOM     12  C   UNL     1      35.470 -21.320 -19.263  0.00  0.00    +0.069 C 
ATOM     13  C   UNL     1      33.074 -21.391 -19.568  0.00  0.00    +0.014 C 
ATOM     14  C   UNL     1      34.220 -21.822 -18.899  0.00  0.00    +0.068 C 
ENDBRANCH   2   9
BRANCH   3  16
ATOM     15 CL   UNL     1      33.409 -11.530 -24.988  0.00  0.00    -0.082 Cl
ATOM     16  C   UNL     1      34.177 -15.771 -23.654  0.00  0.00    +0.052 C 
ATOM     17  C   UNL     1      34.435 -14.709 -22.787  0.00  0.00    +0.016 C 
ATOM     18  C   UNL     1      33.681 -15.522 -24.934  0.00  0.00    +0.016 C 
ATOM     19  C   UNL     1      34.198 -13.398 -23.199  0.00  0.00    +0.013 C 
ATOM     20  C   UNL     1      33.444 -14.209 -25.346  0.00  0.00    +0.013 C 
ATOM     21  C   UNL     1      33.702 -13.148 -24.479  0.00  0.00    +0.058 C 
ENDBRANCH   3  16
TORSDOF 2
ENDMDL
