MODEL 1
REMARK VINA RESULT:      -9.4      0.000      0.000
REMARK  Name = 9571107
REMARK  7 active torsions:
REMARK  status: ('A' for Active; 'I' for Inactive)
REMARK    1  A    between atoms: N_3  and  C_26
REMARK    2  A    between atoms: C_9  and  C_30
REMARK    3  A    between atoms: N_14  and  C_18
REMARK    4  A    between atoms: N_14  and  O_19
REMARK    5  A    between atoms: C_15  and  C_21
REMARK    6  A    between atoms: C_21  and  N_22
REMARK    7  A    between atoms: C_30  and  O_31
REMARK                            x       y       z     vdW  Elec       q    Type
REMARK                         _______ _______ _______ _____ _____    ______ ____
ROOT
ATOM      1  F   UNL     1      32.352 -15.337 -20.029  0.00  0.00    -0.200 F 
ATOM      2  O   UNL     1      30.805 -10.589 -20.854  0.00  0.00    -0.290 OA
ATOM      3  N   UNL     1      33.474 -11.441 -23.799  0.00  0.00    -0.266 N 
ATOM      4  N   UNL     1      33.810 -13.665 -22.906  0.00  0.00    -0.373 NA
ATOM      5  C   UNL     1      33.198 -12.454 -22.834  0.00  0.00    +0.177 C 
ATOM      6  C   UNL     1      32.876 -10.204 -23.700  0.00  0.00    +0.076 C 
ATOM      7  C   UNL     1      33.508 -14.591 -21.968  0.00  0.00    +0.212 C 
ATOM      8  C   UNL     1      32.279 -12.173 -21.810  0.00  0.00    +0.153 C 
ATOM      9  C   UNL     1      31.992  -9.841 -22.762  0.00  0.00    +0.126 C 
ATOM     10  C   UNL     1      31.620 -10.845 -21.731  0.00  0.00    +0.192 C 
ATOM     11  C   UNL     1      32.615 -14.385 -20.934  0.00  0.00    +0.180 C 
ATOM     12  C   UNL     1      31.989 -13.150 -20.856  0.00  0.00    +0.023 C 
ATOM     13  N   UNL     1      34.129 -15.826 -22.036  0.00  0.00    -0.280 N 
ATOM     14  C   UNL     1      35.565 -17.601 -22.778  0.00  0.00    +0.018 C 
ATOM     15  C   UNL     1      34.924 -16.266 -23.182  0.00  0.00    +0.093 C 
ATOM     16  C   UNL     1      33.873 -16.889 -21.075  0.00  0.00    +0.113 C 
ATOM     17  C   UNL     1      34.726 -18.003 -21.600  0.00  0.00    +0.122 C 
ENDROOT
BRANCH   3  18
ATOM     18  C   UNL     1      34.462 -11.692 -24.867  0.00  0.00    +0.079 C 
ATOM     19  C   UNL     1      34.997 -10.569 -25.696  0.00  0.00    +0.022 C 
ATOM     20  C   UNL     1      34.080 -11.586 -26.308  0.00  0.00    +0.022 C 
ENDBRANCH   3  18
BRANCH   9  22
ATOM     21  O   UNL     1      30.846  -8.010 -23.754  0.00  0.00    -0.245 OA
ATOM     22  C   UNL     1      31.445  -8.486 -22.805  0.00  0.00    +0.342 C 
BRANCH  22  23
ATOM     23  O   UNL     1      31.707  -7.853 -21.641  0.00  0.00    -0.477 OA
ATOM     24  H   UNL     1      31.016  -7.423 -21.176  0.00  0.00    +0.295 HD
ENDBRANCH  22  23
ENDBRANCH   9  22
BRANCH  17  25
ATOM     25  N   UNL     1      34.771 -19.177 -21.064  0.00  0.00    -0.083 NA
BRANCH  25  26
ATOM     26  O   UNL     1      33.547 -19.816 -21.302  0.00  0.00    -0.263 OA
ATOM     27  C   UNL     1      33.200 -20.550 -20.136  0.00  0.00    +0.202 C 
ENDBRANCH  25  26
ENDBRANCH  17  25
BRANCH  14  28
ATOM     28  C   UNL     1      35.550 -18.625 -23.899  0.00  0.00    -0.083 C 
BRANCH  28  29
ATOM     29  N   UNL     1      34.210 -18.987 -24.253  0.00  0.00    +0.381 N 
ATOM     30  H   UNL     1      34.126 -20.004 -24.274  0.00  0.00    -0.089 HD
ATOM     31  H   UNL     1      33.988 -18.609 -25.175  0.00  0.00    -0.089 HD
ATOM     32  H   UNL     1      33.561 -18.606 -23.564  0.00  0.00    -0.089 HD
ENDBRANCH  28  29
ENDBRANCH  14  28
TORSDOF 7
ENDMDL
MODEL 2
REMARK VINA RESULT:      -7.8      2.500      4.256
REMARK  Name = 9571107
REMARK  7 active torsions:
REMARK  status: ('A' for Active; 'I' for Inactive)
REMARK    1  A    between atoms: N_3  and  C_26
REMARK    2  A    between atoms: C_9  and  C_30
REMARK    3  A    between atoms: N_14  and  C_18
REMARK    4  A    between atoms: N_14  and  O_19
REMARK    5  A    between atoms: C_15  and  C_21
REMARK    6  A    between atoms: C_21  and  N_22
REMARK    7  A    between atoms: C_30  and  O_31
REMARK                            x       y       z     vdW  Elec       q    Type
REMARK                         _______ _______ _______ _____ _____    ______ ____
ROOT
ATOM      1  F   UNL     1      34.261 -12.155 -25.726  0.00  0.00    -0.200 F 
ATOM      2  O   UNL     1      32.811  -7.527 -24.280  0.00  0.00    -0.290 OA
ATOM      3  N   UNL     1      31.905 -10.015 -21.196  0.00  0.00    -0.266 N 
ATOM      4  N   UNL     1      32.773 -11.914 -22.420  0.00  0.00    -0.373 NA
ATOM      5  C   UNL     1      32.509 -10.582 -22.357  0.00  0.00    +0.177 C 
ATOM      6  C   UNL     1      31.608  -8.670 -21.152  0.00  0.00    +0.076 C 
ATOM      7  C   UNL     1      33.351 -12.398 -23.543  0.00  0.00    +0.212 C 
ATOM      8  C   UNL     1      32.826  -9.735 -23.430  0.00  0.00    +0.153 C 
ATOM      9  C   UNL     1      31.869  -7.785 -22.123  0.00  0.00    +0.126 C 
ATOM     10  C   UNL     1      32.528  -8.282 -23.359  0.00  0.00    +0.192 C 
ATOM     11  C   UNL     1      33.691 -11.625 -24.636  0.00  0.00    +0.180 C 
ATOM     12  C   UNL     1      33.421 -10.265 -24.576  0.00  0.00    +0.023 C 
ATOM     13  N   UNL     1      33.621 -13.753 -23.614  0.00  0.00    -0.280 N 
ATOM     14  C   UNL     1      33.732 -16.075 -23.012  0.00  0.00    +0.018 C 
ATOM     15  C   UNL     1      33.521 -14.656 -22.467  0.00  0.00    +0.093 C 
ATOM     16  C   UNL     1      34.240 -14.373 -24.776  0.00  0.00    +0.113 C 
ATOM     17  C   UNL     1      34.360 -15.803 -24.348  0.00  0.00    +0.122 C 
ENDROOT
BRANCH   3  18
ATOM     18  C   UNL     1      31.525 -10.884 -20.064  0.00  0.00    +0.079 C 
ATOM     19  C   UNL     1      30.427 -10.492 -19.131  0.00  0.00    +0.022 C 
ATOM     20  C   UNL     1      31.850 -10.500 -18.657  0.00  0.00    +0.022 C 
ENDBRANCH   3  18
BRANCH   9  22
ATOM     21  O   UNL     1      30.660  -5.788 -22.567  0.00  0.00    -0.245 OA
ATOM     22  C   UNL     1      31.494  -6.387 -21.912  0.00  0.00    +0.342 C 
BRANCH  22  23
ATOM     23  O   UNL     1      32.211  -5.874 -20.889  0.00  0.00    -0.477 OA
ATOM     24  H   UNL     1      32.654  -6.447 -20.294  0.00  0.00    +0.295 HD
ENDBRANCH  22  23
ENDBRANCH   9  22
BRANCH  17  25
ATOM     25  N   UNL     1      34.907 -16.719 -25.075  0.00  0.00    -0.083 NA
BRANCH  25  26
ATOM     26  O   UNL     1      33.902 -17.587 -25.520  0.00  0.00    -0.263 OA
ATOM     27  C   UNL     1      34.252 -18.906 -25.126  0.00  0.00    +0.202 C 
ENDBRANCH  25  26
ENDBRANCH  17  25
BRANCH  14  28
ATOM     28  C   UNL     1      34.600 -16.931 -22.107  0.00  0.00    -0.083 C 
BRANCH  28  29
ATOM     29  N   UNL     1      34.859 -16.272 -20.862  0.00  0.00    +0.381 N 
ATOM     30  H   UNL     1      34.847 -15.262 -21.001  0.00  0.00    -0.089 HD
ATOM     31  H   UNL     1      35.776 -16.555 -20.512  0.00  0.00    -0.089 HD
ATOM     32  H   UNL     1      34.143 -16.531 -20.184  0.00  0.00    -0.089 HD
ENDBRANCH  28  29
ENDBRANCH  14  28
TORSDOF 7
ENDMDL
MODEL 3
REMARK VINA RESULT:      -7.5      8.389     12.012
REMARK  Name = 9571107
REMARK  7 active torsions:
REMARK  status: ('A' for Active; 'I' for Inactive)
REMARK    1  A    between atoms: N_3  and  C_26
REMARK    2  A    between atoms: C_9  and  C_30
REMARK    3  A    between atoms: N_14  and  C_18
REMARK    4  A    between atoms: N_14  and  O_19
REMARK    5  A    between atoms: C_15  and  C_21
REMARK    6  A    between atoms: C_21  and  N_22
REMARK    7  A    between atoms: C_30  and  O_31
REMARK                            x       y       z     vdW  Elec       q    Type
REMARK                         _______ _______ _______ _____ _____    ______ ____
ROOT
ATOM      1  F   UNL     1      38.682 -22.440 -16.559  0.00  0.00    -0.200 F 
ATOM      2  O   UNL     1      35.930 -20.151 -20.136  0.00  0.00    -0.290 OA
ATOM      3  N   UNL     1      33.337 -22.442 -18.002  0.00  0.00    -0.266 N 
ATOM      4  N   UNL     1      35.132 -23.210 -16.570  0.00  0.00    -0.373 NA
ATOM      5  C   UNL     1      34.711 -22.455 -17.619  0.00  0.00    +0.177 C 
ATOM      6  C   UNL     1      32.924 -21.702 -19.088  0.00  0.00    +0.076 C 
ATOM      7  C   UNL     1      36.445 -23.181 -16.248  0.00  0.00    +0.212 C 
ATOM      8  C   UNL     1      35.618 -21.669 -18.349  0.00  0.00    +0.153 C 
ATOM      9  C   UNL     1      33.711 -20.926 -19.844  0.00  0.00    +0.126 C 
ATOM     10  C   UNL     1      35.155 -20.853 -19.499  0.00  0.00    +0.192 C 
ATOM     11  C   UNL     1      37.393 -22.432 -16.919  0.00  0.00    +0.180 C 
ATOM     12  C   UNL     1      36.967 -21.662 -17.991  0.00  0.00    +0.023 C 
ATOM     13  N   UNL     1      36.879 -23.947 -15.181  0.00  0.00    -0.280 N 
ATOM     14  C   UNL     1      36.850 -25.487 -13.339  0.00  0.00    +0.018 C 
ATOM     15  C   UNL     1      35.972 -24.616 -14.247  0.00  0.00    +0.093 C 
ATOM     16  C   UNL     1      38.269 -23.986 -14.754  0.00  0.00    +0.113 C 
ATOM     17  C   UNL     1      38.212 -24.896 -13.565  0.00  0.00    +0.122 C 
ENDROOT
BRANCH   3  18
ATOM     18  C   UNL     1      32.364 -23.285 -17.279  0.00  0.00    +0.079 C 
ATOM     19  C   UNL     1      31.070 -22.719 -16.794  0.00  0.00    +0.022 C 
ATOM     20  C   UNL     1      32.136 -23.109 -15.813  0.00  0.00    +0.022 C 
ENDBRANCH   3  18
BRANCH   9  22
ATOM     21  O   UNL     1      31.916 -19.982 -21.083  0.00  0.00    -0.245 OA
ATOM     22  C   UNL     1      33.109 -20.198 -20.961  0.00  0.00    +0.342 C 
BRANCH  22  23
ATOM     23  O   UNL     1      34.072 -19.809 -21.823  0.00  0.00    -0.477 OA
ATOM     24  H   UNL     1      33.980 -19.006 -22.299  0.00  0.00    +0.295 HD
ENDBRANCH  22  23
ENDBRANCH   9  22
BRANCH  17  25
ATOM     25  N   UNL     1      39.239 -25.180 -12.838  0.00  0.00    -0.083 NA
BRANCH  25  26
ATOM     26  O   UNL     1      40.391 -25.017 -13.618  0.00  0.00    -0.263 OA
ATOM     27  C   UNL     1      40.634 -26.236 -14.305  0.00  0.00    +0.202 C 
ENDBRANCH  25  26
ENDBRANCH  17  25
BRANCH  14  28
ATOM     28  C   UNL     1      36.416 -25.445 -11.884  0.00  0.00    -0.083 C 
BRANCH  28  29
ATOM     29  N   UNL     1      36.797 -24.210 -11.264  0.00  0.00    +0.381 N 
ATOM     30  H   UNL     1      36.023 -23.859 -10.700  0.00  0.00    -0.089 HD
ATOM     31  H   UNL     1      37.029 -23.526 -11.985  0.00  0.00    -0.089 HD
ATOM     32  H   UNL     1      37.610 -24.365 -10.668  0.00  0.00    -0.089 HD
ENDBRANCH  28  29
ENDBRANCH  14  28
TORSDOF 7
ENDMDL
MODEL 4
REMARK VINA RESULT:      -7.5      2.243      7.730
REMARK  Name = 9571107
REMARK  7 active torsions:
REMARK  status: ('A' for Active; 'I' for Inactive)
REMARK    1  A    between atoms: N_3  and  C_26
REMARK    2  A    between atoms: C_9  and  C_30
REMARK    3  A    between atoms: N_14  and  C_18
REMARK    4  A    between atoms: N_14  and  O_19
REMARK    5  A    between atoms: C_15  and  C_21
REMARK    6  A    between atoms: C_21  and  N_22
REMARK    7  A    between atoms: C_30  and  O_31
REMARK                            x       y       z     vdW  Elec       q    Type
REMARK                         _______ _______ _______ _____ _____    ______ ____
ROOT
ATOM      1  F   UNL     1      32.552 -13.266 -19.728  0.00  0.00    -0.200 F 
ATOM      2  O   UNL     1      34.210 -17.889 -20.951  0.00  0.00    -0.290 OA
ATOM      3  N   UNL     1      33.977 -15.809 -24.435  0.00  0.00    -0.266 N 
ATOM      4  N   UNL     1      33.187 -13.847 -23.258  0.00  0.00    -0.373 NA
ATOM      5  C   UNL     1      33.603 -15.141 -23.232  0.00  0.00    +0.177 C 
ATOM      6  C   UNL     1      34.365 -17.131 -24.406  0.00  0.00    +0.076 C 
ATOM      7  C   UNL     1      32.850 -13.261 -22.087  0.00  0.00    +0.212 C 
ATOM      8  C   UNL     1      33.678 -15.848 -22.021  0.00  0.00    +0.153 C 
ATOM      9  C   UNL     1      34.464 -17.887 -23.305  0.00  0.00    +0.126 C 
ATOM     10  C   UNL     1      34.125 -17.263 -22.000  0.00  0.00    +0.192 C 
ATOM     11  C   UNL     1      32.900 -13.893 -20.859  0.00  0.00    +0.180 C 
ATOM     12  C   UNL     1      33.322 -15.214 -20.829  0.00  0.00    +0.023 C 
ATOM     13  N   UNL     1      32.425 -11.944 -22.107  0.00  0.00    -0.280 N 
ATOM     14  C   UNL     1      31.791  -9.782 -22.935  0.00  0.00    +0.018 C 
ATOM     15  C   UNL     1      32.525 -11.082 -23.285  0.00  0.00    +0.093 C 
ATOM     16  C   UNL     1      32.040 -11.223 -20.903  0.00  0.00    +0.113 C 
ATOM     17  C   UNL     1      31.717  -9.861 -21.437  0.00  0.00    +0.122 C 
ENDROOT
BRANCH   3  18
ATOM     18  C   UNL     1      33.875 -15.106 -25.730  0.00  0.00    +0.079 C 
ATOM     19  C   UNL     1      32.790 -14.108 -25.978  0.00  0.00    +0.022 C 
ATOM     20  C   UNL     1      32.779 -15.427 -26.694  0.00  0.00    +0.022 C 
ENDBRANCH   3  18
BRANCH   9  22
ATOM     21  O   UNL     1      34.930 -19.885 -24.504  0.00  0.00    -0.245 OA
ATOM     22  C   UNL     1      34.899 -19.276 -23.450  0.00  0.00    +0.342 C 
BRANCH  22  23
ATOM     23  O   UNL     1      35.257 -19.768 -22.244  0.00  0.00    -0.477 OA
ATOM     24  H   UNL     1      34.597 -20.029 -21.631  0.00  0.00    +0.295 HD
ENDBRANCH  22  23
ENDBRANCH   9  22
BRANCH  17  25
ATOM     25  N   UNL     1      31.364  -8.870 -20.690  0.00  0.00    -0.083 NA
BRANCH  25  26
ATOM     26  O   UNL     1      32.480  -8.454 -19.953  0.00  0.00    -0.263 OA
ATOM     27  C   UNL     1      32.537  -7.036 -20.001  0.00  0.00    +0.202 C 
ENDBRANCH  25  26
ENDBRANCH  17  25
BRANCH  14  28
ATOM     28  C   UNL     1      32.518  -8.543 -23.431  0.00  0.00    -0.083 C 
BRANCH  28  29
ATOM     29  N   UNL     1      33.841  -8.466 -22.888  0.00  0.00    +0.381 N 
ATOM     30  H   UNL     1      34.077  -7.491 -22.702  0.00  0.00    -0.089 HD
ATOM     31  H   UNL     1      34.506  -8.854 -23.559  0.00  0.00    -0.089 HD
ATOM     32  H   UNL     1      33.885  -8.999 -22.019  0.00  0.00    -0.089 HD
ENDBRANCH  28  29
ENDBRANCH  14  28
TORSDOF 7
ENDMDL
MODEL 5
REMARK VINA RESULT:      -7.2      3.554      5.578
REMARK  Name = 9571107
REMARK  7 active torsions:
REMARK  status: ('A' for Active; 'I' for Inactive)
REMARK    1  A    between atoms: N_3  and  C_26
REMARK    2  A    between atoms: C_9  and  C_30
REMARK    3  A    between atoms: N_14  and  C_18
REMARK    4  A    between atoms: N_14  and  O_19
REMARK    5  A    between atoms: C_15  and  C_21
REMARK    6  A    between atoms: C_21  and  N_22
REMARK    7  A    between atoms: C_30  and  O_31
REMARK                            x       y       z     vdW  Elec       q    Type
REMARK                         _______ _______ _______ _____ _____    ______ ____
ROOT
ATOM      1  F   UNL     1      31.632 -10.139 -21.032  0.00  0.00    -0.200 F 
ATOM      2  O   UNL     1      30.655  -5.173 -21.000  0.00  0.00    -0.290 OA
ATOM      3  N   UNL     1      32.472  -5.949 -24.553  0.00  0.00    -0.266 N 
ATOM      4  N   UNL     1      32.664  -8.295 -23.988  0.00  0.00    -0.373 NA
ATOM      5  C   UNL     1      32.266  -7.038 -23.656  0.00  0.00    +0.177 C 
ATOM      6  C   UNL     1      32.097  -4.672 -24.195  0.00  0.00    +0.076 C 
ATOM      7  C   UNL     1      32.439  -9.292 -23.102  0.00  0.00    +0.212 C 
ATOM      8  C   UNL     1      31.641  -6.785 -22.424  0.00  0.00    +0.153 C 
ATOM      9  C   UNL     1      31.499  -4.331 -23.046  0.00  0.00    +0.126 C 
ATOM     10  C   UNL     1      31.215  -5.409 -22.063  0.00  0.00    +0.192 C 
ATOM     11  C   UNL     1      31.830  -9.116 -21.874  0.00  0.00    +0.180 C 
ATOM     12  C   UNL     1      31.424  -7.835 -21.531  0.00  0.00    +0.023 C 
ATOM     13  N   UNL     1      32.843 -10.572 -23.434  0.00  0.00    -0.280 N 
ATOM     14  C   UNL     1      33.810 -12.395 -24.662  0.00  0.00    +0.018 C 
ATOM     15  C   UNL     1      33.300 -10.953 -24.771  0.00  0.00    +0.093 C 
ATOM     16  C   UNL     1      32.648 -11.713 -22.552  0.00  0.00    +0.113 C 
ATOM     17  C   UNL     1      33.195 -12.844 -23.368  0.00  0.00    +0.122 C 
ENDROOT
BRANCH   3  18
ATOM     18  C   UNL     1      33.160  -6.175 -25.840  0.00  0.00    +0.079 C 
ATOM     19  C   UNL     1      34.590  -5.786 -26.024  0.00  0.00    +0.022 C 
ATOM     20  C   UNL     1      33.508  -5.031 -26.736  0.00  0.00    +0.022 C 
ENDBRANCH   3  18
BRANCH   9  22
ATOM     21  O   UNL     1      31.873  -1.986 -23.131  0.00  0.00    -0.245 OA
ATOM     22  C   UNL     1      31.160  -2.926 -22.827  0.00  0.00    +0.342 C 
BRANCH  22  23
ATOM     23  O   UNL     1      29.947  -2.837 -22.239  0.00  0.00    -0.477 OA
ATOM     24  H   UNL     1      29.171  -2.985 -22.743  0.00  0.00    +0.295 HD
ENDBRANCH  22  23
ENDBRANCH   9  22
BRANCH  17  25
ATOM     25  N   UNL     1      33.182 -14.074 -22.977  0.00  0.00    -0.083 NA
BRANCH  25  26
ATOM     26  O   UNL     1      34.498 -14.460 -22.690  0.00  0.00    -0.263 OA
ATOM     27  C   UNL     1      34.474 -15.807 -22.241  0.00  0.00    +0.202 C 
ENDBRANCH  25  26
ENDBRANCH  17  25
BRANCH  14  28
ATOM     28  C   UNL     1      33.404 -13.256 -25.845  0.00  0.00    -0.083 C 
BRANCH  28  29
ATOM     29  N   UNL     1      33.794 -14.621 -25.653  0.00  0.00    +0.381 N 
ATOM     30  H   UNL     1      34.277 -14.958 -26.485  0.00  0.00    -0.089 HD
ATOM     31  H   UNL     1      32.964 -15.191 -25.488  0.00  0.00    -0.089 HD
ATOM     32  H   UNL     1      34.417 -14.687 -24.847  0.00  0.00    -0.089 HD
ENDBRANCH  28  29
ENDBRANCH  14  28
TORSDOF 7
ENDMDL
MODEL 6
REMARK VINA RESULT:      -7.1      2.829      8.653
REMARK  Name = 9571107
REMARK  7 active torsions:
REMARK  status: ('A' for Active; 'I' for Inactive)
REMARK    1  A    between atoms: N_3  and  C_26
REMARK    2  A    between atoms: C_9  and  C_30
REMARK    3  A    between atoms: N_14  and  C_18
REMARK    4  A    between atoms: N_14  and  O_19
REMARK    5  A    between atoms: C_15  and  C_21
REMARK    6  A    between atoms: C_21  and  N_22
REMARK    7  A    between atoms: C_30  and  O_31
REMARK                            x       y       z     vdW  Elec       q    Type
REMARK                         _______ _______ _______ _____ _____    ______ ____
ROOT
ATOM      1  F   UNL     1      33.532 -11.136 -26.122  0.00  0.00    -0.200 F 
ATOM      2  O   UNL     1      34.307 -16.137 -26.182  0.00  0.00    -0.290 OA
ATOM      3  N   UNL     1      33.848 -15.106 -22.276  0.00  0.00    -0.266 N 
ATOM      4  N   UNL     1      33.540 -12.784 -22.884  0.00  0.00    -0.373 NA
ATOM      5  C   UNL     1      33.767 -14.072 -23.254  0.00  0.00    +0.177 C 
ATOM      6  C   UNL     1      34.114 -16.404 -22.656  0.00  0.00    +0.076 C 
ATOM      7  C   UNL     1      33.467 -11.844 -23.853  0.00  0.00    +0.212 C 
ATOM      8  C   UNL     1      33.925 -14.413 -24.607  0.00  0.00    +0.153 C 
ATOM      9  C   UNL     1      34.281 -16.826 -23.916  0.00  0.00    +0.126 C 
ATOM     10  C   UNL     1      34.182 -15.820 -25.006  0.00  0.00    +0.192 C 
ATOM     11  C   UNL     1      33.611 -12.106 -25.202  0.00  0.00    +0.180 C 
ATOM     12  C   UNL     1      33.845 -13.419 -25.584  0.00  0.00    +0.023 C 
ATOM     13  N   UNL     1      33.236 -10.531 -23.482  0.00  0.00    -0.280 N 
ATOM     14  C   UNL     1      32.867  -8.598 -22.107  0.00  0.00    +0.018 C 
ATOM     15  C   UNL     1      32.850 -10.132 -22.129  0.00  0.00    +0.093 C 
ATOM     16  C   UNL     1      33.141  -9.445 -24.447  0.00  0.00    +0.113 C 
ATOM     17  C   UNL     1      32.843  -8.267 -23.572  0.00  0.00    +0.122 C 
ENDROOT
BRANCH   3  18
ATOM     18  C   UNL     1      33.724 -14.775 -20.843  0.00  0.00    +0.079 C 
ATOM     19  C   UNL     1      32.668 -15.411 -19.998  0.00  0.00    +0.022 C 
ATOM     20  C   UNL     1      32.581 -13.953 -20.341  0.00  0.00    +0.022 C 
ENDBRANCH   3  18
BRANCH   9  22
ATOM     21  O   UNL     1      35.319 -18.920 -23.485  0.00  0.00    -0.245 OA
ATOM     22  C   UNL     1      34.550 -18.245 -24.147  0.00  0.00    +0.342 C 
BRANCH  22  23
ATOM     23  O   UNL     1      33.822 -18.681 -25.197  0.00  0.00    -0.477 OA
ATOM     24  H   UNL     1      33.934 -19.556 -25.514  0.00  0.00    +0.295 HD
ENDBRANCH  22  23
ENDBRANCH   9  22
BRANCH  17  25
ATOM     25  N   UNL     1      32.633  -7.078 -24.028  0.00  0.00    -0.083 NA
BRANCH  25  26
ATOM     26  O   UNL     1      31.283  -6.974 -24.384  0.00  0.00    -0.263 OA
ATOM     27  C   UNL     1      30.971  -5.597 -24.535  0.00  0.00    +0.202 C 
ENDBRANCH  25  26
ENDBRANCH  17  25
BRANCH  14  28
ATOM     28  C   UNL     1      31.697  -8.005 -21.342  0.00  0.00    -0.083 C 
BRANCH  28  29
ATOM     29  N   UNL     1      31.852  -6.592 -21.169  0.00  0.00    +0.381 N 
ATOM     30  H   UNL     1      32.500  -6.412 -20.402  0.00  0.00    -0.089 HD
ATOM     31  H   UNL     1      30.946  -6.175 -20.952  0.00  0.00    -0.089 HD
ATOM     32  H   UNL     1      32.218  -6.181 -22.028  0.00  0.00    -0.089 HD
ENDBRANCH  28  29
ENDBRANCH  14  28
TORSDOF 7
ENDMDL
MODEL 7
REMARK VINA RESULT:      -7.0      3.998      9.251
REMARK  Name = 9571107
REMARK  7 active torsions:
REMARK  status: ('A' for Active; 'I' for Inactive)
REMARK    1  A    between atoms: N_3  and  C_26
REMARK    2  A    between atoms: C_9  and  C_30
REMARK    3  A    between atoms: N_14  and  C_18
REMARK    4  A    between atoms: N_14  and  O_19
REMARK    5  A    between atoms: C_15  and  C_21
REMARK    6  A    between atoms: C_21  and  N_22
REMARK    7  A    between atoms: C_30  and  O_31
REMARK                            x       y       z     vdW  Elec       q    Type
REMARK                         _______ _______ _______ _____ _____    ______ ____
ROOT
ATOM      1  F   UNL     1      34.393  -9.508 -25.411  0.00  0.00    -0.200 F 
ATOM      2  O   UNL     1      34.071 -14.207 -23.558  0.00  0.00    -0.290 OA
ATOM      3  N   UNL     1      31.802 -11.870 -21.127  0.00  0.00    -0.266 N 
ATOM      4  N   UNL     1      32.334  -9.911 -22.445  0.00  0.00    -0.373 NA
ATOM      5  C   UNL     1      32.465 -11.246 -22.224  0.00  0.00    +0.177 C 
ATOM      6  C   UNL     1      31.966 -13.217 -20.888  0.00  0.00    +0.076 C 
ATOM      7  C   UNL     1      32.981  -9.372 -23.503  0.00  0.00    +0.212 C 
ATOM      8  C   UNL     1      33.253 -12.041 -23.071  0.00  0.00    +0.153 C 
ATOM      9  C   UNL     1      32.697 -14.054 -21.635  0.00  0.00    +0.126 C 
ATOM     10  C   UNL     1      33.400 -13.497 -22.821  0.00  0.00    +0.192 C 
ATOM     11  C   UNL     1      33.772 -10.092 -24.378  0.00  0.00    +0.180 C 
ATOM     12  C   UNL     1      33.909 -11.454 -24.155  0.00  0.00    +0.023 C 
ATOM     13  N   UNL     1      32.852  -8.014 -23.732  0.00  0.00    -0.280 N 
ATOM     14  C   UNL     1      32.193  -5.722 -23.451  0.00  0.00    +0.018 C 
ATOM     15  C   UNL     1      31.887  -7.166 -23.032  0.00  0.00    +0.093 C 
ATOM     16  C   UNL     1      33.507  -7.337 -24.842  0.00  0.00    +0.113 C 
ATOM     17  C   UNL     1      33.025  -5.928 -24.684  0.00  0.00    +0.122 C 
ENDROOT
BRANCH   3  18
ATOM     18  C   UNL     1      30.995 -11.057 -20.195  0.00  0.00    +0.079 C 
ATOM     19  C   UNL     1      31.578  -9.858 -19.520  0.00  0.00    +0.022 C 
ATOM     20  C   UNL     1      31.257 -11.088 -18.724  0.00  0.00    +0.022 C 
ENDBRANCH   3  18
BRANCH   9  22
ATOM     21  O   UNL     1      31.827 -16.097 -20.788  0.00  0.00    -0.245 OA
ATOM     22  C   UNL     1      32.761 -15.463 -21.246  0.00  0.00    +0.342 C 
BRANCH  22  23
ATOM     23  O   UNL     1      34.004 -15.940 -21.471  0.00  0.00    -0.477 OA
ATOM     24  H   UNL     1      34.706 -15.710 -20.893  0.00  0.00    +0.295 HD
ENDBRANCH  22  23
ENDBRANCH   9  22
BRANCH  17  25
ATOM     25  N   UNL     1      33.333  -4.976 -25.500  0.00  0.00    -0.083 NA
BRANCH  25  26
ATOM     26  O   UNL     1      34.306  -5.454 -26.388  0.00  0.00    -0.263 OA
ATOM     27  C   UNL     1      34.497  -4.476 -27.400  0.00  0.00    +0.202 C 
ENDBRANCH  25  26
ENDBRANCH  17  25
BRANCH  14  28
ATOM     28  C   UNL     1      30.940  -4.904 -23.707  0.00  0.00    -0.083 C 
BRANCH  28  29
ATOM     29  N   UNL     1      30.597  -4.109 -22.566  0.00  0.00    +0.381 N 
ATOM     30  H   UNL     1      30.783  -3.126 -22.767  0.00  0.00    -0.089 HD
ATOM     31  H   UNL     1      31.159  -4.403 -21.766  0.00  0.00    -0.089 HD
ATOM     32  H   UNL     1      29.608  -4.231 -22.350  0.00  0.00    -0.089 HD
ENDBRANCH  28  29
ENDBRANCH  14  28
TORSDOF 7
ENDMDL
MODEL 8
REMARK VINA RESULT:      -6.8     11.577     14.543
REMARK  Name = 9571107
REMARK  7 active torsions:
REMARK  status: ('A' for Active; 'I' for Inactive)
REMARK    1  A    between atoms: N_3  and  C_26
REMARK    2  A    between atoms: C_9  and  C_30
REMARK    3  A    between atoms: N_14  and  C_18
REMARK    4  A    between atoms: N_14  and  O_19
REMARK    5  A    between atoms: C_15  and  C_21
REMARK    6  A    between atoms: C_21  and  N_22
REMARK    7  A    between atoms: C_30  and  O_31
REMARK                            x       y       z     vdW  Elec       q    Type
REMARK                         _______ _______ _______ _____ _____    ______ ____
ROOT
ATOM      1  F   UNL     1      33.863 -22.618 -17.637  0.00  0.00    -0.200 F 
ATOM      2  O   UNL     1      38.598 -23.473 -16.071  0.00  0.00    -0.290 OA
ATOM      3  N   UNL     1      36.174 -24.522 -12.981  0.00  0.00    -0.266 N 
ATOM      4  N   UNL     1      34.212 -23.923 -14.264  0.00  0.00    -0.373 NA
ATOM      5  C   UNL     1      35.563 -24.031 -14.172  0.00  0.00    +0.177 C 
ATOM      6  C   UNL     1      37.547 -24.596 -12.881  0.00  0.00    +0.076 C 
ATOM      7  C   UNL     1      33.685 -23.455 -15.419  0.00  0.00    +0.212 C 
ATOM      8  C   UNL     1      36.389 -23.663 -15.247  0.00  0.00    +0.153 C 
ATOM      9  C   UNL     1      38.414 -24.268 -13.847  0.00  0.00    +0.126 C 
ATOM     10  C   UNL     1      37.865 -23.775 -15.138  0.00  0.00    +0.192 C 
ATOM     11  C   UNL     1      34.435 -23.077 -16.517  0.00  0.00    +0.180 C 
ATOM     12  C   UNL     1      35.815 -23.184 -16.426  0.00  0.00    +0.023 C 
ATOM     13  N   UNL     1      32.310 -23.343 -15.519  0.00  0.00    -0.280 N 
ATOM     14  C   UNL     1      29.984 -23.407 -14.928  0.00  0.00    +0.018 C 
ATOM     15  C   UNL     1      31.382 -23.902 -14.535  0.00  0.00    +0.093 C 
ATOM     16  C   UNL     1      31.645 -22.852 -16.717  0.00  0.00    +0.113 C 
ATOM     17  C   UNL     1      30.198 -22.967 -16.347  0.00  0.00    +0.122 C 
ENDROOT
BRANCH   3  18
ATOM     18  C   UNL     1      35.337 -24.882 -11.819  0.00  0.00    +0.079 C 
ATOM     19  C   UNL     1      34.666 -23.827 -11.001  0.00  0.00    +0.022 C 
ATOM     20  C   UNL     1      35.805 -24.617 -10.424  0.00  0.00    +0.022 C 
ENDBRANCH   3  18
BRANCH   9  22
ATOM     21  O   UNL     1      40.637 -24.960 -14.326  0.00  0.00    -0.245 OA
ATOM     22  C   UNL     1      39.845 -24.413 -13.579  0.00  0.00    +0.342 C 
BRANCH  22  23
ATOM     23  O   UNL     1      40.143 -23.851 -12.388  0.00  0.00    -0.477 OA
ATOM     24  H   UNL     1      39.911 -24.289 -11.592  0.00  0.00    +0.295 HD
ENDBRANCH  22  23
ENDBRANCH   9  22
BRANCH  17  25
ATOM     25  N   UNL     1      29.234 -22.672 -17.152  0.00  0.00    -0.083 NA
BRANCH  25  26
ATOM     26  O   UNL     1      28.363 -21.793 -16.495  0.00  0.00    -0.263 OA
ATOM     27  C   UNL     1      27.041 -22.071 -16.934  0.00  0.00    +0.202 C 
ENDBRANCH  25  26
ENDBRANCH  17  25
BRANCH  14  28
ATOM     28  C   UNL     1      28.918 -24.480 -14.790  0.00  0.00    -0.083 C 
BRANCH  28  29
ATOM     29  N   UNL     1      29.500 -25.752 -14.481  0.00  0.00    +0.381 N 
ATOM     30  H   UNL     1      29.901 -25.725 -13.544  0.00  0.00    -0.089 HD
ATOM     31  H   UNL     1      30.233 -25.963 -15.158  0.00  0.00    -0.089 HD
ATOM     32  H   UNL     1      28.781 -26.474 -14.522  0.00  0.00    -0.089 HD
ENDBRANCH  28  29
ENDBRANCH  14  28
TORSDOF 7
ENDMDL
MODEL 9
REMARK VINA RESULT:      -6.8      2.661      7.779
REMARK  Name = 9571107
REMARK  7 active torsions:
REMARK  status: ('A' for Active; 'I' for Inactive)
REMARK    1  A    between atoms: N_3  and  C_26
REMARK    2  A    between atoms: C_9  and  C_30
REMARK    3  A    between atoms: N_14  and  C_18
REMARK    4  A    between atoms: N_14  and  O_19
REMARK    5  A    between atoms: C_15  and  C_21
REMARK    6  A    between atoms: C_21  and  N_22
REMARK    7  A    between atoms: C_30  and  O_31
REMARK                            x       y       z     vdW  Elec       q    Type
REMARK                         _______ _______ _______ _____ _____    ______ ____
ROOT
ATOM      1  F   UNL     1      32.695 -12.372 -20.287  0.00  0.00    -0.200 F 
ATOM      2  O   UNL     1      34.147 -16.866 -22.107  0.00  0.00    -0.290 OA
ATOM      3  N   UNL     1      33.417 -14.514 -25.341  0.00  0.00    -0.266 N 
ATOM      4  N   UNL     1      32.811 -12.661 -23.907  0.00  0.00    -0.373 NA
ATOM      5  C   UNL     1      33.223 -13.949 -24.046  0.00  0.00    +0.177 C 
ATOM      6  C   UNL     1      33.802 -15.831 -25.475  0.00  0.00    +0.076 C 
ATOM      7  C   UNL     1      32.648 -12.174 -22.656  0.00  0.00    +0.212 C 
ATOM      8  C   UNL     1      33.471 -14.750 -22.920  0.00  0.00    +0.153 C 
ATOM      9  C   UNL     1      34.058 -16.672 -24.465  0.00  0.00    +0.126 C 
ATOM     10  C   UNL     1      33.913 -16.158 -23.078  0.00  0.00    +0.192 C 
ATOM     11  C   UNL     1      32.873 -12.903 -21.503  0.00  0.00    +0.180 C 
ATOM     12  C   UNL     1      33.293 -14.218 -21.642  0.00  0.00    +0.023 C 
ATOM     13  N   UNL     1      32.228 -10.864 -22.508  0.00  0.00    -0.280 N 
ATOM     14  C   UNL     1      31.486  -8.648 -23.058  0.00  0.00    +0.018 C 
ATOM     15  C   UNL     1      32.158  -9.910 -23.615  0.00  0.00    +0.093 C 
ATOM     16  C   UNL     1      32.022 -10.246 -21.206  0.00  0.00    +0.113 C 
ATOM     17  C   UNL     1      31.628  -8.849 -21.577  0.00  0.00    +0.122 C 
ENDROOT
BRANCH   3  18
ATOM     18  C   UNL     1      33.130 -13.710 -26.546  0.00  0.00    +0.079 C 
ATOM     19  C   UNL     1      34.191 -13.452 -27.566  0.00  0.00    +0.022 C 
ATOM     20  C   UNL     1      33.690 -12.333 -26.701  0.00  0.00    +0.022 C 
ENDBRANCH   3  18
BRANCH   9  22
ATOM     21  O   UNL     1      33.875 -18.776 -25.554  0.00  0.00    -0.245 OA
ATOM     22  C   UNL     1      34.465 -18.040 -24.783  0.00  0.00    +0.342 C 
BRANCH  22  23
ATOM     23  O   UNL     1      35.582 -18.354 -24.093  0.00  0.00    -0.477 OA
ATOM     24  H   UNL     1      35.705 -18.023 -23.224  0.00  0.00    +0.295 HD
ENDBRANCH  22  23
ENDBRANCH   9  22
BRANCH  17  25
ATOM     25  N   UNL     1      31.390  -7.924 -20.709  0.00  0.00    -0.083 NA
BRANCH  25  26
ATOM     26  O   UNL     1      32.529  -7.765 -19.909  0.00  0.00    -0.263 OA
ATOM     27  C   UNL     1      32.775  -6.374 -19.763  0.00  0.00    +0.202 C 
ENDBRANCH  25  26
ENDBRANCH  17  25
BRANCH  14  28
ATOM     28  C   UNL     1      32.136  -7.367 -23.552  0.00  0.00    -0.083 C 
BRANCH  28  29
ATOM     29  N   UNL     1      33.455  -7.215 -23.015  0.00  0.00    +0.381 N 
ATOM     30  H   UNL     1      34.100  -6.958 -23.764  0.00  0.00    -0.089 HD
ATOM     31  H   UNL     1      33.755  -8.096 -22.596  0.00  0.00    -0.089 HD
ATOM     32  H   UNL     1      33.452  -6.484 -22.304  0.00  0.00    -0.089 HD
ENDBRANCH  28  29
ENDBRANCH  14  28
TORSDOF 7
ENDMDL
