MODEL 1
REMARK VINA RESULT:      -9.2      0.000      0.000
REMARK  Name = 10364585
REMARK  7 active torsions:
REMARK  status: ('A' for Active; 'I' for Inactive)
REMARK    1  A    between atoms: N_3  and  C_30
REMARK    2  A    between atoms: C_11  and  C_20
REMARK    3  A    between atoms: C_17  and  O_28
REMARK    4  A    between atoms: C_21  and  O_26
REMARK    5  A    between atoms: C_30  and  C_31
REMARK    6  A    between atoms: C_31  and  C_32
REMARK    7  A    between atoms: C_32  and  O_33
REMARK                            x       y       z     vdW  Elec       q    Type
REMARK                         _______ _______ _______ _____ _____    ______ ____
ROOT
ATOM      1  O   UNL     1      34.853 -16.100 -26.214  0.00  0.00    -0.270 OA
ATOM      2  O   UNL     1      34.859 -19.955 -23.702  0.00  0.00    -0.270 OA
ATOM      3  N   UNL     1      33.197 -14.067 -21.644  0.00  0.00    -0.327 N 
ATOM      4  N   UNL     1      34.977 -18.222 -25.258  0.00  0.00    -0.248 N 
ATOM      5  C   UNL     1      33.907 -15.298 -23.369  0.00  0.00    +0.022 A 
ATOM      6  C   UNL     1      33.537 -15.345 -22.015  0.00  0.00    +0.060 A 
ATOM      7  C   UNL     1      33.774 -13.935 -23.798  0.00  0.00    +0.020 A 
ATOM      8  C   UNL     1      33.331 -13.197 -22.698  0.00  0.00    +0.060 A 
ATOM      9  C   UNL     1      34.291 -16.523 -23.930  0.00  0.00    +0.060 C 
ATOM     10  C   UNL     1      34.295 -17.694 -23.174  0.00  0.00    +0.058 C 
ATOM     11  C   UNL     1      33.930 -17.728 -21.847  0.00  0.00    +0.009 C 
ATOM     12  C   UNL     1      33.540 -16.529 -21.245  0.00  0.00    +0.017 C 
ATOM     13  C   UNL     1      33.984 -13.243 -25.011  0.00  0.00    +0.038 C 
ATOM     14  C   UNL     1      34.733 -16.869 -25.280  0.00  0.00    +0.252 C 
ATOM     15  C   UNL     1      33.088 -11.819 -22.749  0.00  0.00    +0.020 C 
ATOM     16  C   UNL     1      34.738 -18.791 -24.033  0.00  0.00    +0.252 C 
ATOM     17  C   UNL     1      33.747 -11.864 -25.079  0.00  0.00    +0.134 C 
ATOM     18  C   UNL     1      33.306 -11.163 -23.962  0.00  0.00    +0.038 C 
ATOM     19  H   UNL     1      35.291 -18.731 -26.041  0.00  0.00    +0.158 HD
ENDROOT
BRANCH  11  20
ATOM     20  C   UNL     1      33.936 -18.945 -21.065  0.00  0.00    +0.034 C 
ATOM     21  C   UNL     1      35.131 -19.485 -20.586  0.00  0.00    +0.139 C 
ATOM     22  C   UNL     1      32.725 -19.583 -20.789  0.00  0.00    +0.003 C 
ATOM     23  C   UNL     1      35.115 -20.659 -19.834  0.00  0.00    +0.037 C 
ATOM     24  C   UNL     1      32.710 -20.758 -20.036  0.00  0.00    +0.000 C 
ATOM     25  C   UNL     1      33.905 -21.296 -19.558  0.00  0.00    +0.003 C 
BRANCH  21  26
ATOM     26  O   UNL     1      36.328 -18.885 -20.841  0.00  0.00    -0.471 OA
ATOM     27  C   UNL     1      37.501 -19.664 -20.624  0.00  0.00    +0.252 C 
ENDBRANCH  21  26
ENDBRANCH  11  20
BRANCH  17  28
ATOM     28  O   UNL     1      33.952 -11.204 -26.252  0.00  0.00    -0.506 OA
ATOM     29  H   UNL     1      33.749 -11.622 -27.066  0.00  0.00    +0.292 HD
ENDBRANCH  17  28
BRANCH   3  30
ATOM     30  C   UNL     1      32.756 -13.687 -20.316  0.00  0.00    +0.109 C 
BRANCH  30  31
ATOM     31  C   UNL     1      31.590 -12.698 -20.313  0.00  0.00    +0.056 C 
BRANCH  31  32
ATOM     32  C   UNL     1      31.834 -11.480 -19.431  0.00  0.00    +0.139 C 
BRANCH  32  33
ATOM     33  O   UNL     1      30.723 -10.600 -19.552  0.00  0.00    -0.382 OA
ATOM     34  H   UNL     1      30.375 -10.641 -20.456  0.00  0.00    +0.210 HD
ENDBRANCH  32  33
ENDBRANCH  31  32
ENDBRANCH  30  31
ENDBRANCH   3  30
TORSDOF 7
ENDMDL
MODEL 2
REMARK VINA RESULT:      -8.7      3.531      6.741
REMARK  Name = 10364585
REMARK  7 active torsions:
REMARK  status: ('A' for Active; 'I' for Inactive)
REMARK    1  A    between atoms: N_3  and  C_30
REMARK    2  A    between atoms: C_11  and  C_20
REMARK    3  A    between atoms: C_17  and  O_28
REMARK    4  A    between atoms: C_21  and  O_26
REMARK    5  A    between atoms: C_30  and  C_31
REMARK    6  A    between atoms: C_31  and  C_32
REMARK    7  A    between atoms: C_32  and  O_33
REMARK                            x       y       z     vdW  Elec       q    Type
REMARK                         _______ _______ _______ _____ _____    ______ ____
ROOT
ATOM      1  O   UNL     1      30.851 -10.717 -20.237  0.00  0.00    -0.270 OA
ATOM      2  O   UNL     1      32.106 -14.926 -21.609  0.00  0.00    -0.270 OA
ATOM      3  N   UNL     1      33.946  -9.341 -24.272  0.00  0.00    -0.327 N 
ATOM      4  N   UNL     1      31.268 -12.974 -20.648  0.00  0.00    -0.248 N 
ATOM      5  C   UNL     1      32.737 -10.324 -22.671  0.00  0.00    +0.022 A 
ATOM      6  C   UNL     1      33.595 -10.564 -23.756  0.00  0.00    +0.060 A 
ATOM      7  C   UNL     1      32.587  -8.901 -22.556  0.00  0.00    +0.020 A 
ATOM      8  C   UNL     1      33.354  -8.322 -23.569  0.00  0.00    +0.060 A 
ATOM      9  C   UNL     1      32.269 -11.466 -22.009  0.00  0.00    +0.060 C 
ATOM     10  C   UNL     1      32.645 -12.744 -22.421  0.00  0.00    +0.058 C 
ATOM     11  C   UNL     1      33.487 -12.968 -23.486  0.00  0.00    +0.009 C 
ATOM     12  C   UNL     1      33.979 -11.857 -24.176  0.00  0.00    +0.017 C 
ATOM     13  C   UNL     1      31.879  -8.036 -21.693  0.00  0.00    +0.038 C 
ATOM     14  C   UNL     1      31.376 -11.618 -20.861  0.00  0.00    +0.252 C 
ATOM     15  C   UNL     1      33.448  -6.938 -23.762  0.00  0.00    +0.020 C 
ATOM     16  C   UNL     1      31.998 -13.716 -21.540  0.00  0.00    +0.252 C 
ATOM     17  C   UNL     1      31.961  -6.649 -21.872  0.00  0.00    +0.134 C 
ATOM     18  C   UNL     1      32.735  -6.110 -22.894  0.00  0.00    +0.038 C 
ATOM     19  H   UNL     1      30.723 -13.369 -19.930  0.00  0.00    +0.158 HD
ENDROOT
BRANCH  11  20
ATOM     20  C   UNL     1      33.876 -14.295 -23.911  0.00  0.00    +0.034 C 
ATOM     21  C   UNL     1      33.377 -14.846 -25.093  0.00  0.00    +0.139 C 
ATOM     22  C   UNL     1      34.762 -15.031 -23.121  0.00  0.00    +0.003 C 
ATOM     23  C   UNL     1      33.764 -16.127 -25.485  0.00  0.00    +0.037 C 
ATOM     24  C   UNL     1      35.149 -16.313 -23.515  0.00  0.00    +0.000 C 
ATOM     25  C   UNL     1      34.650 -16.861 -24.696  0.00  0.00    +0.003 C 
BRANCH  21  26
ATOM     26  O   UNL     1      32.509 -14.151 -25.883  0.00  0.00    -0.471 OA
ATOM     27  C   UNL     1      32.984 -13.744 -27.163  0.00  0.00    +0.252 C 
ENDBRANCH  21  26
ENDBRANCH  11  20
BRANCH  17  28
ATOM     28  O   UNL     1      31.275  -5.822 -21.036  0.00  0.00    -0.506 OA
ATOM     29  H   UNL     1      30.775  -5.111 -21.387  0.00  0.00    +0.292 HD
ENDBRANCH  17  28
BRANCH   3  30
ATOM     30  C   UNL     1      34.826  -9.152 -25.409  0.00  0.00    +0.109 C 
BRANCH  30  31
ATOM     31  C   UNL     1      35.636 -10.396 -25.777  0.00  0.00    +0.056 C 
BRANCH  31  32
ATOM     32  C   UNL     1      36.045 -10.440 -27.244  0.00  0.00    +0.139 C 
BRANCH  32  33
ATOM     33  O   UNL     1      35.619 -11.678 -27.798  0.00  0.00    -0.382 OA
ATOM     34  H   UNL     1      36.219 -11.933 -28.517  0.00  0.00    +0.210 HD
ENDBRANCH  32  33
ENDBRANCH  31  32
ENDBRANCH  30  31
ENDBRANCH   3  30
TORSDOF 7
ENDMDL
MODEL 3
REMARK VINA RESULT:      -8.2      3.895      9.408
REMARK  Name = 10364585
REMARK  7 active torsions:
REMARK  status: ('A' for Active; 'I' for Inactive)
REMARK    1  A    between atoms: N_3  and  C_30
REMARK    2  A    between atoms: C_11  and  C_20
REMARK    3  A    between atoms: C_17  and  O_28
REMARK    4  A    between atoms: C_21  and  O_26
REMARK    5  A    between atoms: C_30  and  C_31
REMARK    6  A    between atoms: C_31  and  C_32
REMARK    7  A    between atoms: C_32  and  O_33
REMARK                            x       y       z     vdW  Elec       q    Type
REMARK                         _______ _______ _______ _____ _____    ______ ____
ROOT
ATOM      1  O   UNL     1      35.714 -10.743 -25.242  0.00  0.00    -0.270 OA
ATOM      2  O   UNL     1      34.226  -6.390 -25.119  0.00  0.00    -0.270 OA
ATOM      3  N   UNL     1      31.580 -11.413 -22.045  0.00  0.00    -0.327 N 
ATOM      4  N   UNL     1      35.251  -8.464 -25.412  0.00  0.00    -0.248 N 
ATOM      5  C   UNL     1      33.213 -10.719 -23.404  0.00  0.00    +0.022 A 
ATOM      6  C   UNL     1      32.091 -10.302 -22.671  0.00  0.00    +0.060 A 
ATOM      7  C   UNL     1      33.357 -12.131 -23.191  0.00  0.00    +0.020 A 
ATOM      8  C   UNL     1      32.323 -12.529 -22.341  0.00  0.00    +0.060 A 
ATOM      9  C   UNL     1      33.875  -9.711 -24.117  0.00  0.00    +0.060 C 
ATOM     10  C   UNL     1      33.428  -8.391 -24.084  0.00  0.00    +0.058 C 
ATOM     11  C   UNL     1      32.326  -7.993 -23.362  0.00  0.00    +0.009 C 
ATOM     12  C   UNL     1      31.635  -8.966 -22.634  0.00  0.00    +0.017 C 
ATOM     13  C   UNL     1      34.261 -13.122 -23.632  0.00  0.00    +0.038 C 
ATOM     14  C   UNL     1      35.055  -9.755 -24.978  0.00  0.00    +0.252 C 
ATOM     15  C   UNL     1      32.149 -13.851 -21.914  0.00  0.00    +0.020 C 
ATOM     16  C   UNL     1      34.318  -7.587 -24.920  0.00  0.00    +0.252 C 
ATOM     17  C   UNL     1      34.101 -14.450 -23.215  0.00  0.00    +0.134 C 
ATOM     18  C   UNL     1      33.058 -14.807 -22.368  0.00  0.00    +0.038 C 
ATOM     19  H   UNL     1      35.984  -8.198 -26.012  0.00  0.00    +0.158 HD
ENDROOT
BRANCH  11  20
ATOM     20  C   UNL     1      31.865  -6.623 -23.330  0.00  0.00    +0.034 C 
ATOM     21  C   UNL     1      32.102  -5.811 -22.219  0.00  0.00    +0.139 C 
ATOM     22  C   UNL     1      31.172  -6.110 -24.429  0.00  0.00    +0.003 C 
ATOM     23  C   UNL     1      31.649  -4.492 -22.207  0.00  0.00    +0.037 C 
ATOM     24  C   UNL     1      30.719  -4.790 -24.416  0.00  0.00    +0.000 C 
ATOM     25  C   UNL     1      30.958  -3.982 -23.305  0.00  0.00    +0.003 C 
BRANCH  21  26
ATOM     26  O   UNL     1      32.775  -6.284 -21.131  0.00  0.00    -0.471 OA
ATOM     27  C   UNL     1      32.008  -6.538 -19.957  0.00  0.00    +0.252 C 
ENDBRANCH  21  26
ENDBRANCH  11  20
BRANCH  17  28
ATOM     28  O   UNL     1      34.977 -15.400 -23.645  0.00  0.00    -0.506 OA
ATOM     29  H   UNL     1      35.897 -15.222 -23.647  0.00  0.00    +0.292 HD
ENDBRANCH  17  28
BRANCH   3  30
ATOM     30  C   UNL     1      30.411 -11.407 -21.187  0.00  0.00    +0.109 C 
BRANCH  30  31
ATOM     31  C   UNL     1      30.592 -10.596 -19.904  0.00  0.00    +0.056 C 
BRANCH  31  32
ATOM     32  C   UNL     1      31.858 -10.954 -19.135  0.00  0.00    +0.139 C 
BRANCH  32  33
ATOM     33  O   UNL     1      32.643  -9.780 -18.977  0.00  0.00    -0.382 OA
ATOM     34  H   UNL     1      33.039  -9.540 -19.830  0.00  0.00    +0.210 HD
ENDBRANCH  32  33
ENDBRANCH  31  32
ENDBRANCH  30  31
ENDBRANCH   3  30
TORSDOF 7
ENDMDL
MODEL 4
REMARK VINA RESULT:      -8.2      3.399      6.478
REMARK  Name = 10364585
REMARK  7 active torsions:
REMARK  status: ('A' for Active; 'I' for Inactive)
REMARK    1  A    between atoms: N_3  and  C_30
REMARK    2  A    between atoms: C_11  and  C_20
REMARK    3  A    between atoms: C_17  and  O_28
REMARK    4  A    between atoms: C_21  and  O_26
REMARK    5  A    between atoms: C_30  and  C_31
REMARK    6  A    between atoms: C_31  and  C_32
REMARK    7  A    between atoms: C_32  and  O_33
REMARK                            x       y       z     vdW  Elec       q    Type
REMARK                         _______ _______ _______ _____ _____    ______ ____
ROOT
ATOM      1  O   UNL     1      30.755 -10.634 -20.256  0.00  0.00    -0.270 OA
ATOM      2  O   UNL     1      31.964 -14.837 -21.688  0.00  0.00    -0.270 OA
ATOM      3  N   UNL     1      33.888  -9.236 -24.255  0.00  0.00    -0.327 N 
ATOM      4  N   UNL     1      31.146 -12.889 -20.701  0.00  0.00    -0.248 N 
ATOM      5  C   UNL     1      32.658 -10.228 -22.675  0.00  0.00    +0.022 A 
ATOM      6  C   UNL     1      33.518 -10.462 -23.759  0.00  0.00    +0.060 A 
ATOM      7  C   UNL     1      32.526  -8.805 -22.538  0.00  0.00    +0.020 A 
ATOM      8  C   UNL     1      33.305  -8.220 -23.539  0.00  0.00    +0.060 A 
ATOM      9  C   UNL     1      32.172 -11.374 -22.033  0.00  0.00    +0.060 C 
ATOM     10  C   UNL     1      32.534 -12.650 -22.463  0.00  0.00    +0.058 C 
ATOM     11  C   UNL     1      33.379 -12.868 -23.527  0.00  0.00    +0.009 C 
ATOM     12  C   UNL     1      33.888 -11.753 -24.197  0.00  0.00    +0.017 C 
ATOM     13  C   UNL     1      31.824  -7.945 -21.666  0.00  0.00    +0.038 C 
ATOM     14  C   UNL     1      31.272 -11.533 -20.892  0.00  0.00    +0.252 C 
ATOM     15  C   UNL     1      33.417  -6.835 -23.709  0.00  0.00    +0.020 C 
ATOM     16  C   UNL     1      31.872 -13.627 -21.600  0.00  0.00    +0.252 C 
ATOM     17  C   UNL     1      31.924  -6.556 -21.823  0.00  0.00    +0.134 C 
ATOM     18  C   UNL     1      32.710  -6.011 -22.832  0.00  0.00    +0.038 C 
ATOM     19  H   UNL     1      30.592 -13.289 -19.991  0.00  0.00    +0.158 HD
ENDROOT
BRANCH  11  20
ATOM     20  C   UNL     1      33.753 -14.193 -23.970  0.00  0.00    +0.034 C 
ATOM     21  C   UNL     1      34.590 -15.000 -23.197  0.00  0.00    +0.139 C 
ATOM     22  C   UNL     1      33.268 -14.666 -25.192  0.00  0.00    +0.003 C 
ATOM     23  C   UNL     1      34.939 -16.274 -23.642  0.00  0.00    +0.037 C 
ATOM     24  C   UNL     1      33.618 -15.942 -25.636  0.00  0.00    +0.000 C 
ATOM     25  C   UNL     1      34.453 -16.745 -24.862  0.00  0.00    +0.003 C 
BRANCH  21  26
ATOM     26  O   UNL     1      35.080 -14.565 -22.001  0.00  0.00    -0.471 OA
ATOM     27  C   UNL     1      34.872 -15.408 -20.871  0.00  0.00    +0.252 C 
ENDBRANCH  21  26
ENDBRANCH  11  20
BRANCH  17  28
ATOM     28  O   UNL     1      31.244  -5.733 -20.978  0.00  0.00    -0.506 OA
ATOM     29  H   UNL     1      31.390  -4.808 -21.007  0.00  0.00    +0.292 HD
ENDBRANCH  17  28
BRANCH   3  30
ATOM     30  C   UNL     1      34.776  -9.040 -25.385  0.00  0.00    +0.109 C 
BRANCH  30  31
ATOM     31  C   UNL     1      35.720 -10.215 -25.638  0.00  0.00    +0.056 C 
BRANCH  31  32
ATOM     32  C   UNL     1      35.865 -10.567 -27.114  0.00  0.00    +0.139 C 
BRANCH  32  33
ATOM     33  O   UNL     1      35.137 -11.760 -27.372  0.00  0.00    -0.382 OA
ATOM     34  H   UNL     1      34.370 -11.805 -26.780  0.00  0.00    +0.210 HD
ENDBRANCH  32  33
ENDBRANCH  31  32
ENDBRANCH  30  31
ENDBRANCH   3  30
TORSDOF 7
ENDMDL
MODEL 5
REMARK VINA RESULT:      -7.4      8.798     11.475
REMARK  Name = 10364585
REMARK  7 active torsions:
REMARK  status: ('A' for Active; 'I' for Inactive)
REMARK    1  A    between atoms: N_3  and  C_30
REMARK    2  A    between atoms: C_11  and  C_20
REMARK    3  A    between atoms: C_17  and  O_28
REMARK    4  A    between atoms: C_21  and  O_26
REMARK    5  A    between atoms: C_30  and  C_31
REMARK    6  A    between atoms: C_31  and  C_32
REMARK    7  A    between atoms: C_32  and  O_33
REMARK                            x       y       z     vdW  Elec       q    Type
REMARK                         _______ _______ _______ _____ _____    ______ ____
ROOT
ATOM      1  O   UNL     1      32.656 -22.152 -18.622  0.00  0.00    -0.270 OA
ATOM      2  O   UNL     1      36.735 -22.895 -16.626  0.00  0.00    -0.270 OA
ATOM      3  N   UNL     1      30.954 -24.305 -14.124  0.00  0.00    -0.327 N 
ATOM      4  N   UNL     1      34.869 -22.376 -17.925  0.00  0.00    -0.248 N 
ATOM      5  C   UNL     1      32.064 -23.452 -15.866  0.00  0.00    +0.022 A 
ATOM      6  C   UNL     1      32.214 -24.032 -14.596  0.00  0.00    +0.060 A 
ATOM      7  C   UNL     1      30.656 -23.389 -16.139  0.00  0.00    +0.020 A 
ATOM      8  C   UNL     1      29.996 -23.929 -15.033  0.00  0.00    +0.060 A 
ATOM      9  C   UNL     1      33.256 -23.101 -16.512  0.00  0.00    +0.060 C 
ATOM     10  C   UNL     1      34.495 -23.323 -15.912  0.00  0.00    +0.058 C 
ATOM     11  C   UNL     1      34.631 -23.892 -14.666  0.00  0.00    +0.009 C 
ATOM     12  C   UNL     1      33.467 -24.259 -13.985  0.00  0.00    +0.017 C 
ATOM     13  C   UNL     1      29.866 -22.930 -17.215  0.00  0.00    +0.038 C 
ATOM     14  C   UNL     1      33.502 -22.487 -17.815  0.00  0.00    +0.252 C 
ATOM     15  C   UNL     1      28.602 -24.032 -14.949  0.00  0.00    +0.020 C 
ATOM     16  C   UNL     1      35.536 -22.855 -16.826  0.00  0.00    +0.252 C 
ATOM     17  C   UNL     1      28.470 -23.024 -17.147  0.00  0.00    +0.134 C 
ATOM     18  C   UNL     1      27.849 -23.568 -16.028  0.00  0.00    +0.038 C 
ATOM     19  H   UNL     1      35.322 -21.992 -18.711  0.00  0.00    +0.158 HD
ENDROOT
BRANCH  11  20
ATOM     20  C   UNL     1      35.917 -24.121 -14.046  0.00  0.00    +0.034 C 
ATOM     21  C   UNL     1      36.720 -25.195 -14.435  0.00  0.00    +0.139 C 
ATOM     22  C   UNL     1      36.356 -23.253 -13.045  0.00  0.00    +0.003 C 
ATOM     23  C   UNL     1      37.958 -25.399 -13.824  0.00  0.00    +0.037 C 
ATOM     24  C   UNL     1      37.594 -23.457 -12.435  0.00  0.00    +0.000 C 
ATOM     25  C   UNL     1      38.395 -24.530 -12.824  0.00  0.00    +0.003 C 
BRANCH  21  26
ATOM     26  O   UNL     1      36.318 -26.061 -15.408  0.00  0.00    -0.471 OA
ATOM     27  C   UNL     1      37.060 -27.270 -15.546  0.00  0.00    +0.252 C 
ENDBRANCH  21  26
ENDBRANCH  11  20
BRANCH  17  28
ATOM     28  O   UNL     1      27.714 -22.579 -18.189  0.00  0.00    -0.506 OA
ATOM     29  H   UNL     1      28.056 -21.929 -18.771  0.00  0.00    +0.292 HD
ENDBRANCH  17  28
BRANCH   3  30
ATOM     30  C   UNL     1      30.672 -24.912 -12.837  0.00  0.00    +0.109 C 
BRANCH  30  31
ATOM     31  C   UNL     1      30.031 -23.956 -11.832  0.00  0.00    +0.056 C 
BRANCH  31  32
ATOM     32  C   UNL     1      30.893 -22.739 -11.519  0.00  0.00    +0.139 C 
BRANCH  32  33
ATOM     33  O   UNL     1      30.698 -22.379 -10.157  0.00  0.00    -0.382 OA
ATOM     34  H   UNL     1      31.164 -21.549  -9.973  0.00  0.00    +0.210 HD
ENDBRANCH  32  33
ENDBRANCH  31  32
ENDBRANCH  30  31
ENDBRANCH   3  30
TORSDOF 7
ENDMDL
MODEL 6
REMARK VINA RESULT:      -7.3      2.674      5.329
REMARK  Name = 10364585
REMARK  7 active torsions:
REMARK  status: ('A' for Active; 'I' for Inactive)
REMARK    1  A    between atoms: N_3  and  C_30
REMARK    2  A    between atoms: C_11  and  C_20
REMARK    3  A    between atoms: C_17  and  O_28
REMARK    4  A    between atoms: C_21  and  O_26
REMARK    5  A    between atoms: C_30  and  C_31
REMARK    6  A    between atoms: C_31  and  C_32
REMARK    7  A    between atoms: C_32  and  O_33
REMARK                            x       y       z     vdW  Elec       q    Type
REMARK                         _______ _______ _______ _____ _____    ______ ____
ROOT
ATOM      1  O   UNL     1      31.782 -12.453 -19.968  0.00  0.00    -0.270 OA
ATOM      2  O   UNL     1      33.195 -16.714 -20.977  0.00  0.00    -0.270 OA
ATOM      3  N   UNL     1      33.871 -11.490 -24.708  0.00  0.00    -0.327 N 
ATOM      4  N   UNL     1      32.353 -14.706 -20.142  0.00  0.00    -0.248 N 
ATOM      5  C   UNL     1      33.108 -12.301 -22.770  0.00  0.00    +0.022 A 
ATOM      6  C   UNL     1      33.760 -12.640 -23.966  0.00  0.00    +0.060 A 
ATOM      7  C   UNL     1      32.831 -10.893 -22.824  0.00  0.00    +0.020 A 
ATOM      8  C   UNL     1      33.320 -10.422 -24.044  0.00  0.00    +0.060 A 
ATOM      9  C   UNL     1      32.903 -13.358 -21.875  0.00  0.00    +0.060 C 
ATOM     10  C   UNL     1      33.328 -14.651 -22.175  0.00  0.00    +0.058 C 
ATOM     11  C   UNL     1      33.967 -14.973 -23.351  0.00  0.00    +0.009 C 
ATOM     12  C   UNL     1      34.193 -13.949 -24.274  0.00  0.00    +0.017 C 
ATOM     13  C   UNL     1      32.214  -9.961 -21.961  0.00  0.00    +0.038 C 
ATOM     14  C   UNL     1      32.271 -13.397 -20.557  0.00  0.00    +0.252 C 
ATOM     15  C   UNL     1      33.225  -9.082 -24.441  0.00  0.00    +0.020 C 
ATOM     16  C   UNL     1      32.973 -15.521 -21.055  0.00  0.00    +0.252 C 
ATOM     17  C   UNL     1      32.109  -8.618 -22.342  0.00  0.00    +0.134 C 
ATOM     18  C   UNL     1      32.608  -8.186 -23.566  0.00  0.00    +0.038 C 
ATOM     19  H   UNL     1      32.003 -15.026 -19.278  0.00  0.00    +0.158 HD
ENDROOT
BRANCH  11  20
ATOM     20  C   UNL     1      34.407 -16.316 -23.660  0.00  0.00    +0.034 C 
ATOM     21  C   UNL     1      34.108 -16.904 -24.890  0.00  0.00    +0.139 C 
ATOM     22  C   UNL     1      35.141 -17.029 -22.709  0.00  0.00    +0.003 C 
ATOM     23  C   UNL     1      34.542 -18.200 -25.169  0.00  0.00    +0.037 C 
ATOM     24  C   UNL     1      35.575 -18.325 -22.990  0.00  0.00    +0.000 C 
ATOM     25  C   UNL     1      35.275 -18.911 -24.219  0.00  0.00    +0.003 C 
BRANCH  21  26
ATOM     26  O   UNL     1      33.392 -16.233 -25.837  0.00  0.00    -0.471 OA
ATOM     27  C   UNL     1      32.390 -16.970 -26.533  0.00  0.00    +0.252 C 
ENDBRANCH  21  26
ENDBRANCH  11  20
BRANCH  17  28
ATOM     28  O   UNL     1      31.512  -7.725 -21.504  0.00  0.00    -0.506 OA
ATOM     29  H   UNL     1      30.883  -8.021 -20.876  0.00  0.00    +0.292 HD
ENDBRANCH  17  28
BRANCH   3  30
ATOM     30  C   UNL     1      34.489 -11.413 -26.017  0.00  0.00    +0.109 C 
BRANCH  30  31
ATOM     31  C   UNL     1      34.131 -12.580 -26.938  0.00  0.00    +0.056 C 
BRANCH  31  32
ATOM     32  C   UNL     1      32.664 -12.596 -27.351  0.00  0.00    +0.139 C 
BRANCH  32  33
ATOM     33  O   UNL     1      32.069 -13.796 -26.874  0.00  0.00    -0.382 OA
ATOM     34  H   UNL     1      32.743 -14.493 -26.825  0.00  0.00    +0.210 HD
ENDBRANCH  32  33
ENDBRANCH  31  32
ENDBRANCH  30  31
ENDBRANCH   3  30
TORSDOF 7
ENDMDL
MODEL 7
REMARK VINA RESULT:      -7.2      3.763      6.288
REMARK  Name = 10364585
REMARK  7 active torsions:
REMARK  status: ('A' for Active; 'I' for Inactive)
REMARK    1  A    between atoms: N_3  and  C_30
REMARK    2  A    between atoms: C_11  and  C_20
REMARK    3  A    between atoms: C_17  and  O_28
REMARK    4  A    between atoms: C_21  and  O_26
REMARK    5  A    between atoms: C_30  and  C_31
REMARK    6  A    between atoms: C_31  and  C_32
REMARK    7  A    between atoms: C_32  and  O_33
REMARK                            x       y       z     vdW  Elec       q    Type
REMARK                         _______ _______ _______ _____ _____    ______ ____
ROOT
ATOM      1  O   UNL     1      34.787  -7.799 -25.077  0.00  0.00    -0.270 OA
ATOM      2  O   UNL     1      35.265 -12.156 -26.478  0.00  0.00    -0.270 OA
ATOM      3  N   UNL     1      31.573 -10.104 -21.596  0.00  0.00    -0.327 N 
ATOM      4  N   UNL     1      35.266  -9.864 -26.046  0.00  0.00    -0.248 N 
ATOM      5  C   UNL     1      32.996  -9.523 -23.219  0.00  0.00    +0.022 A 
ATOM      6  C   UNL     1      32.337 -10.608 -22.620  0.00  0.00    +0.060 A 
ATOM      7  C   UNL     1      32.594  -8.341 -22.511  0.00  0.00    +0.020 A 
ATOM      8  C   UNL     1      31.709  -8.741 -21.507  0.00  0.00    +0.060 A 
ATOM      9  C   UNL     1      33.831  -9.845 -24.296  0.00  0.00    +0.060 C 
ATOM     10  C   UNL     1      33.980 -11.163 -24.725  0.00  0.00    +0.058 C 
ATOM     11  C   UNL     1      33.329 -12.220 -24.130  0.00  0.00    +0.009 C 
ATOM     12  C   UNL     1      32.485 -11.945 -23.051  0.00  0.00    +0.017 C 
ATOM     13  C   UNL     1      32.889  -6.964 -22.614  0.00  0.00    +0.038 C 
ATOM     14  C   UNL     1      34.666  -9.006 -25.154  0.00  0.00    +0.252 C 
ATOM     15  C   UNL     1      31.110  -7.845 -20.613  0.00  0.00    +0.020 C 
ATOM     16  C   UNL     1      34.907 -11.174 -25.855  0.00  0.00    +0.252 C 
ATOM     17  C   UNL     1      32.299  -6.054 -21.728  0.00  0.00    +0.134 C 
ATOM     18  C   UNL     1      31.422  -6.491 -20.741  0.00  0.00    +0.038 C 
ATOM     19  H   UNL     1      35.890  -9.569 -26.749  0.00  0.00    +0.158 HD
ENDROOT
BRANCH  11  20
ATOM     20  C   UNL     1      33.486 -13.587 -24.577  0.00  0.00    +0.034 C 
ATOM     21  C   UNL     1      34.197 -14.515 -23.814  0.00  0.00    +0.139 C 
ATOM     22  C   UNL     1      32.915 -13.977 -25.791  0.00  0.00    +0.003 C 
ATOM     23  C   UNL     1      34.337 -15.828 -24.263  0.00  0.00    +0.037 C 
ATOM     24  C   UNL     1      33.055 -15.291 -26.238  0.00  0.00    +0.000 C 
ATOM     25  C   UNL     1      33.766 -16.216 -25.475  0.00  0.00    +0.003 C 
BRANCH  21  26
ATOM     26  O   UNL     1      34.766 -14.163 -22.626  0.00  0.00    -0.471 OA
ATOM     27  C   UNL     1      34.323 -14.859 -21.465  0.00  0.00    +0.252 C 
ENDBRANCH  21  26
ENDBRANCH  11  20
BRANCH  17  28
ATOM     28  O   UNL     1      32.588  -4.727 -21.834  0.00  0.00    -0.506 OA
ATOM     29  H   UNL     1      31.938  -4.130 -22.148  0.00  0.00    +0.292 HD
ENDBRANCH  17  28
BRANCH   3  30
ATOM     30  C   UNL     1      30.735 -10.905 -20.725  0.00  0.00    +0.109 C 
BRANCH  30  31
ATOM     31  C   UNL     1      31.498 -11.583 -19.587  0.00  0.00    +0.056 C 
BRANCH  31  32
ATOM     32  C   UNL     1      31.623 -10.716 -18.341  0.00  0.00    +0.139 C 
BRANCH  32  33
ATOM     33  O   UNL     1      32.771  -9.887 -18.475  0.00  0.00    -0.382 OA
ATOM     34  H   UNL     1      33.566 -10.401 -18.264  0.00  0.00    +0.210 HD
ENDBRANCH  32  33
ENDBRANCH  31  32
ENDBRANCH  30  31
ENDBRANCH   3  30
TORSDOF 7
ENDMDL
MODEL 8
REMARK VINA RESULT:      -7.1      1.583      2.213
REMARK  Name = 10364585
REMARK  7 active torsions:
REMARK  status: ('A' for Active; 'I' for Inactive)
REMARK    1  A    between atoms: N_3  and  C_30
REMARK    2  A    between atoms: C_11  and  C_20
REMARK    3  A    between atoms: C_17  and  O_28
REMARK    4  A    between atoms: C_21  and  O_26
REMARK    5  A    between atoms: C_30  and  C_31
REMARK    6  A    between atoms: C_31  and  C_32
REMARK    7  A    between atoms: C_32  and  O_33
REMARK                            x       y       z     vdW  Elec       q    Type
REMARK                         _______ _______ _______ _____ _____    ______ ____
ROOT
ATOM      1  O   UNL     1      34.402 -17.146 -26.457  0.00  0.00    -0.270 OA
ATOM      2  O   UNL     1      35.390 -20.660 -23.655  0.00  0.00    -0.270 OA
ATOM      3  N   UNL     1      34.127 -14.590 -21.858  0.00  0.00    -0.327 N 
ATOM      4  N   UNL     1      34.930 -19.132 -25.355  0.00  0.00    -0.248 N 
ATOM      5  C   UNL     1      34.338 -16.014 -23.567  0.00  0.00    +0.022 A 
ATOM      6  C   UNL     1      34.405 -15.899 -22.170  0.00  0.00    +0.060 A 
ATOM      7  C   UNL     1      34.006 -14.717 -24.084  0.00  0.00    +0.020 A 
ATOM      8  C   UNL     1      33.883 -13.856 -22.991  0.00  0.00    +0.060 A 
ATOM      9  C   UNL     1      34.595 -17.292 -24.079  0.00  0.00    +0.060 C 
ATOM     10  C   UNL     1      34.895 -18.361 -23.235  0.00  0.00    +0.058 C 
ATOM     11  C   UNL     1      34.958 -18.236 -21.866  0.00  0.00    +0.009 C 
ATOM     12  C   UNL     1      34.708 -16.978 -21.311  0.00  0.00    +0.017 C 
ATOM     13  C   UNL     1      33.794 -14.177 -25.371  0.00  0.00    +0.038 C 
ATOM     14  C   UNL     1      34.619 -17.795 -25.451  0.00  0.00    +0.252 C 
ATOM     15  C   UNL     1      33.563 -12.498 -23.118  0.00  0.00    +0.020 C 
ATOM     16  C   UNL     1      35.110 -19.548 -24.061  0.00  0.00    +0.252 C 
ATOM     17  C   UNL     1      33.474 -12.820 -25.517  0.00  0.00    +0.134 C 
ATOM     18  C   UNL     1      33.361 -11.994 -24.404  0.00  0.00    +0.038 C 
ATOM     19  H   UNL     1      35.014 -19.728 -26.134  0.00  0.00    +0.158 HD
ENDROOT
BRANCH  11  20
ATOM     20  C   UNL     1      35.270 -19.347 -20.993  0.00  0.00    +0.034 C 
ATOM     21  C   UNL     1      34.288 -20.267 -20.623  0.00  0.00    +0.139 C 
ATOM     22  C   UNL     1      36.575 -19.494 -20.516  0.00  0.00    +0.003 C 
ATOM     23  C   UNL     1      34.608 -21.331 -19.780  0.00  0.00    +0.037 C 
ATOM     24  C   UNL     1      36.895 -20.558 -19.673  0.00  0.00    +0.000 C 
ATOM     25  C   UNL     1      35.912 -21.476 -19.305  0.00  0.00    +0.003 C 
BRANCH  21  26
ATOM     26  O   UNL     1      33.005 -20.148 -21.071  0.00  0.00    -0.471 OA
ATOM     27  C   UNL     1      32.112 -19.372 -20.277  0.00  0.00    +0.252 C 
ENDBRANCH  21  26
ENDBRANCH  11  20
BRANCH  17  28
ATOM     28  O   UNL     1      33.271 -12.307 -26.762  0.00  0.00    -0.506 OA
ATOM     29  H   UNL     1      32.828 -12.816 -27.412  0.00  0.00    +0.292 HD
ENDBRANCH  17  28
BRANCH   3  30
ATOM     30  C   UNL     1      34.097 -14.056 -20.510  0.00  0.00    +0.109 C 
BRANCH  30  31
ATOM     31  C   UNL     1      32.692 -13.969 -19.912  0.00  0.00    +0.056 C 
BRANCH  31  32
ATOM     32  C   UNL     1      32.143 -15.316 -19.461  0.00  0.00    +0.139 C 
BRANCH  32  33
ATOM     33  O   UNL     1      31.481 -15.930 -20.559  0.00  0.00    -0.382 OA
ATOM     34  H   UNL     1      32.136 -16.360 -21.132  0.00  0.00    +0.210 HD
ENDBRANCH  32  33
ENDBRANCH  31  32
ENDBRANCH  30  31
ENDBRANCH   3  30
TORSDOF 7
ENDMDL
MODEL 9
REMARK VINA RESULT:      -7.0      2.475      4.818
REMARK  Name = 10364585
REMARK  7 active torsions:
REMARK  status: ('A' for Active; 'I' for Inactive)
REMARK    1  A    between atoms: N_3  and  C_30
REMARK    2  A    between atoms: C_11  and  C_20
REMARK    3  A    between atoms: C_17  and  O_28
REMARK    4  A    between atoms: C_21  and  O_26
REMARK    5  A    between atoms: C_30  and  C_31
REMARK    6  A    between atoms: C_31  and  C_32
REMARK    7  A    between atoms: C_32  and  O_33
REMARK                            x       y       z     vdW  Elec       q    Type
REMARK                         _______ _______ _______ _____ _____    ______ ____
ROOT
ATOM      1  O   UNL     1      31.865 -12.998 -19.900  0.00  0.00    -0.270 OA
ATOM      2  O   UNL     1      33.053 -17.270 -21.131  0.00  0.00    -0.270 OA
ATOM      3  N   UNL     1      33.894 -11.919 -24.642  0.00  0.00    -0.327 N 
ATOM      4  N   UNL     1      32.326 -15.266 -20.188  0.00  0.00    -0.248 N 
ATOM      5  C   UNL     1      33.135 -12.781 -22.724  0.00  0.00    +0.022 A 
ATOM      6  C   UNL     1      33.745 -13.096 -23.949  0.00  0.00    +0.060 A 
ATOM      7  C   UNL     1      32.924 -11.361 -22.709  0.00  0.00    +0.020 A 
ATOM      8  C   UNL     1      33.408 -10.858 -23.919  0.00  0.00    +0.060 A 
ATOM      9  C   UNL     1      32.900 -13.867 -21.872  0.00  0.00    +0.060 C 
ATOM     10  C   UNL     1      33.257 -15.164 -22.239  0.00  0.00    +0.058 C 
ATOM     11  C   UNL     1      33.855 -15.461 -23.443  0.00  0.00    +0.009 C 
ATOM     12  C   UNL     1      34.109 -14.407 -24.325  0.00  0.00    +0.017 C 
ATOM     13  C   UNL     1      32.370 -10.442 -21.791  0.00  0.00    +0.038 C 
ATOM     14  C   UNL     1      32.297 -13.937 -20.543  0.00  0.00    +0.252 C 
ATOM     15  C   UNL     1      33.367  -9.499 -24.253  0.00  0.00    +0.020 C 
ATOM     16  C   UNL     1      32.886 -16.065 -21.150  0.00  0.00    +0.252 C 
ATOM     17  C   UNL     1      32.321  -9.079 -22.110  0.00  0.00    +0.134 C 
ATOM     18  C   UNL     1      32.813  -8.616 -23.326  0.00  0.00    +0.038 C 
ATOM     19  H   UNL     1      31.980 -15.607 -19.331  0.00  0.00    +0.158 HD
ENDROOT
BRANCH  11  20
ATOM     20  C   UNL     1      34.224 -16.807 -23.822  0.00  0.00    +0.034 C 
ATOM     21  C   UNL     1      35.146 -17.538 -23.069  0.00  0.00    +0.139 C 
ATOM     22  C   UNL     1      33.648 -17.378 -24.959  0.00  0.00    +0.003 C 
ATOM     23  C   UNL     1      35.489 -18.834 -23.451  0.00  0.00    +0.037 C 
ATOM     24  C   UNL     1      33.992 -18.676 -25.340  0.00  0.00    +0.000 C 
ATOM     25  C   UNL     1      34.912 -19.403 -24.587  0.00  0.00    +0.003 C 
BRANCH  21  26
ATOM     26  O   UNL     1      35.726 -17.006 -21.955  0.00  0.00    -0.471 OA
ATOM     27  C   UNL     1      36.110 -17.917 -20.929  0.00  0.00    +0.252 C 
ENDBRANCH  21  26
ENDBRANCH  11  20
BRANCH  17  28
ATOM     28  O   UNL     1      31.785  -8.199 -21.219  0.00  0.00    -0.506 OA
ATOM     29  H   UNL     1      31.317  -8.515 -20.472  0.00  0.00    +0.292 HD
ENDBRANCH  17  28
BRANCH   3  30
ATOM     30  C   UNL     1      34.485 -11.812 -25.961  0.00  0.00    +0.109 C 
BRANCH  30  31
ATOM     31  C   UNL     1      33.515 -12.125 -27.100  0.00  0.00    +0.056 C 
BRANCH  31  32
ATOM     32  C   UNL     1      33.394 -13.614 -27.399  0.00  0.00    +0.139 C 
BRANCH  32  33
ATOM     33  O   UNL     1      32.121 -14.066 -26.955  0.00  0.00    -0.382 OA
ATOM     34  H   UNL     1      31.974 -14.973 -27.266  0.00  0.00    +0.210 HD
ENDBRANCH  32  33
ENDBRANCH  31  32
ENDBRANCH  30  31
ENDBRANCH   3  30
TORSDOF 7
ENDMDL
